MODEL 1
REMARK VINA RESULT:      -7.4      0.000      0.000
REMARK  Name = 
REMARK  7 active torsions:
REMARK  status: ('A' for Active; 'I' for Inactive)
REMARK    1  A    between atoms: C_1  and  C_2
REMARK    2  A    between atoms: C_2  and  N_3
REMARK    3  A    between atoms: C_11  and  N_12
REMARK    4  A    between atoms: N_12  and  C_13
REMARK    5  A    between atoms: C_13  and  C_14
REMARK    6  A    between atoms: C_17  and  O_18
REMARK    7  A    between atoms: O_18  and  C_19
REMARK                            x       y       z     vdW  Elec       q    Type
REMARK                         _______ _______ _______ _____ _____    ______ ____
ROOT
ATOM      1  N   UNL     1       5.126   3.452  16.875  0.00  0.00    +0.000 NA
ATOM      2  H   UNL     1       5.035   2.506  16.501  0.00  0.00    +0.000 HD
ENDROOT
BRANCH   1  11
ATOM      3  N   UNL     1       1.647   3.000  19.545  0.00  0.00    +0.000 N 
ATOM      4  N   UNL     1       1.672   1.828  18.882  0.00  0.00    +0.000 NA
ATOM      5  C   UNL     1       2.453   2.074  17.830  0.00  0.00    +0.000 A 
ATOM      6  C   UNL     1       2.925   3.406  17.800  0.00  0.00    +0.000 A 
ATOM      7  C   UNL     1       2.337   3.988  18.898  0.00  0.00    +0.000 A 
ATOM      8  C   UNL     1       2.435   5.392  19.332  0.00  0.00    +0.000 C 
ATOM      9  C   UNL     1       3.289   6.244  18.394  0.00  0.00    +0.000 C 
ATOM     10  C   UNL     1       3.917   5.629  17.128  0.00  0.00    +0.000 C 
ATOM     11  C   UNL     1       3.811   4.109  16.835  0.00  0.00    +0.000 C 
BRANCH   3  13
ATOM     12  C   UNL     1       1.874   2.762  21.982  0.00  0.00    +0.000 C 
ATOM     13  C   UNL     1       0.955   3.092  20.819  0.00  0.00    +0.000 C 
ENDBRANCH   3  13
ENDBRANCH   1  11
BRANCH   1  14
ATOM     14  C   UNL     1       6.137   4.150  16.080  0.00  0.00    +0.000 C 
BRANCH  14  15
ATOM     15  C   UNL     1       6.812   5.227  16.894  0.00  0.00    +0.000 A 
ATOM     16  C   UNL     1       6.976   6.520  16.376  0.00  0.00    +0.000 A 
ATOM     17  C   UNL     1       7.614   7.512  17.126  0.00  0.00    +0.000 A 
ATOM     18  C   UNL     1       8.108   7.234  18.403  0.00  0.00    +0.000 A 
ATOM     19  C   UNL     1       7.956   5.940  18.908  0.00  0.00    +0.000 A 
ATOM     20  F   UNL     1       8.418   5.600  20.120  0.00  0.00    +0.000 F 
ATOM     21  C   UNL     1       7.320   4.945  18.166  0.00  0.00    +0.000 A 
BRANCH  18  22
ATOM     22  O   UNL     1       8.700   8.300  19.021  0.00  0.00    +0.000 OA
ATOM     23  C   UNL     1       8.614   9.555  18.358  0.00  0.00    +0.000 C 
ENDBRANCH  18  22
ENDBRANCH  14  15
ENDBRANCH   1  14
TORSDOF 5
ENDMDL
MODEL 2
REMARK VINA RESULT:      -7.2      3.182      4.273
REMARK  Name = 
REMARK  7 active torsions:
REMARK  status: ('A' for Active; 'I' for Inactive)
REMARK    1  A    between atoms: C_1  and  C_2
REMARK    2  A    between atoms: C_2  and  N_3
REMARK    3  A    between atoms: C_11  and  N_12
REMARK    4  A    between atoms: N_12  and  C_13
REMARK    5  A    between atoms: C_13  and  C_14
REMARK    6  A    between atoms: C_17  and  O_18
REMARK    7  A    between atoms: O_18  and  C_19
REMARK                            x       y       z     vdW  Elec       q    Type
REMARK                         _______ _______ _______ _____ _____    ______ ____
ROOT
ATOM      1  N   UNL     1       6.253   5.871  17.911  0.00  0.00    +0.000 NA
ATOM      2  H   UNL     1       6.318   5.878  18.930  0.00  0.00    +0.000 HD
ENDROOT
BRANCH   1  11
ATOM      3  N   UNL     1       2.911   4.123  20.194  0.00  0.00    +0.000 N 
ATOM      4  N   UNL     1       3.691   3.056  19.938  0.00  0.00    +0.000 NA
ATOM      5  C   UNL     1       4.488   3.473  18.953  0.00  0.00    +0.000 A 
ATOM      6  C   UNL     1       4.217   4.803  18.559  0.00  0.00    +0.000 A 
ATOM      7  C   UNL     1       3.154   5.171  19.349  0.00  0.00    +0.000 A 
ATOM      8  C   UNL     1       2.419   6.447  19.329  0.00  0.00    +0.000 C 
ATOM      9  C   UNL     1       2.942   7.416  18.269  0.00  0.00    +0.000 C 
ATOM     10  C   UNL     1       4.099   7.009  17.337  0.00  0.00    +0.000 C 
ATOM     11  C   UNL     1       4.850   5.664  17.525  0.00  0.00    +0.000 C 
BRANCH   3  13
ATOM     12  C   UNL     1       1.588   2.647  21.649  0.00  0.00    +0.000 C 
ATOM     13  C   UNL     1       1.960   4.075  21.292  0.00  0.00    +0.000 C 
ENDBRANCH   3  13
ENDBRANCH   1  11
BRANCH   1  14
ATOM     14  C   UNL     1       7.142   4.820  17.415  0.00  0.00    +0.000 C 
BRANCH  14  15
ATOM     15  C   UNL     1       6.907   4.567  15.945  0.00  0.00    +0.000 A 
ATOM     16  C   UNL     1       5.953   3.629  15.523  0.00  0.00    +0.000 A 
ATOM     17  C   UNL     1       5.748   3.386  14.163  0.00  0.00    +0.000 A 
ATOM     18  C   UNL     1       6.492   4.066  13.196  0.00  0.00    +0.000 A 
ATOM     19  C   UNL     1       7.451   4.988  13.622  0.00  0.00    +0.000 A 
ATOM     20  F   UNL     1       8.210   5.667  12.749  0.00  0.00    +0.000 F 
ATOM     21  C   UNL     1       7.662   5.237  14.977  0.00  0.00    +0.000 A 
BRANCH  18  22
ATOM     22  O   UNL     1       6.178   3.733  11.907  0.00  0.00    +0.000 OA
ATOM     23  C   UNL     1       5.371   2.577  11.723  0.00  0.00    +0.000 C 
ENDBRANCH  18  22
ENDBRANCH  14  15
ENDBRANCH   1  14
TORSDOF 5
ENDMDL
MODEL 3
REMARK VINA RESULT:      -7.1      3.932      6.326
REMARK  Name = 
REMARK  7 active torsions:
REMARK  status: ('A' for Active; 'I' for Inactive)
REMARK    1  A    between atoms: C_1  and  C_2
REMARK    2  A    between atoms: C_2  and  N_3
REMARK    3  A    between atoms: C_11  and  N_12
REMARK    4  A    between atoms: N_12  and  C_13
REMARK    5  A    between atoms: C_13  and  C_14
REMARK    6  A    between atoms: C_17  and  O_18
REMARK    7  A    between atoms: O_18  and  C_19
REMARK                            x       y       z     vdW  Elec       q    Type
REMARK                         _______ _______ _______ _____ _____    ______ ____
ROOT
ATOM      1  N   UNL     1       2.232   5.639  17.989  0.00  0.00    +0.000 NA
ATOM      2  H   UNL     1       1.373   5.087  18.006  0.00  0.00    +0.000 HD
ENDROOT
BRANCH   1  11
ATOM      3  N   UNL     1       6.528   6.546  17.589  0.00  0.00    +0.000 N 
ATOM      4  N   UNL     1       5.981   7.215  16.556  0.00  0.00    +0.000 NA
ATOM      5  C   UNL     1       4.772   6.668  16.426  0.00  0.00    +0.000 A 
ATOM      6  C   UNL     1       4.536   5.636  17.363  0.00  0.00    +0.000 A 
ATOM      7  C   UNL     1       5.717   5.550  18.062  0.00  0.00    +0.000 A 
ATOM      8  C   UNL     1       6.060   4.601  19.134  0.00  0.00    +0.000 C 
ATOM      9  C   UNL     1       4.932   3.614  19.436  0.00  0.00    +0.000 C 
ATOM     10  C   UNL     1       3.617   3.656  18.632  0.00  0.00    +0.000 C 
ATOM     11  C   UNL     1       3.348   4.771  17.587  0.00  0.00    +0.000 C 
BRANCH   3  13
ATOM     12  C   UNL     1       8.106   8.411  17.861  0.00  0.00    +0.000 C 
ATOM     13  C   UNL     1       7.835   6.935  18.090  0.00  0.00    +0.000 C 
ENDBRANCH   3  13
ENDBRANCH   1  11
BRANCH   1  14
ATOM     14  C   UNL     1       2.413   6.221  19.320  0.00  0.00    +0.000 C 
BRANCH  14  15
ATOM     15  C   UNL     1       1.936   7.653  19.350  0.00  0.00    +0.000 A 
ATOM     16  C   UNL     1       2.081   8.480  18.227  0.00  0.00    +0.000 A 
ATOM     17  C   UNL     1       1.652   9.809  18.263  0.00  0.00    +0.000 A 
ATOM     18  C   UNL     1       1.077  10.343  19.418  0.00  0.00    +0.000 A 
ATOM     19  C   UNL     1       0.949   9.519  20.540  0.00  0.00    +0.000 A 
ATOM     20  F   UNL     1       0.419   9.969  21.686  0.00  0.00    +0.000 F 
ATOM     21  C   UNL     1       1.374   8.192  20.512  0.00  0.00    +0.000 A 
BRANCH  18  22
ATOM     22  O   UNL     1       0.698  11.652  19.304  0.00  0.00    +0.000 OA
ATOM     23  C   UNL     1       1.587  12.519  18.612  0.00  0.00    +0.000 C 
ENDBRANCH  18  22
ENDBRANCH  14  15
ENDBRANCH   1  14
TORSDOF 5
ENDMDL
MODEL 4
REMARK VINA RESULT:      -7.1      3.046      4.204
REMARK  Name = 
REMARK  7 active torsions:
REMARK  status: ('A' for Active; 'I' for Inactive)
REMARK    1  A    between atoms: C_1  and  C_2
REMARK    2  A    between atoms: C_2  and  N_3
REMARK    3  A    between atoms: C_11  and  N_12
REMARK    4  A    between atoms: N_12  and  C_13
REMARK    5  A    between atoms: C_13  and  C_14
REMARK    6  A    between atoms: C_17  and  O_18
REMARK    7  A    between atoms: O_18  and  C_19
REMARK                            x       y       z     vdW  Elec       q    Type
REMARK                         _______ _______ _______ _____ _____    ______ ____
ROOT
ATOM      1  N   UNL     1       5.987   4.393  18.002  0.00  0.00    +0.000 NA
ATOM      2  H   UNL     1       6.062   3.375  17.966  0.00  0.00    +0.000 HD
ENDROOT
BRANCH   1  11
ATOM      3  N   UNL     1       1.996   3.041  19.300  0.00  0.00    +0.000 N 
ATOM      4  N   UNL     1       2.486   1.963  18.658  0.00  0.00    +0.000 NA
ATOM      5  C   UNL     1       3.502   2.450  17.945  0.00  0.00    +0.000 A 
ATOM      6  C   UNL     1       3.665   3.844  18.111  0.00  0.00    +0.000 A 
ATOM      7  C   UNL     1       2.638   4.199  18.952  0.00  0.00    +0.000 A 
ATOM      8  C   UNL     1       2.289   5.549  19.426  0.00  0.00    +0.000 C 
ATOM      9  C   UNL     1       3.207   6.632  18.859  0.00  0.00    +0.000 C 
ATOM     10  C   UNL     1       4.334   6.267  17.873  0.00  0.00    +0.000 C 
ATOM     11  C   UNL     1       4.654   4.789  17.527  0.00  0.00    +0.000 C 
BRANCH   3  13
ATOM     12  C   UNL     1       1.445   2.690  21.670  0.00  0.00    +0.000 C 
ATOM     13  C   UNL     1       0.917   2.881  20.259  0.00  0.00    +0.000 C 
ENDBRANCH   3  13
ENDBRANCH   1  11
BRANCH   1  14
ATOM     14  C   UNL     1       7.070   4.948  17.189  0.00  0.00    +0.000 C 
BRANCH  14  15
ATOM     15  C   UNL     1       6.870   4.619  15.729  0.00  0.00    +0.000 A 
ATOM     16  C   UNL     1       5.997   3.594  15.339  0.00  0.00    +0.000 A 
ATOM     17  C   UNL     1       5.824   3.282  13.988  0.00  0.00    +0.000 A 
ATOM     18  C   UNL     1       6.523   3.980  12.999  0.00  0.00    +0.000 A 
ATOM     19  C   UNL     1       7.405   4.989  13.395  0.00  0.00    +0.000 A 
ATOM     20  F   UNL     1       8.118   5.689  12.501  0.00  0.00    +0.000 F 
ATOM     21  C   UNL     1       7.582   5.307  14.741  0.00  0.00    +0.000 A 
BRANCH  18  22
ATOM     22  O   UNL     1       6.249   3.572  11.723  0.00  0.00    +0.000 OA
ATOM     23  C   UNL     1       5.502   2.370  11.581  0.00  0.00    +0.000 C 
ENDBRANCH  18  22
ENDBRANCH  14  15
ENDBRANCH   1  14
TORSDOF 5
ENDMDL
MODEL 5
REMARK VINA RESULT:      -7.1      4.428      6.943
REMARK  Name = 
REMARK  7 active torsions:
REMARK  status: ('A' for Active; 'I' for Inactive)
REMARK    1  A    between atoms: C_1  and  C_2
REMARK    2  A    between atoms: C_2  and  N_3
REMARK    3  A    between atoms: C_11  and  N_12
REMARK    4  A    between atoms: N_12  and  C_13
REMARK    5  A    between atoms: C_13  and  C_14
REMARK    6  A    between atoms: C_17  and  O_18
REMARK    7  A    between atoms: O_18  and  C_19
REMARK                            x       y       z     vdW  Elec       q    Type
REMARK                         _______ _______ _______ _____ _____    ______ ____
ROOT
ATOM      1  N   UNL     1       2.976   6.562  19.682  0.00  0.00    +0.000 NA
ATOM      2  H   UNL     1       3.344   7.510  19.585  0.00  0.00    +0.000 HD
ENDROOT
BRANCH   1  11
ATOM      3  N   UNL     1       5.591   5.208  16.400  0.00  0.00    +0.000 N 
ATOM      4  N   UNL     1       5.790   6.540  16.415  0.00  0.00    +0.000 NA
ATOM      5  C   UNL     1       4.759   7.010  17.118  0.00  0.00    +0.000 A 
ATOM      6  C   UNL     1       3.883   5.988  17.548  0.00  0.00    +0.000 A 
ATOM      7  C   UNL     1       4.426   4.842  17.017  0.00  0.00    +0.000 A 
ATOM      8  C   UNL     1       3.895   3.472  17.104  0.00  0.00    +0.000 C 
ATOM      9  C   UNL     1       2.574   3.395  17.870  0.00  0.00    +0.000 C 
ATOM     10  C   UNL     1       1.917   4.671  18.431  0.00  0.00    +0.000 C 
ATOM     11  C   UNL     1       2.631   6.046  18.349  0.00  0.00    +0.000 C 
BRANCH   3  13
ATOM     12  C   UNL     1       6.350   4.184  14.298  0.00  0.00    +0.000 C 
ATOM     13  C   UNL     1       6.581   4.337  15.791  0.00  0.00    +0.000 C 
ENDBRANCH   3  13
ENDBRANCH   1  11
BRANCH   1  14
ATOM     14  C   UNL     1       1.827   6.620  20.586  0.00  0.00    +0.000 C 
BRANCH  14  15
ATOM     15  C   UNL     1       1.319   8.035  20.721  0.00  0.00    +0.000 A 
ATOM     16  C   UNL     1       1.355   8.916  19.630  0.00  0.00    +0.000 A 
ATOM     17  C   UNL     1       0.898  10.230  19.761  0.00  0.00    +0.000 A 
ATOM     18  C   UNL     1       0.403  10.695  20.982  0.00  0.00    +0.000 A 
ATOM     19  C   UNL     1       0.385   9.819  22.070  0.00  0.00    +0.000 A 
ATOM     20  F   UNL     1      -0.063  10.202  23.274  0.00  0.00    +0.000 F 
ATOM     21  C   UNL     1       0.839   8.506  21.947  0.00  0.00    +0.000 A 
BRANCH  18  22
ATOM     22  O   UNL     1      -0.015  11.997  20.959  0.00  0.00    +0.000 OA
ATOM     23  C   UNL     1      -1.384  12.226  20.650  0.00  0.00    +0.000 C 
ENDBRANCH  18  22
ENDBRANCH  14  15
ENDBRANCH   1  14
TORSDOF 5
ENDMDL
MODEL 6
REMARK VINA RESULT:      -7.0      3.959      5.349
REMARK  Name = 
REMARK  7 active torsions:
REMARK  status: ('A' for Active; 'I' for Inactive)
REMARK    1  A    between atoms: C_1  and  C_2
REMARK    2  A    between atoms: C_2  and  N_3
REMARK    3  A    between atoms: C_11  and  N_12
REMARK    4  A    between atoms: N_12  and  C_13
REMARK    5  A    between atoms: C_13  and  C_14
REMARK    6  A    between atoms: C_17  and  O_18
REMARK    7  A    between atoms: O_18  and  C_19
REMARK                            x       y       z     vdW  Elec       q    Type
REMARK                         _______ _______ _______ _____ _____    ______ ____
ROOT
ATOM      1  N   UNL     1       3.257   6.797  19.918  0.00  0.00    +0.000 NA
ATOM      2  H   UNL     1       3.225   6.941  20.928  0.00  0.00    +0.000 HD
ENDROOT
BRANCH   1  11
ATOM      3  N   UNL     1       0.581  10.065  21.183  0.00  0.00    +0.000 N 
ATOM      4  N   UNL     1       0.403   9.140  22.146  0.00  0.00    +0.000 NA
ATOM      5  C   UNL     1       0.889   8.022  21.607  0.00  0.00    +0.000 A 
ATOM      6  C   UNL     1       1.371   8.214  20.292  0.00  0.00    +0.000 A 
ATOM      7  C   UNL     1       1.103   9.538  20.033  0.00  0.00    +0.000 A 
ATOM      8  C   UNL     1       1.346  10.276  18.783  0.00  0.00    +0.000 C 
ATOM      9  C   UNL     1       1.948   9.401  17.684  0.00  0.00    +0.000 C 
ATOM     10  C   UNL     1       2.210   7.902  17.931  0.00  0.00    +0.000 C 
ATOM     11  C   UNL     1       1.994   7.267  19.330  0.00  0.00    +0.000 C 
BRANCH   3  13
ATOM     12  C   UNL     1      -1.192  11.765  21.074  0.00  0.00    +0.000 C 
ATOM     13  C   UNL     1       0.246  11.454  21.446  0.00  0.00    +0.000 C 
ENDBRANCH   3  13
ENDBRANCH   1  11
BRANCH   1  14
ATOM     14  C   UNL     1       3.503   5.375  19.679  0.00  0.00    +0.000 C 
BRANCH  14  15
ATOM     15  C   UNL     1       4.588   5.183  18.647  0.00  0.00    +0.000 A 
ATOM     16  C   UNL     1       4.266   4.991  17.296  0.00  0.00    +0.000 A 
ATOM     17  C   UNL     1       5.272   4.799  16.345  0.00  0.00    +0.000 A 
ATOM     18  C   UNL     1       6.617   4.788  16.721  0.00  0.00    +0.000 A 
ATOM     19  C   UNL     1       6.932   4.964  18.071  0.00  0.00    +0.000 A 
ATOM     20  F   UNL     1       8.200   4.952  18.504  0.00  0.00    +0.000 F 
ATOM     21  C   UNL     1       5.934   5.156  19.025  0.00  0.00    +0.000 A 
BRANCH  18  22
ATOM     22  O   UNL     1       7.489   4.599  15.685  0.00  0.00    +0.000 OA
ATOM     23  C   UNL     1       6.972   4.773  14.372  0.00  0.00    +0.000 C 
ENDBRANCH  18  22
ENDBRANCH  14  15
ENDBRANCH   1  14
TORSDOF 5
ENDMDL
MODEL 7
REMARK VINA RESULT:      -7.0      4.359      6.934
REMARK  Name = 
REMARK  7 active torsions:
REMARK  status: ('A' for Active; 'I' for Inactive)
REMARK    1  A    between atoms: C_1  and  C_2
REMARK    2  A    between atoms: C_2  and  N_3
REMARK    3  A    between atoms: C_11  and  N_12
REMARK    4  A    between atoms: N_12  and  C_13
REMARK    5  A    between atoms: C_13  and  C_14
REMARK    6  A    between atoms: C_17  and  O_18
REMARK    7  A    between atoms: O_18  and  C_19
REMARK                            x       y       z     vdW  Elec       q    Type
REMARK                         _______ _______ _______ _____ _____    ______ ____
ROOT
ATOM      1  N   UNL     1       2.990   6.565  19.628  0.00  0.00    +0.000 NA
ATOM      2  H   UNL     1       3.381   7.501  19.514  0.00  0.00    +0.000 HD
ENDROOT
BRANCH   1  11
ATOM      3  N   UNL     1       5.593   5.186  16.349  0.00  0.00    +0.000 N 
ATOM      4  N   UNL     1       5.784   6.519  16.345  0.00  0.00    +0.000 NA
ATOM      5  C   UNL     1       4.754   6.991  17.048  0.00  0.00    +0.000 A 
ATOM      6  C   UNL     1       3.887   5.969  17.497  0.00  0.00    +0.000 A 
ATOM      7  C   UNL     1       4.435   4.820  16.978  0.00  0.00    +0.000 A 
ATOM      8  C   UNL     1       3.913   3.447  17.085  0.00  0.00    +0.000 C 
ATOM      9  C   UNL     1       2.597   3.372  17.860  0.00  0.00    +0.000 C 
ATOM     10  C   UNL     1       1.936   4.651  18.408  0.00  0.00    +0.000 C 
ATOM     11  C   UNL     1       2.640   6.029  18.305  0.00  0.00    +0.000 C 
BRANCH   3  13
ATOM     12  C   UNL     1       6.323   4.107  14.264  0.00  0.00    +0.000 C 
ATOM     13  C   UNL     1       6.585   4.313  15.745  0.00  0.00    +0.000 C 
ENDBRANCH   3  13
ENDBRANCH   1  11
BRANCH   1  14
ATOM     14  C   UNL     1       1.837   6.670  20.524  0.00  0.00    +0.000 C 
BRANCH  14  15
ATOM     15  C   UNL     1       1.389   8.105  20.658  0.00  0.00    +0.000 A 
ATOM     16  C   UNL     1       0.996   8.620  21.902  0.00  0.00    +0.000 A 
ATOM     17  C   UNL     1       0.568   9.944  22.021  0.00  0.00    +0.000 A 
ATOM     18  C   UNL     1       0.517  10.781  20.904  0.00  0.00    +0.000 A 
ATOM     19  C   UNL     1       0.895  10.259  19.664  0.00  0.00    +0.000 A 
ATOM     20  F   UNL     1       0.858  11.001  18.548  0.00  0.00    +0.000 F 
ATOM     21  C   UNL     1       1.323   8.939  19.537  0.00  0.00    +0.000 A 
BRANCH  18  22
ATOM     22  O   UNL     1       0.087  12.051  21.172  0.00  0.00    +0.000 OA
ATOM     23  C   UNL     1      -1.272  12.345  20.874  0.00  0.00    +0.000 C 
ENDBRANCH  18  22
ENDBRANCH  14  15
ENDBRANCH   1  14
TORSDOF 5
ENDMDL
MODEL 8
REMARK VINA RESULT:      -6.9      4.797      7.123
REMARK  Name = 
REMARK  7 active torsions:
REMARK  status: ('A' for Active; 'I' for Inactive)
REMARK    1  A    between atoms: C_1  and  C_2
REMARK    2  A    between atoms: C_2  and  N_3
REMARK    3  A    between atoms: C_11  and  N_12
REMARK    4  A    between atoms: N_12  and  C_13
REMARK    5  A    between atoms: C_13  and  C_14
REMARK    6  A    between atoms: C_17  and  O_18
REMARK    7  A    between atoms: O_18  and  C_19
REMARK                            x       y       z     vdW  Elec       q    Type
REMARK                         _______ _______ _______ _____ _____    ______ ____
ROOT
ATOM      1  N   UNL     1       2.252   7.479  18.624  0.00  0.00    +0.000 NA
ATOM      2  H   UNL     1       1.372   7.818  18.233  0.00  0.00    +0.000 HD
ENDROOT
BRANCH   1  11
ATOM      3  N   UNL     1       6.125   5.630  17.615  0.00  0.00    +0.000 N 
ATOM      4  N   UNL     1       5.997   6.591  16.679  0.00  0.00    +0.000 NA
ATOM      5  C   UNL     1       4.701   6.905  16.720  0.00  0.00    +0.000 A 
ATOM      6  C   UNL     1       3.985   6.141  17.670  0.00  0.00    +0.000 A 
ATOM      7  C   UNL     1       4.931   5.290  18.189  0.00  0.00    +0.000 A 
ATOM      8  C   UNL     1       4.731   4.228  19.189  0.00  0.00    +0.000 C 
ATOM      9  C   UNL     1       3.276   4.103  19.641  0.00  0.00    +0.000 C 
ATOM     10  C   UNL     1       2.188   5.011  19.036  0.00  0.00    +0.000 C 
ATOM     11  C   UNL     1       2.548   6.157  18.054  0.00  0.00    +0.000 C 
BRANCH   3  13
ATOM     12  C   UNL     1       8.026   5.738  19.170  0.00  0.00    +0.000 C 
ATOM     13  C   UNL     1       7.440   5.097  17.924  0.00  0.00    +0.000 C 
ENDBRANCH   3  13
ENDBRANCH   1  11
BRANCH   1  14
ATOM     14  C   UNL     1       2.111   7.454  20.081  0.00  0.00    +0.000 C 
BRANCH  14  15
ATOM     15  C   UNL     1       1.270   8.612  20.560  0.00  0.00    +0.000 A 
ATOM     16  C   UNL     1       0.914   9.649  19.685  0.00  0.00    +0.000 A 
ATOM     17  C   UNL     1       0.148  10.728  20.135  0.00  0.00    +0.000 A 
ATOM     18  C   UNL     1      -0.272  10.799  21.466  0.00  0.00    +0.000 A 
ATOM     19  C   UNL     1       0.099   9.772  22.337  0.00  0.00    +0.000 A 
ATOM     20  F   UNL     1      -0.257   9.783  23.629  0.00  0.00    +0.000 F 
ATOM     21  C   UNL     1       0.863   8.692  21.895  0.00  0.00    +0.000 A 
BRANCH  18  22
ATOM     22  O   UNL     1      -1.020  11.906  21.760  0.00  0.00    +0.000 OA
ATOM     23  C   UNL     1      -2.042  12.254  20.835  0.00  0.00    +0.000 C 
ENDBRANCH  18  22
ENDBRANCH  14  15
ENDBRANCH   1  14
TORSDOF 5
ENDMDL
MODEL 9
REMARK VINA RESULT:      -6.9      5.008      7.337
REMARK  Name = 
REMARK  7 active torsions:
REMARK  status: ('A' for Active; 'I' for Inactive)
REMARK    1  A    between atoms: C_1  and  C_2
REMARK    2  A    between atoms: C_2  and  N_3
REMARK    3  A    between atoms: C_11  and  N_12
REMARK    4  A    between atoms: N_12  and  C_13
REMARK    5  A    between atoms: C_13  and  C_14
REMARK    6  A    between atoms: C_17  and  O_18
REMARK    7  A    between atoms: O_18  and  C_19
REMARK                            x       y       z     vdW  Elec       q    Type
REMARK                         _______ _______ _______ _____ _____    ______ ____
ROOT
ATOM      1  N   UNL     1       2.135   6.844  20.453  0.00  0.00    +0.000 NA
ATOM      2  H   UNL     1       3.063   6.929  20.870  0.00  0.00    +0.000 HD
ENDROOT
BRANCH   1  11
ATOM      3  N   UNL     1       5.359   5.290  17.878  0.00  0.00    +0.000 N 
ATOM      4  N   UNL     1       5.039   6.458  17.289  0.00  0.00    +0.000 NA
ATOM      5  C   UNL     1       3.847   6.760  17.804  0.00  0.00    +0.000 A 
ATOM      6  C   UNL     1       3.385   5.783  18.716  0.00  0.00    +0.000 A 
ATOM      7  C   UNL     1       4.367   4.822  18.695  0.00  0.00    +0.000 A 
ATOM      8  C   UNL     1       4.385   3.541  19.421  0.00  0.00    +0.000 C 
ATOM      9  C   UNL     1       3.126   3.315  20.258  0.00  0.00    +0.000 C 
ATOM     10  C   UNL     1       1.988   4.353  20.258  0.00  0.00    +0.000 C 
ATOM     11  C   UNL     1       2.135   5.709  19.519  0.00  0.00    +0.000 C 
BRANCH   3  13
ATOM     12  C   UNL     1       6.957   4.601  16.141  0.00  0.00    +0.000 C 
ATOM     13  C   UNL     1       6.656   4.687  17.626  0.00  0.00    +0.000 C 
ENDBRANCH   3  13
ENDBRANCH   1  11
BRANCH   1  14
ATOM     14  C   UNL     1       1.821   8.118  19.803  0.00  0.00    +0.000 C 
BRANCH  14  15
ATOM     15  C   UNL     1       0.926   8.961  20.678  0.00  0.00    +0.000 A 
ATOM     16  C   UNL     1       0.084   9.932  20.116  0.00  0.00    +0.000 A 
ATOM     17  C   UNL     1      -0.733  10.722  20.930  0.00  0.00    +0.000 A 
ATOM     18  C   UNL     1      -0.723  10.566  22.318  0.00  0.00    +0.000 A 
ATOM     19  C   UNL     1       0.130   9.608  22.873  0.00  0.00    +0.000 A 
ATOM     20  F   UNL     1       0.201   9.415  24.198  0.00  0.00    +0.000 F 
ATOM     21  C   UNL     1       0.948   8.816  22.069  0.00  0.00    +0.000 A 
BRANCH  18  22
ATOM     22  O   UNL     1      -1.578  11.400  22.983  0.00  0.00    +0.000 OA
ATOM     23  C   UNL     1      -1.213  12.773  23.048  0.00  0.00    +0.000 C 
ENDBRANCH  18  22
ENDBRANCH  14  15
ENDBRANCH   1  14
TORSDOF 5
ENDMDL
