MODEL 1
REMARK VINA RESULT:      -5.9      0.000      0.000
REMARK  Name = 
REMARK  7 active torsions:
REMARK  status: ('A' for Active; 'I' for Inactive)
REMARK    1  A    between atoms: C_1  and  S_2
REMARK    2  A    between atoms: S_2  and  C_3
REMARK    3  A    between atoms: C_3  and  S_19
REMARK    4  A    between atoms: N_4  and  C_5
REMARK    5  A    between atoms: C_8  and  C_9
REMARK    6  A    between atoms: C_12  and  N_13
REMARK    7  A    between atoms: S_19  and  C_20
REMARK                            x       y       z     vdW  Elec       q    Type
REMARK                         _______ _______ _______ _____ _____    ______ ____
ROOT
ATOM      1  C   UNL     1       1.511   9.992  18.763  0.00  0.00    +0.000 A 
ATOM      2  N   UNL     1       1.986   9.736  17.560  0.00  0.00    +0.000 NA
ATOM      3  N   UNL     1       2.449   8.447  17.426  0.00  0.00    +0.000 NA
ATOM      4  C   UNL     1       2.246   7.720  18.508  0.00  0.00    +0.000 A 
ATOM      5  S   UNL     1       1.368   8.562  19.723  0.00  0.00    +0.000 S 
ENDROOT
BRANCH   4   6
ATOM      6  C   UNL     1       2.766   6.355  18.696  0.00  0.00    +0.000 A 
ATOM      7  C   UNL     1       2.514   5.702  19.920  0.00  0.00    +0.000 A 
ATOM      8  C   UNL     1       2.947   4.393  20.152  0.00  0.00    +0.000 A 
ATOM      9  C   UNL     1       3.649   3.717  19.152  0.00  0.00    +0.000 A 
ATOM     10  C   UNL     1       3.908   4.336  17.924  0.00  0.00    +0.000 A 
ATOM     11  C   UNL     1       3.470   5.648  17.705  0.00  0.00    +0.000 A 
BRANCH   9  12
ATOM     12  N   UNL     1       4.120   2.345  19.396  0.00  0.00    +0.000 N 
ATOM     13  O   UNL     1       4.932   2.171  20.312  0.00  0.00    +0.000 OA
ATOM     14  O   UNL     1       3.679   1.449  18.659  0.00  0.00    +0.000 OA
ENDBRANCH   9  12
ENDBRANCH   4   6
BRANCH   1  16
ATOM     15  C   UNL     1      -0.115  11.563  19.213  0.00  0.00    +0.000 C 
ATOM     16  N   UNL     1       1.113  11.161  19.315  0.00  0.00    +0.000 NA
BRANCH  15  18
ATOM     17  C   UNL     1      -2.850  11.877  18.936  0.00  0.00    +0.000 C 
ATOM     18  S   UNL     1      -1.485  10.821  18.409  0.00  0.00    +0.000 S 
ENDBRANCH  15  18
BRANCH  15  19
ATOM     19  S   UNL     1      -0.575  13.076  19.998  0.00  0.00    +0.000 S 
ATOM     20  C   UNL     1       0.426  14.286  19.112  0.00  0.00    +0.000 C 
ENDBRANCH  15  19
ENDBRANCH   1  16
TORSDOF 5
ENDMDL
MODEL 2
REMARK VINA RESULT:      -5.8      0.750      1.541
REMARK  Name = 
REMARK  7 active torsions:
REMARK  status: ('A' for Active; 'I' for Inactive)
REMARK    1  A    between atoms: C_1  and  S_2
REMARK    2  A    between atoms: S_2  and  C_3
REMARK    3  A    between atoms: C_3  and  S_19
REMARK    4  A    between atoms: N_4  and  C_5
REMARK    5  A    between atoms: C_8  and  C_9
REMARK    6  A    between atoms: C_12  and  N_13
REMARK    7  A    between atoms: S_19  and  C_20
REMARK                            x       y       z     vdW  Elec       q    Type
REMARK                         _______ _______ _______ _____ _____    ______ ____
ROOT
ATOM      1  C   UNL     1       1.591   9.951  18.689  0.00  0.00    +0.000 A 
ATOM      2  N   UNL     1       2.078   9.621  17.510  0.00  0.00    +0.000 NA
ATOM      3  N   UNL     1       2.486   8.307  17.443  0.00  0.00    +0.000 NA
ATOM      4  C   UNL     1       2.228   7.640  18.551  0.00  0.00    +0.000 A 
ATOM      5  S   UNL     1       1.364   8.574  19.708  0.00  0.00    +0.000 S 
ENDROOT
BRANCH   4   6
ATOM      6  C   UNL     1       2.682   6.263  18.811  0.00  0.00    +0.000 A 
ATOM      7  C   UNL     1       3.506   5.636  17.856  0.00  0.00    +0.000 A 
ATOM      8  C   UNL     1       4.003   4.344  18.055  0.00  0.00    +0.000 A 
ATOM      9  C   UNL     1       3.673   3.657  19.225  0.00  0.00    +0.000 A 
ATOM     10  C   UNL     1       2.861   4.256  20.195  0.00  0.00    +0.000 A 
ATOM     11  C   UNL     1       2.370   5.550  19.982  0.00  0.00    +0.000 A 
BRANCH   9  12
ATOM     12  N   UNL     1       4.180   2.292  19.434  0.00  0.00    +0.000 N 
ATOM     13  O   UNL     1       3.750   1.399  18.693  0.00  0.00    +0.000 OA
ATOM     14  O   UNL     1       5.001   2.119  20.347  0.00  0.00    +0.000 OA
ENDBRANCH   9  12
ENDBRANCH   4   6
BRANCH   1  16
ATOM     15  C   UNL     1      -0.011  11.513  19.247  0.00  0.00    +0.000 C 
ATOM     16  N   UNL     1       1.235  11.160  19.180  0.00  0.00    +0.000 NA
BRANCH  15  18
ATOM     17  C   UNL     1      -2.093  11.692  17.435  0.00  0.00    +0.000 C 
ATOM     18  S   UNL     1      -1.458  10.650  18.763  0.00  0.00    +0.000 S 
ENDBRANCH  15  18
BRANCH  15  19
ATOM     19  S   UNL     1      -0.405  13.087  19.942  0.00  0.00    +0.000 S 
ATOM     20  C   UNL     1      -1.536  12.644  21.275  0.00  0.00    +0.000 C 
ENDBRANCH  15  19
ENDBRANCH   1  16
TORSDOF 5
ENDMDL
MODEL 3
REMARK VINA RESULT:      -5.8      5.018      8.178
REMARK  Name = 
REMARK  7 active torsions:
REMARK  status: ('A' for Active; 'I' for Inactive)
REMARK    1  A    between atoms: C_1  and  S_2
REMARK    2  A    between atoms: S_2  and  C_3
REMARK    3  A    between atoms: C_3  and  S_19
REMARK    4  A    between atoms: N_4  and  C_5
REMARK    5  A    between atoms: C_8  and  C_9
REMARK    6  A    between atoms: C_12  and  N_13
REMARK    7  A    between atoms: S_19  and  C_20
REMARK                            x       y       z     vdW  Elec       q    Type
REMARK                         _______ _______ _______ _____ _____    ______ ____
ROOT
ATOM      1  C   UNL     1       3.381   6.485  18.189  0.00  0.00    +0.000 A 
ATOM      2  N   UNL     1       2.951   5.723  19.175  0.00  0.00    +0.000 NA
ATOM      3  N   UNL     1       2.155   6.401  20.072  0.00  0.00    +0.000 NA
ATOM      4  C   UNL     1       1.930   7.649  19.708  0.00  0.00    +0.000 A 
ATOM      5  S   UNL     1       2.604   8.029  18.173  0.00  0.00    +0.000 S 
ENDROOT
BRANCH   4   6
ATOM      6  C   UNL     1       1.234   8.641  20.545  0.00  0.00    +0.000 A 
ATOM      7  C   UNL     1       0.676   9.774  19.921  0.00  0.00    +0.000 A 
ATOM      8  C   UNL     1      -0.029  10.737  20.650  0.00  0.00    +0.000 A 
ATOM      9  C   UNL     1      -0.182  10.575  22.029  0.00  0.00    +0.000 A 
ATOM     10  C   UNL     1       0.355   9.456  22.676  0.00  0.00    +0.000 A 
ATOM     11  C   UNL     1       1.060   8.500  21.934  0.00  0.00    +0.000 A 
BRANCH   9  12
ATOM     12  N   UNL     1      -0.910  11.591  22.804  0.00  0.00    +0.000 N 
ATOM     13  O   UNL     1      -1.973  11.254  23.338  0.00  0.00    +0.000 OA
ATOM     14  O   UNL     1      -0.415  12.727  22.865  0.00  0.00    +0.000 OA
ENDBRANCH   9  12
ENDBRANCH   4   6
BRANCH   1  16
ATOM     15  C   UNL     1       5.458   5.757  17.506  0.00  0.00    +0.000 C 
ATOM     16  N   UNL     1       4.286   6.228  17.217  0.00  0.00    +0.000 NA
BRANCH  15  18
ATOM     17  C   UNL     1       7.814   6.094  18.916  0.00  0.00    +0.000 C 
ATOM     18  S   UNL     1       6.170   5.366  19.059  0.00  0.00    +0.000 S 
ENDBRANCH  15  18
BRANCH  15  19
ATOM     19  S   UNL     1       6.572   5.400  16.183  0.00  0.00    +0.000 S 
ATOM     20  C   UNL     1       5.875   3.888  15.492  0.00  0.00    +0.000 C 
ENDBRANCH  15  19
ENDBRANCH   1  16
TORSDOF 5
ENDMDL
MODEL 4
REMARK VINA RESULT:      -5.7      4.831      8.025
REMARK  Name = 
REMARK  7 active torsions:
REMARK  status: ('A' for Active; 'I' for Inactive)
REMARK    1  A    between atoms: C_1  and  S_2
REMARK    2  A    between atoms: S_2  and  C_3
REMARK    3  A    between atoms: C_3  and  S_19
REMARK    4  A    between atoms: N_4  and  C_5
REMARK    5  A    between atoms: C_8  and  C_9
REMARK    6  A    between atoms: C_12  and  N_13
REMARK    7  A    between atoms: S_19  and  C_20
REMARK                            x       y       z     vdW  Elec       q    Type
REMARK                         _______ _______ _______ _____ _____    ______ ____
ROOT
ATOM      1  C   UNL     1       4.032   5.291  17.957  0.00  0.00    +0.000 A 
ATOM      2  N   UNL     1       3.850   4.823  19.176  0.00  0.00    +0.000 NA
ATOM      3  N   UNL     1       3.075   5.648  19.960  0.00  0.00    +0.000 NA
ATOM      4  C   UNL     1       2.615   6.692  19.298  0.00  0.00    +0.000 A 
ATOM      5  S   UNL     1       3.028   6.659  17.629  0.00  0.00    +0.000 S 
ENDROOT
BRANCH   4   6
ATOM      6  C   UNL     1       1.882   7.808  19.920  0.00  0.00    +0.000 A 
ATOM      7  C   UNL     1       1.580   8.936  19.132  0.00  0.00    +0.000 A 
ATOM      8  C   UNL     1       0.856  10.015  19.647  0.00  0.00    +0.000 A 
ATOM      9  C   UNL     1       0.423   9.976  20.975  0.00  0.00    +0.000 A 
ATOM     10  C   UNL     1       0.702   8.866  21.781  0.00  0.00    +0.000 A 
ATOM     11  C   UNL     1       1.429   7.793  21.251  0.00  0.00    +0.000 A 
BRANCH   9  12
ATOM     12  N   UNL     1      -0.326  11.114  21.528  0.00  0.00    +0.000 N 
ATOM     13  O   UNL     1      -0.198  11.355  22.735  0.00  0.00    +0.000 OA
ATOM     14  O   UNL     1      -1.049  11.757  20.751  0.00  0.00    +0.000 OA
ENDBRANCH   9  12
ENDBRANCH   4   6
BRANCH   1  16
ATOM     15  C   UNL     1       6.017   5.365  16.787  0.00  0.00    +0.000 C 
ATOM     16  N   UNL     1       4.840   4.853  16.964  0.00  0.00    +0.000 NA
BRANCH  15  18
ATOM     17  C   UNL     1       7.649   5.742  18.989  0.00  0.00    +0.000 C 
ATOM     18  S   UNL     1       6.835   6.648  17.658  0.00  0.00    +0.000 S 
ENDBRANCH  15  18
BRANCH  15  19
ATOM     19  S   UNL     1       7.036   4.713  15.501  0.00  0.00    +0.000 S 
ATOM     20  C   UNL     1       5.821   4.214  14.266  0.00  0.00    +0.000 C 
ENDBRANCH  15  19
ENDBRANCH   1  16
TORSDOF 5
ENDMDL
MODEL 5
REMARK VINA RESULT:      -5.7      4.934      8.055
REMARK  Name = 
REMARK  7 active torsions:
REMARK  status: ('A' for Active; 'I' for Inactive)
REMARK    1  A    between atoms: C_1  and  S_2
REMARK    2  A    between atoms: S_2  and  C_3
REMARK    3  A    between atoms: C_3  and  S_19
REMARK    4  A    between atoms: N_4  and  C_5
REMARK    5  A    between atoms: C_8  and  C_9
REMARK    6  A    between atoms: C_12  and  N_13
REMARK    7  A    between atoms: S_19  and  C_20
REMARK                            x       y       z     vdW  Elec       q    Type
REMARK                         _______ _______ _______ _____ _____    ______ ____
ROOT
ATOM      1  C   UNL     1       3.618   6.155  17.846  0.00  0.00    +0.000 A 
ATOM      2  N   UNL     1       3.051   5.421  18.782  0.00  0.00    +0.000 NA
ATOM      3  N   UNL     1       2.227   6.149  19.611  0.00  0.00    +0.000 NA
ATOM      4  C   UNL     1       2.121   7.411  19.241  0.00  0.00    +0.000 A 
ATOM      5  S   UNL     1       2.954   7.748  17.775  0.00  0.00    +0.000 S 
ENDROOT
BRANCH   4   6
ATOM      6  C   UNL     1       1.424   8.446  20.023  0.00  0.00    +0.000 A 
ATOM      7  C   UNL     1       1.416   8.336  21.428  0.00  0.00    +0.000 A 
ATOM      8  C   UNL     1       0.805   9.301  22.233  0.00  0.00    +0.000 A 
ATOM      9  C   UNL     1       0.183  10.399  21.633  0.00  0.00    +0.000 A 
ATOM     10  C   UNL     1       0.180  10.539  20.240  0.00  0.00    +0.000 A 
ATOM     11  C   UNL     1       0.796   9.564  19.446  0.00  0.00    +0.000 A 
BRANCH   9  12
ATOM     12  N   UNL     1      -0.475  11.411  22.473  0.00  0.00    +0.000 N 
ATOM     13  O   UNL     1      -1.337  11.022  23.271  0.00  0.00    +0.000 OA
ATOM     14  O   UNL     1      -0.130  12.593  22.323  0.00  0.00    +0.000 OA
ENDBRANCH   9  12
ENDBRANCH   4   6
BRANCH   1  16
ATOM     15  C   UNL     1       5.772   5.496  17.352  0.00  0.00    +0.000 C 
ATOM     16  N   UNL     1       4.586   5.838  16.955  0.00  0.00    +0.000 NA
BRANCH  15  18
ATOM     17  C   UNL     1       7.921   6.374  18.856  0.00  0.00    +0.000 C 
ATOM     18  S   UNL     1       6.429   5.367  18.972  0.00  0.00    +0.000 S 
ENDBRANCH  15  18
BRANCH  15  19
ATOM     19  S   UNL     1       6.972   5.051  16.136  0.00  0.00    +0.000 S 
ATOM     20  C   UNL     1       6.020   3.996  15.027  0.00  0.00    +0.000 C 
ENDBRANCH  15  19
ENDBRANCH   1  16
TORSDOF 5
ENDMDL
MODEL 6
REMARK VINA RESULT:      -5.7      4.850      7.980
REMARK  Name = 
REMARK  7 active torsions:
REMARK  status: ('A' for Active; 'I' for Inactive)
REMARK    1  A    between atoms: C_1  and  S_2
REMARK    2  A    between atoms: S_2  and  C_3
REMARK    3  A    between atoms: C_3  and  S_19
REMARK    4  A    between atoms: N_4  and  C_5
REMARK    5  A    between atoms: C_8  and  C_9
REMARK    6  A    between atoms: C_12  and  N_13
REMARK    7  A    between atoms: S_19  and  C_20
REMARK                            x       y       z     vdW  Elec       q    Type
REMARK                         _______ _______ _______ _____ _____    ______ ____
ROOT
ATOM      1  C   UNL     1       3.954   5.531  17.793  0.00  0.00    +0.000 A 
ATOM      2  N   UNL     1       3.696   4.991  18.968  0.00  0.00    +0.000 NA
ATOM      3  N   UNL     1       2.925   5.798  19.774  0.00  0.00    +0.000 NA
ATOM      4  C   UNL     1       2.543   6.905  19.166  0.00  0.00    +0.000 A 
ATOM      5  S   UNL     1       3.029   6.964  17.519  0.00  0.00    +0.000 S 
ENDROOT
BRANCH   4   6
ATOM      6  C   UNL     1       1.834   8.010  19.833  0.00  0.00    +0.000 A 
ATOM      7  C   UNL     1       1.596   7.918  21.219  0.00  0.00    +0.000 A 
ATOM      8  C   UNL     1       0.961   8.946  21.922  0.00  0.00    +0.000 A 
ATOM      9  C   UNL     1       0.548  10.090  21.236  0.00  0.00    +0.000 A 
ATOM     10  C   UNL     1       0.776  10.214  19.860  0.00  0.00    +0.000 A 
ATOM     11  C   UNL     1       1.413   9.176  19.169  0.00  0.00    +0.000 A 
BRANCH   9  12
ATOM     12  N   UNL     1      -0.134  11.169  21.966  0.00  0.00    +0.000 N 
ATOM     13  O   UNL     1      -0.374  12.216  21.353  0.00  0.00    +0.000 OA
ATOM     14  O   UNL     1      -0.417  10.965  23.156  0.00  0.00    +0.000 OA
ENDBRANCH   9  12
ENDBRANCH   4   6
BRANCH   1  16
ATOM     15  C   UNL     1       5.999   5.568  16.730  0.00  0.00    +0.000 C 
ATOM     16  N   UNL     1       4.785   5.121  16.807  0.00  0.00    +0.000 NA
BRANCH  15  18
ATOM     17  C   UNL     1       7.678   5.642  18.927  0.00  0.00    +0.000 C 
ATOM     18  S   UNL     1       6.847   6.720  17.743  0.00  0.00    +0.000 S 
ENDBRANCH  15  18
BRANCH  15  19
ATOM     19  S   UNL     1       7.043   4.955  15.444  0.00  0.00    +0.000 S 
ATOM     20  C   UNL     1       5.876   4.068  14.395  0.00  0.00    +0.000 C 
ENDBRANCH  15  19
ENDBRANCH   1  16
TORSDOF 5
ENDMDL
MODEL 7
REMARK VINA RESULT:      -5.7      2.530      3.188
REMARK  Name = 
REMARK  7 active torsions:
REMARK  status: ('A' for Active; 'I' for Inactive)
REMARK    1  A    between atoms: C_1  and  S_2
REMARK    2  A    between atoms: S_2  and  C_3
REMARK    3  A    between atoms: C_3  and  S_19
REMARK    4  A    between atoms: N_4  and  C_5
REMARK    5  A    between atoms: C_8  and  C_9
REMARK    6  A    between atoms: C_12  and  N_13
REMARK    7  A    between atoms: S_19  and  C_20
REMARK                            x       y       z     vdW  Elec       q    Type
REMARK                         _______ _______ _______ _____ _____    ______ ____
ROOT
ATOM      1  C   UNL     1       0.897   9.204  19.139  0.00  0.00    +0.000 A 
ATOM      2  N   UNL     1       1.193   8.444  20.175  0.00  0.00    +0.000 NA
ATOM      3  N   UNL     1       2.199   7.541  19.910  0.00  0.00    +0.000 NA
ATOM      4  C   UNL     1       2.703   7.685  18.700  0.00  0.00    +0.000 A 
ATOM      5  S   UNL     1       2.034   9.021  17.851  0.00  0.00    +0.000 S 
ENDROOT
BRANCH   4   6
ATOM      6  C   UNL     1       3.687   6.766  18.101  0.00  0.00    +0.000 A 
ATOM      7  C   UNL     1       4.218   7.083  16.835  0.00  0.00    +0.000 A 
ATOM      8  C   UNL     1       5.183   6.276  16.224  0.00  0.00    +0.000 A 
ATOM      9  C   UNL     1       5.628   5.127  16.881  0.00  0.00    +0.000 A 
ATOM     10  C   UNL     1       5.124   4.789  18.142  0.00  0.00    +0.000 A 
ATOM     11  C   UNL     1       4.158   5.607  18.742  0.00  0.00    +0.000 A 
BRANCH   9  12
ATOM     12  N   UNL     1       6.631   4.265  16.237  0.00  0.00    +0.000 N 
ATOM     13  O   UNL     1       6.243   3.493  15.351  0.00  0.00    +0.000 OA
ATOM     14  O   UNL     1       7.804   4.359  16.630  0.00  0.00    +0.000 OA
ENDBRANCH   9  12
ENDBRANCH   4   6
BRANCH   1  16
ATOM     15  C   UNL     1       0.028  11.334  19.283  0.00  0.00    +0.000 C 
ATOM     16  N   UNL     1      -0.114  10.086  18.964  0.00  0.00    +0.000 NA
BRANCH  15  18
ATOM     17  C   UNL     1       2.196  12.870  18.515  0.00  0.00    +0.000 C 
ATOM     18  S   UNL     1       1.399  12.176  19.977  0.00  0.00    +0.000 S 
ENDBRANCH  15  18
BRANCH  15  19
ATOM     19  S   UNL     1      -1.317  12.439  18.983  0.00  0.00    +0.000 S 
ATOM     20  C   UNL     1      -1.347  13.424  20.493  0.00  0.00    +0.000 C 
ENDBRANCH  15  19
ENDBRANCH   1  16
TORSDOF 5
ENDMDL
MODEL 8
REMARK VINA RESULT:      -5.6      2.468      3.154
REMARK  Name = 
REMARK  7 active torsions:
REMARK  status: ('A' for Active; 'I' for Inactive)
REMARK    1  A    between atoms: C_1  and  S_2
REMARK    2  A    between atoms: S_2  and  C_3
REMARK    3  A    between atoms: C_3  and  S_19
REMARK    4  A    between atoms: N_4  and  C_5
REMARK    5  A    between atoms: C_8  and  C_9
REMARK    6  A    between atoms: C_12  and  N_13
REMARK    7  A    between atoms: S_19  and  C_20
REMARK                            x       y       z     vdW  Elec       q    Type
REMARK                         _______ _______ _______ _____ _____    ______ ____
ROOT
ATOM      1  C   UNL     1       0.864   9.235  19.123  0.00  0.00    +0.000 A 
ATOM      2  N   UNL     1       1.193   8.450  20.130  0.00  0.00    +0.000 NA
ATOM      3  N   UNL     1       2.175   7.541  19.805  0.00  0.00    +0.000 NA
ATOM      4  C   UNL     1       2.632   7.704  18.579  0.00  0.00    +0.000 A 
ATOM      5  S   UNL     1       1.946   9.066  17.786  0.00  0.00    +0.000 S 
ENDROOT
BRANCH   4   6
ATOM      6  C   UNL     1       3.579   6.787  17.921  0.00  0.00    +0.000 A 
ATOM      7  C   UNL     1       4.636   7.338  17.169  0.00  0.00    +0.000 A 
ATOM      8  C   UNL     1       5.591   6.528  16.549  0.00  0.00    +0.000 A 
ATOM      9  C   UNL     1       5.496   5.140  16.674  0.00  0.00    +0.000 A 
ATOM     10  C   UNL     1       4.462   4.563  17.420  0.00  0.00    +0.000 A 
ATOM     11  C   UNL     1       3.511   5.387  18.035  0.00  0.00    +0.000 A 
BRANCH   9  12
ATOM     12  N   UNL     1       6.490   4.281  16.011  0.00  0.00    +0.000 N 
ATOM     13  O   UNL     1       7.678   4.432  16.322  0.00  0.00    +0.000 OA
ATOM     14  O   UNL     1       6.075   3.465  15.175  0.00  0.00    +0.000 OA
ENDBRANCH   9  12
ENDBRANCH   4   6
BRANCH   1  16
ATOM     15  C   UNL     1      -0.015  11.338  19.466  0.00  0.00    +0.000 C 
ATOM     16  N   UNL     1      -0.141  10.132  19.007  0.00  0.00    +0.000 NA
BRANCH  15  18
ATOM     17  C   UNL     1       0.704  13.766  20.580  0.00  0.00    +0.000 C 
ATOM     18  S   UNL     1       1.328  12.097  20.298  0.00  0.00    +0.000 S 
ENDBRANCH  15  18
BRANCH  15  19
ATOM     19  S   UNL     1      -1.350  12.471  19.238  0.00  0.00    +0.000 S 
ATOM     20  C   UNL     1      -2.504  11.507  18.243  0.00  0.00    +0.000 C 
ENDBRANCH  15  19
ENDBRANCH   1  16
TORSDOF 5
ENDMDL
MODEL 9
REMARK VINA RESULT:      -5.6      2.559      3.071
REMARK  Name = 
REMARK  7 active torsions:
REMARK  status: ('A' for Active; 'I' for Inactive)
REMARK    1  A    between atoms: C_1  and  S_2
REMARK    2  A    between atoms: S_2  and  C_3
REMARK    3  A    between atoms: C_3  and  S_19
REMARK    4  A    between atoms: N_4  and  C_5
REMARK    5  A    between atoms: C_8  and  C_9
REMARK    6  A    between atoms: C_12  and  N_13
REMARK    7  A    between atoms: S_19  and  C_20
REMARK                            x       y       z     vdW  Elec       q    Type
REMARK                         _______ _______ _______ _____ _____    ______ ____
ROOT
ATOM      1  C   UNL     1       1.109   9.144  19.468  0.00  0.00    +0.000 A 
ATOM      2  N   UNL     1       1.190   9.535  18.212  0.00  0.00    +0.000 NA
ATOM      3  N   UNL     1       2.084   8.793  17.473  0.00  0.00    +0.000 NA
ATOM      4  C   UNL     1       2.609   7.799  18.162  0.00  0.00    +0.000 A 
ATOM      5  S   UNL     1       1.945   7.656  19.741  0.00  0.00    +0.000 S 
ENDROOT
BRANCH   4   6
ATOM      6  C   UNL     1       3.696   6.935  17.669  0.00  0.00    +0.000 A 
ATOM      7  C   UNL     1       3.508   5.539  17.691  0.00  0.00    +0.000 A 
ATOM      8  C   UNL     1       4.482   4.662  17.205  0.00  0.00    +0.000 A 
ATOM      9  C   UNL     1       5.672   5.180  16.688  0.00  0.00    +0.000 A 
ATOM     10  C   UNL     1       5.885   6.563  16.646  0.00  0.00    +0.000 A 
ATOM     11  C   UNL     1       4.900   7.429  17.137  0.00  0.00    +0.000 A 
BRANCH   9  12
ATOM     12  N   UNL     1       6.707   4.263  16.189  0.00  0.00    +0.000 N 
ATOM     13  O   UNL     1       7.828   4.324  16.709  0.00  0.00    +0.000 OA
ATOM     14  O   UNL     1       6.394   3.492  15.269  0.00  0.00    +0.000 OA
ENDBRANCH   9  12
ENDBRANCH   4   6
BRANCH   1  16
ATOM     15  C   UNL     1       0.483  10.990  20.698  0.00  0.00    +0.000 C 
ATOM     16  N   UNL     1       0.469   9.706  20.519  0.00  0.00    +0.000 NA
BRANCH  15  18
ATOM     17  C   UNL     1      -0.163  13.160  19.108  0.00  0.00    +0.000 C 
ATOM     18  S   UNL     1       1.254  12.255  19.762  0.00  0.00    +0.000 S 
ENDBRANCH  15  18
BRANCH  15  19
ATOM     19  S   UNL     1      -0.412  11.660  22.065  0.00  0.00    +0.000 S 
ATOM     20  C   UNL     1      -0.798  10.186  23.029  0.00  0.00    +0.000 C 
ENDBRANCH  15  19
ENDBRANCH   1  16
TORSDOF 5
ENDMDL
