MODEL 1
REMARK VINA RESULT:      -8.5      0.000      0.000
REMARK  Name = 
REMARK  9 active torsions:
REMARK  status: ('A' for Active; 'I' for Inactive)
REMARK    1  A    between atoms: C_1  and  C_2
REMARK    2  A    between atoms: C_4  and  C_5
REMARK    3  A    between atoms: C_5  and  C_6
REMARK    4  A    between atoms: C_5  and  N_7
REMARK    5  A    between atoms: N_10  and  C_11
REMARK    6  A    between atoms: C_11  and  C_12
REMARK    7  A    between atoms: C_16  and  C_17
REMARK    8  A    between atoms: C_17  and  C_18
REMARK    9  A    between atoms: C_17  and  C_19
REMARK                            x       y       z     vdW  Elec       q    Type
REMARK                         _______ _______ _______ _____ _____    ______ ____
ROOT
ATOM      1  N   UNL     1       6.861   4.090  18.016  0.00  0.00    +0.000 N 
ATOM      2  C   UNL     1       5.635   4.267  18.595  0.00  0.00    +0.000 C 
ATOM      3  O   UNL     1       4.928   5.253  18.443  0.00  0.00    +0.000 OA
ATOM      4  N   UNL     1       5.294   3.175  19.355  0.00  0.00    +0.000 N 
ATOM      5  H   UNL     1       7.523   3.556  18.562  0.00  0.00    +0.000 HD
ATOM      6  H   UNL     1       5.735   2.310  19.075  0.00  0.00    +0.000 HD
ENDROOT
BRANCH   1   7
ATOM      7  C   UNL     1       7.443   5.108  17.161  0.00  0.00    +0.000 C 
ATOM      8  C   UNL     1       6.992   6.490  17.626  0.00  0.00    +0.000 C 
BRANCH   7  12
ATOM      9  C   UNL     1       7.805   5.466  12.192  0.00  0.00    +0.000 C 
ATOM     10  C   UNL     1       7.284   5.053  13.525  0.00  0.00    +0.000 A 
ATOM     11  N   UNL     1       7.736   5.480  14.685  0.00  0.00    +0.000 NA
ATOM     12  C   UNL     1       7.055   4.848  15.728  0.00  0.00    +0.000 A 
ATOM     13  C   UNL     1       6.066   3.975  15.311  0.00  0.00    +0.000 A 
ATOM     14  S   UNL     1       6.007   3.902  13.605  0.00  0.00    +0.000 S 
ENDBRANCH   7  12
ENDBRANCH   1   7
BRANCH   4  15
ATOM     15  C   UNL     1       4.005   3.077  20.001  0.00  0.00    +0.000 C 
BRANCH  15  16
ATOM     16  C   UNL     1       3.018   2.129  19.305  0.00  0.00    +0.000 C 
ATOM     17  C   UNL     1       3.341   2.003  17.819  0.00  0.00    +0.000 C 
ATOM     18  C   UNL     1       2.469   3.058  17.169  0.00  0.00    +0.000 C 
ATOM     19  O   UNL     1       1.366   3.297  18.048  0.00  0.00    +0.000 OA
ATOM     20  C   UNL     1       1.530   2.504  19.244  0.00  0.00    +0.000 C 
BRANCH  20  21
ATOM     21  C   UNL     1       0.843   3.239  20.409  0.00  0.00    +0.000 C 
ATOM     22  C   UNL     1       1.342   2.662  21.749  0.00  0.00    +0.000 C 
ATOM     23  C   UNL     1       1.072   4.749  20.419  0.00  0.00    +0.000 C 
ENDBRANCH  20  21
ENDBRANCH  15  16
ENDBRANCH   4  15
TORSDOF 5
ENDMDL
MODEL 2
REMARK VINA RESULT:      -8.0      1.288      1.826
REMARK  Name = 
REMARK  9 active torsions:
REMARK  status: ('A' for Active; 'I' for Inactive)
REMARK    1  A    between atoms: C_1  and  C_2
REMARK    2  A    between atoms: C_4  and  C_5
REMARK    3  A    between atoms: C_5  and  C_6
REMARK    4  A    between atoms: C_5  and  N_7
REMARK    5  A    between atoms: N_10  and  C_11
REMARK    6  A    between atoms: C_11  and  C_12
REMARK    7  A    between atoms: C_16  and  C_17
REMARK    8  A    between atoms: C_17  and  C_18
REMARK    9  A    between atoms: C_17  and  C_19
REMARK                            x       y       z     vdW  Elec       q    Type
REMARK                         _______ _______ _______ _____ _____    ______ ____
ROOT
ATOM      1  N   UNL     1       5.765   3.977  17.271  0.00  0.00    +0.000 N 
ATOM      2  C   UNL     1       5.528   3.937  18.616  0.00  0.00    +0.000 C 
ATOM      3  O   UNL     1       6.192   4.522  19.459  0.00  0.00    +0.000 OA
ATOM      4  N   UNL     1       4.428   3.163  18.893  0.00  0.00    +0.000 N 
ATOM      5  H   UNL     1       5.528   3.136  16.765  0.00  0.00    +0.000 HD
ATOM      6  H   UNL     1       3.760   3.091  18.137  0.00  0.00    +0.000 HD
ENDROOT
BRANCH   1   7
ATOM      7  C   UNL     1       6.877   4.735  16.726  0.00  0.00    +0.000 C 
ATOM      8  C   UNL     1       6.793   6.183  17.197  0.00  0.00    +0.000 C 
BRANCH   7  12
ATOM      9  C   UNL     1       8.269   5.867  12.064  0.00  0.00    +0.000 C 
ATOM     10  C   UNL     1       7.544   5.192  13.177  0.00  0.00    +0.000 A 
ATOM     11  N   UNL     1       7.646   5.504  14.452  0.00  0.00    +0.000 NA
ATOM     12  C   UNL     1       6.870   4.635  15.222  0.00  0.00    +0.000 A 
ATOM     13  C   UNL     1       6.164   3.701  14.484  0.00  0.00    +0.000 A 
ATOM     14  S   UNL     1       6.499   3.872  12.817  0.00  0.00    +0.000 S 
ENDBRANCH   7  12
ENDBRANCH   1   7
BRANCH   4  15
ATOM     15  C   UNL     1       3.914   3.031  20.238  0.00  0.00    +0.000 C 
BRANCH  15  16
ATOM     16  C   UNL     1       2.403   3.269  20.366  0.00  0.00    +0.000 C 
ATOM     17  C   UNL     1       1.618   2.176  19.645  0.00  0.00    +0.000 C 
ATOM     18  C   UNL     1       1.384   2.750  18.263  0.00  0.00    +0.000 C 
ATOM     19  O   UNL     1       1.453   4.175  18.378  0.00  0.00    +0.000 OA
ATOM     20  C   UNL     1       1.784   4.527  19.739  0.00  0.00    +0.000 C 
BRANCH  20  21
ATOM     21  C   UNL     1       2.542   5.867  19.721  0.00  0.00    +0.000 C 
ATOM     22  C   UNL     1       2.758   6.317  18.261  0.00  0.00    +0.000 C 
ATOM     23  C   UNL     1       1.839   6.994  20.474  0.00  0.00    +0.000 C 
ENDBRANCH  20  21
ENDBRANCH  15  16
ENDBRANCH   4  15
TORSDOF 5
ENDMDL
MODEL 3
REMARK VINA RESULT:      -7.9      1.699      2.191
REMARK  Name = 
REMARK  9 active torsions:
REMARK  status: ('A' for Active; 'I' for Inactive)
REMARK    1  A    between atoms: C_1  and  C_2
REMARK    2  A    between atoms: C_4  and  C_5
REMARK    3  A    between atoms: C_5  and  C_6
REMARK    4  A    between atoms: C_5  and  N_7
REMARK    5  A    between atoms: N_10  and  C_11
REMARK    6  A    between atoms: C_11  and  C_12
REMARK    7  A    between atoms: C_16  and  C_17
REMARK    8  A    between atoms: C_17  and  C_18
REMARK    9  A    between atoms: C_17  and  C_19
REMARK                            x       y       z     vdW  Elec       q    Type
REMARK                         _______ _______ _______ _____ _____    ______ ____
ROOT
ATOM      1  N   UNL     1       5.523   4.037  16.872  0.00  0.00    +0.000 N 
ATOM      2  C   UNL     1       5.423   3.971  18.233  0.00  0.00    +0.000 C 
ATOM      3  O   UNL     1       6.095   4.630  19.014  0.00  0.00    +0.000 OA
ATOM      4  N   UNL     1       4.450   3.077  18.607  0.00  0.00    +0.000 N 
ATOM      5  H   UNL     1       5.335   3.172  16.383  0.00  0.00    +0.000 HD
ATOM      6  H   UNL     1       3.724   2.928  17.919  0.00  0.00    +0.000 HD
ENDROOT
BRANCH   1   7
ATOM      7  C   UNL     1       6.483   4.915  16.230  0.00  0.00    +0.000 C 
ATOM      8  C   UNL     1       6.082   6.370  16.455  0.00  0.00    +0.000 C 
BRANCH   7  12
ATOM      9  C   UNL     1       4.927   3.055  11.863  0.00  0.00    +0.000 C 
ATOM     10  C   UNL     1       5.808   3.732  12.854  0.00  0.00    +0.000 A 
ATOM     11  N   UNL     1       5.563   3.842  14.143  0.00  0.00    +0.000 NA
ATOM     12  C   UNL     1       6.573   4.582  14.762  0.00  0.00    +0.000 A 
ATOM     13  C   UNL     1       7.587   4.981  13.910  0.00  0.00    +0.000 A 
ATOM     14  S   UNL     1       7.265   4.472  12.311  0.00  0.00    +0.000 S 
ENDBRANCH   7  12
ENDBRANCH   1   7
BRANCH   4  15
ATOM     15  C   UNL     1       4.087   2.891  19.995  0.00  0.00    +0.000 C 
BRANCH  15  16
ATOM     16  C   UNL     1       2.586   3.034  20.282  0.00  0.00    +0.000 C 
ATOM     17  C   UNL     1       1.791   1.937  19.580  0.00  0.00    +0.000 C 
ATOM     18  C   UNL     1       1.390   2.567  18.263  0.00  0.00    +0.000 C 
ATOM     19  O   UNL     1       1.395   3.986  18.452  0.00  0.00    +0.000 OA
ATOM     20  C   UNL     1       1.843   4.285  19.792  0.00  0.00    +0.000 C 
BRANCH  20  21
ATOM     21  C   UNL     1       2.524   5.666  19.777  0.00  0.00    +0.000 C 
ATOM     22  C   UNL     1       2.588   6.193  18.329  0.00  0.00    +0.000 C 
ATOM     23  C   UNL     1       1.831   6.715  20.643  0.00  0.00    +0.000 C 
ENDBRANCH  20  21
ENDBRANCH  15  16
ENDBRANCH   4  15
TORSDOF 5
ENDMDL
MODEL 4
REMARK VINA RESULT:      -7.8      5.834      7.478
REMARK  Name = 
REMARK  9 active torsions:
REMARK  status: ('A' for Active; 'I' for Inactive)
REMARK    1  A    between atoms: C_1  and  C_2
REMARK    2  A    between atoms: C_4  and  C_5
REMARK    3  A    between atoms: C_5  and  C_6
REMARK    4  A    between atoms: C_5  and  N_7
REMARK    5  A    between atoms: N_10  and  C_11
REMARK    6  A    between atoms: C_11  and  C_12
REMARK    7  A    between atoms: C_16  and  C_17
REMARK    8  A    between atoms: C_17  and  C_18
REMARK    9  A    between atoms: C_17  and  C_19
REMARK                            x       y       z     vdW  Elec       q    Type
REMARK                         _______ _______ _______ _____ _____    ______ ____
ROOT
ATOM      1  N   UNL     1       1.091   9.499  19.443  0.00  0.00    +0.000 N 
ATOM      2  C   UNL     1       1.893   8.747  18.631  0.00  0.00    +0.000 C 
ATOM      3  O   UNL     1       2.403   9.143  17.593  0.00  0.00    +0.000 OA
ATOM      4  N   UNL     1       2.065   7.486  19.150  0.00  0.00    +0.000 N 
ATOM      5  H   UNL     1       0.368   8.988  19.930  0.00  0.00    +0.000 HD
ATOM      6  H   UNL     1       1.953   7.423  20.153  0.00  0.00    +0.000 HD
ENDROOT
BRANCH   1   7
ATOM      7  C   UNL     1       0.761  10.873  19.109  0.00  0.00    +0.000 C 
ATOM      8  C   UNL     1       0.946  11.760  20.336  0.00  0.00    +0.000 C 
BRANCH   7  12
ATOM      9  C   UNL     1      -3.073   9.641  16.152  0.00  0.00    +0.000 C 
ATOM     10  C   UNL     1      -2.308  10.334  17.226  0.00  0.00    +0.000 A 
ATOM     11  N   UNL     1      -1.023  10.178  17.469  0.00  0.00    +0.000 NA
ATOM     12  C   UNL     1      -0.648  10.940  18.578  0.00  0.00    +0.000 A 
ATOM     13  C   UNL     1      -1.675  11.690  19.124  0.00  0.00    +0.000 A 
ATOM     14  S   UNL     1      -3.136  11.416  18.280  0.00  0.00    +0.000 S 
ENDBRANCH   7  12
ENDBRANCH   1   7
BRANCH   4  15
ATOM     15  C   UNL     1       2.944   6.524  18.524  0.00  0.00    +0.000 C 
BRANCH  15  16
ATOM     16  C   UNL     1       3.684   5.608  19.509  0.00  0.00    +0.000 C 
ATOM     17  C   UNL     1       5.100   5.316  19.020  0.00  0.00    +0.000 C 
ATOM     18  C   UNL     1       4.955   4.024  18.244  0.00  0.00    +0.000 C 
ATOM     19  O   UNL     1       3.795   3.354  18.746  0.00  0.00    +0.000 OA
ATOM     20  C   UNL     1       3.163   4.183  19.746  0.00  0.00    +0.000 C 
BRANCH  20  21
ATOM     21  C   UNL     1       1.655   3.872  19.748  0.00  0.00    +0.000 C 
ATOM     22  C   UNL     1       1.299   3.035  18.503  0.00  0.00    +0.000 C 
ATOM     23  C   UNL     1       1.172   3.123  20.988  0.00  0.00    +0.000 C 
ENDBRANCH  20  21
ENDBRANCH  15  16
ENDBRANCH   4  15
TORSDOF 5
ENDMDL
MODEL 5
REMARK VINA RESULT:      -7.7      5.951      7.809
REMARK  Name = 
REMARK  9 active torsions:
REMARK  status: ('A' for Active; 'I' for Inactive)
REMARK    1  A    between atoms: C_1  and  C_2
REMARK    2  A    between atoms: C_4  and  C_5
REMARK    3  A    between atoms: C_5  and  C_6
REMARK    4  A    between atoms: C_5  and  N_7
REMARK    5  A    between atoms: N_10  and  C_11
REMARK    6  A    between atoms: C_11  and  C_12
REMARK    7  A    between atoms: C_16  and  C_17
REMARK    8  A    between atoms: C_17  and  C_18
REMARK    9  A    between atoms: C_17  and  C_19
REMARK                            x       y       z     vdW  Elec       q    Type
REMARK                         _______ _______ _______ _____ _____    ______ ____
ROOT
ATOM      1  N   UNL     1       1.041   9.515  19.126  0.00  0.00    +0.000 N 
ATOM      2  C   UNL     1       1.879   8.779  18.337  0.00  0.00    +0.000 C 
ATOM      3  O   UNL     1       2.294   9.130  17.242  0.00  0.00    +0.000 OA
ATOM      4  N   UNL     1       2.210   7.595  18.951  0.00  0.00    +0.000 N 
ATOM      5  H   UNL     1       0.401   8.978  19.695  0.00  0.00    +0.000 HD
ATOM      6  H   UNL     1       2.154   7.612  19.960  0.00  0.00    +0.000 HD
ENDROOT
BRANCH   1   7
ATOM      7  C   UNL     1       0.549  10.811  18.696  0.00  0.00    +0.000 C 
ATOM      8  C   UNL     1       0.823  11.851  19.777  0.00  0.00    +0.000 C 
BRANCH   7  12
ATOM      9  C   UNL     1      -4.283  12.047  18.977  0.00  0.00    +0.000 C 
ATOM     10  C   UNL     1      -3.052  11.325  18.551  0.00  0.00    +0.000 A 
ATOM     11  N   UNL     1      -1.845  11.523  19.038  0.00  0.00    +0.000 NA
ATOM     12  C   UNL     1      -0.920  10.714  18.374  0.00  0.00    +0.000 A 
ATOM     13  C   UNL     1      -1.477   9.888  17.414  0.00  0.00    +0.000 A 
ATOM     14  S   UNL     1      -3.163  10.147  17.300  0.00  0.00    +0.000 S 
ENDBRANCH   7  12
ENDBRANCH   1   7
BRANCH   4  15
ATOM     15  C   UNL     1       3.157   6.676  18.360  0.00  0.00    +0.000 C 
BRANCH  15  16
ATOM     16  C   UNL     1       3.748   5.656  19.343  0.00  0.00    +0.000 C 
ATOM     17  C   UNL     1       5.221   5.397  19.039  0.00  0.00    +0.000 C 
ATOM     18  C   UNL     1       5.194   4.192  18.123  0.00  0.00    +0.000 C 
ATOM     19  O   UNL     1       3.975   3.489  18.380  0.00  0.00    +0.000 OA
ATOM     20  C   UNL     1       3.202   4.220  19.356  0.00  0.00    +0.000 C 
BRANCH  20  21
ATOM     21  C   UNL     1       1.710   3.930  19.107  0.00  0.00    +0.000 C 
ATOM     22  C   UNL     1       1.558   2.546  18.443  0.00  0.00    +0.000 C 
ATOM     23  C   UNL     1       0.849   3.957  20.368  0.00  0.00    +0.000 C 
ENDBRANCH  20  21
ENDBRANCH  15  16
ENDBRANCH   4  15
TORSDOF 5
ENDMDL
MODEL 6
REMARK VINA RESULT:      -7.6      5.254      8.730
REMARK  Name = 
REMARK  9 active torsions:
REMARK  status: ('A' for Active; 'I' for Inactive)
REMARK    1  A    between atoms: C_1  and  C_2
REMARK    2  A    between atoms: C_4  and  C_5
REMARK    3  A    between atoms: C_5  and  C_6
REMARK    4  A    between atoms: C_5  and  N_7
REMARK    5  A    between atoms: N_10  and  C_11
REMARK    6  A    between atoms: C_11  and  C_12
REMARK    7  A    between atoms: C_16  and  C_17
REMARK    8  A    between atoms: C_17  and  C_18
REMARK    9  A    between atoms: C_17  and  C_19
REMARK                            x       y       z     vdW  Elec       q    Type
REMARK                         _______ _______ _______ _____ _____    ______ ____
ROOT
ATOM      1  N   UNL     1       7.363   7.403  17.007  0.00  0.00    +0.000 N 
ATOM      2  C   UNL     1       8.067   7.935  18.051  0.00  0.00    +0.000 C 
ATOM      3  O   UNL     1       8.506   7.294  18.995  0.00  0.00    +0.000 OA
ATOM      4  N   UNL     1       8.232   9.289  17.886  0.00  0.00    +0.000 N 
ATOM      5  H   UNL     1       6.663   8.011  16.604  0.00  0.00    +0.000 HD
ATOM      6  H   UNL     1       8.200   9.606  16.927  0.00  0.00    +0.000 HD
ENDROOT
BRANCH   1   7
ATOM      7  C   UNL     1       7.059   5.985  16.951  0.00  0.00    +0.000 C 
ATOM      8  C   UNL     1       6.919   5.545  15.496  0.00  0.00    +0.000 C 
BRANCH   7  12
ATOM      9  C   UNL     1       2.298   6.589  18.339  0.00  0.00    +0.000 C 
ATOM     10  C   UNL     1       3.678   6.031  18.301  0.00  0.00    +0.000 A 
ATOM     11  N   UNL     1       4.670   6.498  17.571  0.00  0.00    +0.000 NA
ATOM     12  C   UNL     1       5.806   5.704  17.741  0.00  0.00    +0.000 A 
ATOM     13  C   UNL     1       5.642   4.665  18.640  0.00  0.00    +0.000 A 
ATOM     14  S   UNL     1       4.047   4.644  19.252  0.00  0.00    +0.000 S 
ENDBRANCH   7  12
ENDBRANCH   1   7
BRANCH   4  15
ATOM     15  C   UNL     1       9.021  10.072  18.811  0.00  0.00    +0.000 C 
BRANCH  15  16
ATOM     16  C   UNL     1       9.433  11.453  18.281  0.00  0.00    +0.000 C 
ATOM     17  C   UNL     1      10.806  11.393  17.619  0.00  0.00    +0.000 C 
ATOM     18  C   UNL     1      11.762  11.763  18.735  0.00  0.00    +0.000 C 
ATOM     19  O   UNL     1      11.023  12.530  19.690  0.00  0.00    +0.000 OA
ATOM     20  C   UNL     1       9.642  12.606  19.272  0.00  0.00    +0.000 C 
BRANCH  20  21
ATOM     21  C   UNL     1       8.765  12.750  20.530  0.00  0.00    +0.000 C 
ATOM     22  C   UNL     1       9.614  12.470  21.786  0.00  0.00    +0.000 C 
ATOM     23  C   UNL     1       8.113  14.122  20.684  0.00  0.00    +0.000 C 
ENDBRANCH  20  21
ENDBRANCH  15  16
ENDBRANCH   4  15
TORSDOF 5
ENDMDL
MODEL 7
REMARK VINA RESULT:      -7.6      3.933      5.725
REMARK  Name = 
REMARK  9 active torsions:
REMARK  status: ('A' for Active; 'I' for Inactive)
REMARK    1  A    between atoms: C_1  and  C_2
REMARK    2  A    between atoms: C_4  and  C_5
REMARK    3  A    between atoms: C_5  and  C_6
REMARK    4  A    between atoms: C_5  and  N_7
REMARK    5  A    between atoms: N_10  and  C_11
REMARK    6  A    between atoms: C_11  and  C_12
REMARK    7  A    between atoms: C_16  and  C_17
REMARK    8  A    between atoms: C_17  and  C_18
REMARK    9  A    between atoms: C_17  and  C_19
REMARK                            x       y       z     vdW  Elec       q    Type
REMARK                         _______ _______ _______ _____ _____    ______ ____
ROOT
ATOM      1  N   UNL     1       3.467   4.643  20.131  0.00  0.00    +0.000 N 
ATOM      2  C   UNL     1       2.451   5.510  19.845  0.00  0.00    +0.000 C 
ATOM      3  O   UNL     1       1.886   5.592  18.764  0.00  0.00    +0.000 OA
ATOM      4  N   UNL     1       2.134   6.268  20.946  0.00  0.00    +0.000 N 
ATOM      5  H   UNL     1       4.148   4.980  20.796  0.00  0.00    +0.000 HD
ATOM      6  H   UNL     1       2.361   5.841  21.834  0.00  0.00    +0.000 HD
ENDROOT
BRANCH   1   7
ATOM      7  C   UNL     1       3.982   3.731  19.126  0.00  0.00    +0.000 C 
ATOM      8  C   UNL     1       4.291   2.381  19.765  0.00  0.00    +0.000 C 
BRANCH   7  12
ATOM      9  C   UNL     1       7.083   4.828  15.366  0.00  0.00    +0.000 C 
ATOM     10  C   UNL     1       6.531   4.783  16.748  0.00  0.00    +0.000 A 
ATOM     11  N   UNL     1       5.463   4.108  17.121  0.00  0.00    +0.000 NA
ATOM     12  C   UNL     1       5.202   4.333  18.474  0.00  0.00    +0.000 A 
ATOM     13  C   UNL     1       6.121   5.156  19.100  0.00  0.00    +0.000 A 
ATOM     14  S   UNL     1       7.301   5.696  17.988  0.00  0.00    +0.000 S 
ENDBRANCH   7  12
ENDBRANCH   1   7
BRANCH   4  15
ATOM     15  C   UNL     1       1.029   7.201  20.930  0.00  0.00    +0.000 C 
BRANCH  15  16
ATOM     16  C   UNL     1       1.434   8.666  21.149  0.00  0.00    +0.000 C 
ATOM     17  C   UNL     1       0.966   9.160  22.514  0.00  0.00    +0.000 C 
ATOM     18  C   UNL     1      -0.382   9.789  22.228  0.00  0.00    +0.000 C 
ATOM     19  O   UNL     1      -0.390  10.168  20.849  0.00  0.00    +0.000 OA
ATOM     20  C   UNL     1       0.849   9.752  20.235  0.00  0.00    +0.000 C 
BRANCH  20  21
ATOM     21  C   UNL     1       0.582   9.483  18.742  0.00  0.00    +0.000 C 
ATOM     22  C   UNL     1      -0.516  10.439  18.234  0.00  0.00    +0.000 C 
ATOM     23  C   UNL     1       1.810   9.641  17.849  0.00  0.00    +0.000 C 
ENDBRANCH  20  21
ENDBRANCH  15  16
ENDBRANCH   4  15
TORSDOF 5
ENDMDL
MODEL 8
REMARK VINA RESULT:      -7.5      4.343      7.406
REMARK  Name = 
REMARK  9 active torsions:
REMARK  status: ('A' for Active; 'I' for Inactive)
REMARK    1  A    between atoms: C_1  and  C_2
REMARK    2  A    between atoms: C_4  and  C_5
REMARK    3  A    between atoms: C_5  and  C_6
REMARK    4  A    between atoms: C_5  and  N_7
REMARK    5  A    between atoms: N_10  and  C_11
REMARK    6  A    between atoms: C_11  and  C_12
REMARK    7  A    between atoms: C_16  and  C_17
REMARK    8  A    between atoms: C_17  and  C_18
REMARK    9  A    between atoms: C_17  and  C_19
REMARK                            x       y       z     vdW  Elec       q    Type
REMARK                         _______ _______ _______ _____ _____    ______ ____
ROOT
ATOM      1  N   UNL     1       3.334   7.151  19.127  0.00  0.00    +0.000 N 
ATOM      2  C   UNL     1       3.699   5.926  18.642  0.00  0.00    +0.000 C 
ATOM      3  O   UNL     1       3.021   5.245  17.886  0.00  0.00    +0.000 OA
ATOM      4  N   UNL     1       4.943   5.570  19.105  0.00  0.00    +0.000 N 
ATOM      5  H   UNL     1       3.672   7.366  20.054  0.00  0.00    +0.000 HD
ATOM      6  H   UNL     1       5.539   6.347  19.355  0.00  0.00    +0.000 HD
ENDROOT
BRANCH   1   7
ATOM      7  C   UNL     1       2.057   7.747  18.779  0.00  0.00    +0.000 C 
ATOM      8  C   UNL     1       2.221   8.632  17.547  0.00  0.00    +0.000 C 
BRANCH   7  12
ATOM      9  C   UNL     1      -0.090  11.603  21.118  0.00  0.00    +0.000 C 
ATOM     10  C   UNL     1       0.556  10.275  20.925  0.00  0.00    +0.000 A 
ATOM     11  N   UNL     1       1.038   9.820  19.787  0.00  0.00    +0.000 NA
ATOM     12  C   UNL     1       1.522   8.521  19.956  0.00  0.00    +0.000 A 
ATOM     13  C   UNL     1       1.422   8.043  21.251  0.00  0.00    +0.000 A 
ATOM     14  S   UNL     1       0.678   9.201  22.265  0.00  0.00    +0.000 S 
ENDBRANCH   7  12
ENDBRANCH   1   7
BRANCH   4  15
ATOM     15  C   UNL     1       5.594   4.357  18.666  0.00  0.00    +0.000 C 
BRANCH  15  16
ATOM     16  C   UNL     1       6.959   4.576  17.998  0.00  0.00    +0.000 C 
ATOM     17  C   UNL     1       7.799   5.571  18.793  0.00  0.00    +0.000 C 
ATOM     18  C   UNL     1       7.496   6.903  18.141  0.00  0.00    +0.000 C 
ATOM     19  O   UNL     1       7.067   6.634  16.803  0.00  0.00    +0.000 OA
ATOM     20  C   UNL     1       7.019   5.205  16.598  0.00  0.00    +0.000 C 
BRANCH  20  21
ATOM     21  C   UNL     1       5.942   4.904  15.540  0.00  0.00    +0.000 C 
ATOM     22  C   UNL     1       5.141   6.188  15.240  0.00  0.00    +0.000 C 
ATOM     23  C   UNL     1       6.493   4.361  14.223  0.00  0.00    +0.000 C 
ENDBRANCH  20  21
ENDBRANCH  15  16
ENDBRANCH   4  15
TORSDOF 5
ENDMDL
MODEL 9
REMARK VINA RESULT:      -7.5      5.220      8.814
REMARK  Name = 
REMARK  9 active torsions:
REMARK  status: ('A' for Active; 'I' for Inactive)
REMARK    1  A    between atoms: C_1  and  C_2
REMARK    2  A    between atoms: C_4  and  C_5
REMARK    3  A    between atoms: C_5  and  C_6
REMARK    4  A    between atoms: C_5  and  N_7
REMARK    5  A    between atoms: N_10  and  C_11
REMARK    6  A    between atoms: C_11  and  C_12
REMARK    7  A    between atoms: C_16  and  C_17
REMARK    8  A    between atoms: C_17  and  C_18
REMARK    9  A    between atoms: C_17  and  C_19
REMARK                            x       y       z     vdW  Elec       q    Type
REMARK                         _______ _______ _______ _____ _____    ______ ____
ROOT
ATOM      1  N   UNL     1       7.150   7.522  17.058  0.00  0.00    +0.000 N 
ATOM      2  C   UNL     1       7.967   7.995  18.046  0.00  0.00    +0.000 C 
ATOM      3  O   UNL     1       8.442   7.315  18.944  0.00  0.00    +0.000 OA
ATOM      4  N   UNL     1       8.200   9.339  17.882  0.00  0.00    +0.000 N 
ATOM      5  H   UNL     1       6.457   8.176  16.720  0.00  0.00    +0.000 HD
ATOM      6  H   UNL     1       8.109   9.672  16.932  0.00  0.00    +0.000 HD
ENDROOT
BRANCH   1   7
ATOM      7  C   UNL     1       6.757   6.125  17.012  0.00  0.00    +0.000 C 
ATOM      8  C   UNL     1       6.830   5.617  15.575  0.00  0.00    +0.000 C 
BRANCH   7  12
ATOM      9  C   UNL     1       3.232   4.176  19.966  0.00  0.00    +0.000 C 
ATOM     10  C   UNL     1       3.861   5.052  18.939  0.00  0.00    +0.000 A 
ATOM     11  N   UNL     1       5.104   4.958  18.515  0.00  0.00    +0.000 NA
ATOM     12  C   UNL     1       5.374   5.969  17.590  0.00  0.00    +0.000 A 
ATOM     13  C   UNL     1       4.292   6.786  17.313  0.00  0.00    +0.000 A 
ATOM     14  S   UNL     1       2.934   6.325  18.242  0.00  0.00    +0.000 S 
ENDBRANCH   7  12
ENDBRANCH   1   7
BRANCH   4  15
ATOM     15  C   UNL     1       9.106  10.060  18.748  0.00  0.00    +0.000 C 
BRANCH  15  16
ATOM     16  C   UNL     1       9.492  11.456  18.239  0.00  0.00    +0.000 C 
ATOM     17  C   UNL     1      10.868  11.434  17.581  0.00  0.00    +0.000 C 
ATOM     18  C   UNL     1      11.813  11.807  18.704  0.00  0.00    +0.000 C 
ATOM     19  O   UNL     1      11.056  12.545  19.668  0.00  0.00    +0.000 OA
ATOM     20  C   UNL     1       9.675  12.599  19.248  0.00  0.00    +0.000 C 
BRANCH  20  21
ATOM     21  C   UNL     1       8.791  12.706  20.505  0.00  0.00    +0.000 C 
ATOM     22  C   UNL     1       9.630  12.369  21.755  0.00  0.00    +0.000 C 
ATOM     23  C   UNL     1       8.155  14.080  20.707  0.00  0.00    +0.000 C 
ENDBRANCH  20  21
ENDBRANCH  15  16
ENDBRANCH   4  15
TORSDOF 5
ENDMDL
