MODEL 1
REMARK VINA RESULT:      -6.9      0.000      0.000
REMARK  Name = 
REMARK  5 active torsions:
REMARK  status: ('A' for Active; 'I' for Inactive)
REMARK    1  A    between atoms: C_1  and  O_2
REMARK    2  A    between atoms: O_2  and  C_3
REMARK    3  A    between atoms: C_4  and  C_5
REMARK    4  A    between atoms: C_5  and  O_6
REMARK    5  A    between atoms: C_7  and  O_8
REMARK                            x       y       z     vdW  Elec       q    Type
REMARK                         _______ _______ _______ _____ _____    ______ ____
ROOT
ATOM      1  C   UNL     1       2.960   4.140  19.450  0.00  0.00    +0.000 A 
ATOM      2  C   UNL     1       3.811   3.316  18.664  0.00  0.00    +0.000 A 
ATOM      3  C   UNL     1       4.444   3.876  17.544  0.00  0.00    +0.000 A 
ATOM      4  C   UNL     1       4.217   5.191  17.167  0.00  0.00    +0.000 A 
ATOM      5  C   UNL     1       3.396   6.005  17.949  0.00  0.00    +0.000 A 
ATOM      6  C   UNL     1       2.797   5.510  19.120  0.00  0.00    +0.000 A 
ATOM      7  C   UNL     1       2.143   6.504  20.004  0.00  0.00    +0.000 C 
ATOM      8  O   UNL     1       1.939   6.286  21.186  0.00  0.00    +0.000 OA
ATOM      9  C   UNL     1       1.803   7.846  19.501  0.00  0.00    +0.000 A 
ATOM     10  C   UNL     1       0.980   8.688  20.260  0.00  0.00    +0.000 A 
ATOM     11  C   UNL     1       0.756  10.003  19.850  0.00  0.00    +0.000 A 
ATOM     12  C   UNL     1       1.353  10.477  18.684  0.00  0.00    +0.000 A 
ATOM     13  C   UNL     1       2.148   9.629  17.910  0.00  0.00    +0.000 A 
ATOM     14  C   UNL     1       2.366   8.306  18.318  0.00  0.00    +0.000 A 
ATOM     15  C   UNL     1       3.214   7.412  17.520  0.00  0.00    +0.000 C 
ATOM     16  O   UNL     1       3.741   7.828  16.494  0.00  0.00    +0.000 OA
ENDROOT
BRANCH   1  18
ATOM     17  C   UNL     1       1.092   3.025  20.479  0.00  0.00    +0.000 C 
ATOM     18  O   UNL     1       2.435   3.501  20.547  0.00  0.00    +0.000 OA
ENDBRANCH   1  18
BRANCH   3  19
ATOM     19  O   UNL     1       5.327   3.177  16.768  0.00  0.00    +0.000 OA
ATOM     20  H   UNL     1       6.114   2.968  17.318  0.00  0.00    +0.000 HD
ENDBRANCH   3  19
BRANCH   2  21
ATOM     21  C   UNL     1       4.109   1.898  19.090  0.00  0.00    +0.000 C 
BRANCH  21  22
ATOM     22  O   UNL     1       5.069   1.879  20.150  0.00  0.00    +0.000 OA
ATOM     23  H   UNL     1       4.994   1.000  20.566  0.00  0.00    +0.000 HD
ENDBRANCH  21  22
ENDBRANCH   2  21
TORSDOF 4
ENDMDL
MODEL 2
REMARK VINA RESULT:      -6.7      2.579      4.964
REMARK  Name = 
REMARK  5 active torsions:
REMARK  status: ('A' for Active; 'I' for Inactive)
REMARK    1  A    between atoms: C_1  and  O_2
REMARK    2  A    between atoms: O_2  and  C_3
REMARK    3  A    between atoms: C_4  and  C_5
REMARK    4  A    between atoms: C_5  and  O_6
REMARK    5  A    between atoms: C_7  and  O_8
REMARK                            x       y       z     vdW  Elec       q    Type
REMARK                         _______ _______ _______ _____ _____    ______ ____
ROOT
ATOM      1  C   UNL     1       5.922   5.848  16.342  0.00  0.00    +0.000 A 
ATOM      2  C   UNL     1       6.490   5.108  15.268  0.00  0.00    +0.000 A 
ATOM      3  C   UNL     1       5.952   3.850  14.959  0.00  0.00    +0.000 A 
ATOM      4  C   UNL     1       4.922   3.300  15.706  0.00  0.00    +0.000 A 
ATOM      5  C   UNL     1       4.353   4.033  16.748  0.00  0.00    +0.000 A 
ATOM      6  C   UNL     1       4.809   5.328  17.050  0.00  0.00    +0.000 A 
ATOM      7  C   UNL     1       3.994   6.115  18.007  0.00  0.00    +0.000 C 
ATOM      8  O   UNL     1       4.046   7.331  18.056  0.00  0.00    +0.000 OA
ATOM      9  C   UNL     1       3.006   5.450  18.873  0.00  0.00    +0.000 A 
ATOM     10  C   UNL     1       2.417   6.157  19.930  0.00  0.00    +0.000 A 
ATOM     11  C   UNL     1       1.391   5.574  20.675  0.00  0.00    +0.000 A 
ATOM     12  C   UNL     1       0.954   4.287  20.367  0.00  0.00    +0.000 A 
ATOM     13  C   UNL     1       1.562   3.571  19.335  0.00  0.00    +0.000 A 
ATOM     14  C   UNL     1       2.598   4.153  18.592  0.00  0.00    +0.000 A 
ATOM     15  C   UNL     1       3.232   3.413  17.493  0.00  0.00    +0.000 C 
ATOM     16  O   UNL     1       2.848   2.281  17.220  0.00  0.00    +0.000 OA
ENDROOT
BRANCH   1  18
ATOM     17  C   UNL     1       7.481   7.235  17.540  0.00  0.00    +0.000 C 
ATOM     18  O   UNL     1       6.494   7.084  16.522  0.00  0.00    +0.000 OA
ENDBRANCH   1  18
BRANCH   3  19
ATOM     19  O   UNL     1       6.393   3.097  13.906  0.00  0.00    +0.000 OA
ATOM     20  H   UNL     1       6.181   3.582  13.077  0.00  0.00    +0.000 HD
ENDBRANCH   3  19
BRANCH   2  21
ATOM     21  C   UNL     1       7.577   5.715  14.413  0.00  0.00    +0.000 C 
BRANCH  21  22
ATOM     22  O   UNL     1       7.380   5.386  13.035  0.00  0.00    +0.000 OA
ATOM     23  H   UNL     1       8.270   5.276  12.654  0.00  0.00    +0.000 HD
ENDBRANCH  21  22
ENDBRANCH   2  21
TORSDOF 4
ENDMDL
MODEL 3
REMARK VINA RESULT:      -6.7      1.375      1.949
REMARK  Name = 
REMARK  5 active torsions:
REMARK  status: ('A' for Active; 'I' for Inactive)
REMARK    1  A    between atoms: C_1  and  O_2
REMARK    2  A    between atoms: O_2  and  C_3
REMARK    3  A    between atoms: C_4  and  C_5
REMARK    4  A    between atoms: C_5  and  O_6
REMARK    5  A    between atoms: C_7  and  O_8
REMARK                            x       y       z     vdW  Elec       q    Type
REMARK                         _______ _______ _______ _____ _____    ______ ____
ROOT
ATOM      1  C   UNL     1       2.768   5.715  19.691  0.00  0.00    +0.000 A 
ATOM      2  C   UNL     1       3.700   5.194  18.754  0.00  0.00    +0.000 A 
ATOM      3  C   UNL     1       4.082   5.995  17.667  0.00  0.00    +0.000 A 
ATOM      4  C   UNL     1       3.533   7.253  17.467  0.00  0.00    +0.000 A 
ATOM      5  C   UNL     1       2.631   7.771  18.397  0.00  0.00    +0.000 A 
ATOM      6  C   UNL     1       2.273   7.035  19.540  0.00  0.00    +0.000 A 
ATOM      7  C   UNL     1       1.502   7.756  20.582  0.00  0.00    +0.000 C 
ATOM      8  O   UNL     1       1.467   7.379  21.740  0.00  0.00    +0.000 OA
ATOM      9  C   UNL     1       0.825   9.027  20.269  0.00  0.00    +0.000 A 
ATOM     10  C   UNL     1      -0.087   9.574  21.180  0.00  0.00    +0.000 A 
ATOM     11  C   UNL     1      -0.636  10.835  20.947  0.00  0.00    +0.000 A 
ATOM     12  C   UNL     1      -0.276  11.550  19.807  0.00  0.00    +0.000 A 
ATOM     13  C   UNL     1       0.609  10.991  18.882  0.00  0.00    +0.000 A 
ATOM     14  C   UNL     1       1.154   9.721  19.112  0.00  0.00    +0.000 A 
ATOM     15  C   UNL     1       2.099   9.133  18.154  0.00  0.00    +0.000 C 
ATOM     16  O   UNL     1       2.419   9.761  17.151  0.00  0.00    +0.000 OA
ENDROOT
BRANCH   1  18
ATOM     17  C   UNL     1       1.308   4.091  20.704  0.00  0.00    +0.000 C 
ATOM     18  O   UNL     1       2.507   4.865  20.739  0.00  0.00    +0.000 OA
ENDBRANCH   1  18
BRANCH   3  19
ATOM     19  O   UNL     1       5.019   5.601  16.752  0.00  0.00    +0.000 OA
ATOM     20  H   UNL     1       5.156   6.343  16.121  0.00  0.00    +0.000 HD
ENDBRANCH   3  19
BRANCH   2  21
ATOM     21  C   UNL     1       4.347   3.848  18.985  0.00  0.00    +0.000 C 
BRANCH  21  22
ATOM     22  O   UNL     1       5.770   3.974  19.044  0.00  0.00    +0.000 OA
ATOM     23  H   UNL     1       5.995   4.744  18.490  0.00  0.00    +0.000 HD
ENDBRANCH  21  22
ENDBRANCH   2  21
TORSDOF 4
ENDMDL
MODEL 4
REMARK VINA RESULT:      -6.6      2.100      4.988
REMARK  Name = 
REMARK  5 active torsions:
REMARK  status: ('A' for Active; 'I' for Inactive)
REMARK    1  A    between atoms: C_1  and  O_2
REMARK    2  A    between atoms: O_2  and  C_3
REMARK    3  A    between atoms: C_4  and  C_5
REMARK    4  A    between atoms: C_5  and  O_6
REMARK    5  A    between atoms: C_7  and  O_8
REMARK                            x       y       z     vdW  Elec       q    Type
REMARK                         _______ _______ _______ _____ _____    ______ ____
ROOT
ATOM      1  C   UNL     1       3.286   3.556  19.708  0.00  0.00    +0.000 A 
ATOM      2  C   UNL     1       2.518   4.320  20.629  0.00  0.00    +0.000 A 
ATOM      3  C   UNL     1       2.326   5.686  20.375  0.00  0.00    +0.000 A 
ATOM      4  C   UNL     1       2.908   6.307  19.281  0.00  0.00    +0.000 A 
ATOM      5  C   UNL     1       3.646   5.554  18.367  0.00  0.00    +0.000 A 
ATOM      6  C   UNL     1       3.806   4.169  18.540  0.00  0.00    +0.000 A 
ATOM      7  C   UNL     1       4.398   3.420  17.404  0.00  0.00    +0.000 C 
ATOM      8  O   UNL     1       4.238   2.220  17.266  0.00  0.00    +0.000 OA
ATOM      9  C   UNL     1       5.124   4.128  16.337  0.00  0.00    +0.000 A 
ATOM     10  C   UNL     1       5.876   3.402  15.404  0.00  0.00    +0.000 A 
ATOM     11  C   UNL     1       6.463   4.054  14.319  0.00  0.00    +0.000 A 
ATOM     12  C   UNL     1       6.300   5.430  14.165  0.00  0.00    +0.000 A 
ATOM     13  C   UNL     1       5.577   6.159  15.112  0.00  0.00    +0.000 A 
ATOM     14  C   UNL     1       4.994   5.504  16.206  0.00  0.00    +0.000 A 
ATOM     15  C   UNL     1       4.218   6.261  17.197  0.00  0.00    +0.000 C 
ATOM     16  O   UNL     1       4.073   7.470  17.062  0.00  0.00    +0.000 OA
ENDROOT
BRANCH   1  18
ATOM     17  C   UNL     1       4.572   1.735  20.615  0.00  0.00    +0.000 C 
ATOM     18  O   UNL     1       3.365   2.222  20.030  0.00  0.00    +0.000 OA
ENDBRANCH   1  18
BRANCH   3  19
ATOM     19  O   UNL     1       1.552   6.484  21.172  0.00  0.00    +0.000 OA
ATOM     20  H   UNL     1       1.027   5.901  21.765  0.00  0.00    +0.000 HD
ENDBRANCH   3  19
BRANCH   2  21
ATOM     21  C   UNL     1       1.835   3.648  21.798  0.00  0.00    +0.000 C 
BRANCH  21  22
ATOM     22  O   UNL     1       0.811   2.760  21.343  0.00  0.00    +0.000 OA
ATOM     23  H   UNL     1       0.236   2.595  22.113  0.00  0.00    +0.000 HD
ENDBRANCH  21  22
ENDBRANCH   2  21
TORSDOF 4
ENDMDL
MODEL 5
REMARK VINA RESULT:      -6.6      1.380      2.165
REMARK  Name = 
REMARK  5 active torsions:
REMARK  status: ('A' for Active; 'I' for Inactive)
REMARK    1  A    between atoms: C_1  and  O_2
REMARK    2  A    between atoms: O_2  and  C_3
REMARK    3  A    between atoms: C_4  and  C_5
REMARK    4  A    between atoms: C_5  and  O_6
REMARK    5  A    between atoms: C_7  and  O_8
REMARK                            x       y       z     vdW  Elec       q    Type
REMARK                         _______ _______ _______ _____ _____    ______ ____
ROOT
ATOM      1  C   UNL     1       3.587   5.281  18.536  0.00  0.00    +0.000 A 
ATOM      2  C   UNL     1       4.471   5.258  17.423  0.00  0.00    +0.000 A 
ATOM      3  C   UNL     1       4.606   6.418  16.646  0.00  0.00    +0.000 A 
ATOM      4  C   UNL     1       3.863   7.558  16.913  0.00  0.00    +0.000 A 
ATOM      5  C   UNL     1       3.009   7.586  18.016  0.00  0.00    +0.000 A 
ATOM      6  C   UNL     1       2.894   6.473  18.866  0.00  0.00    +0.000 A 
ATOM      7  C   UNL     1       2.152   6.677  20.134  0.00  0.00    +0.000 C 
ATOM      8  O   UNL     1       2.305   5.948  21.099  0.00  0.00    +0.000 OA
ATOM      9  C   UNL     1       1.269   7.842  20.306  0.00  0.00    +0.000 A 
ATOM     10  C   UNL     1       0.397   7.902  21.402  0.00  0.00    +0.000 A 
ATOM     11  C   UNL     1      -0.350   9.056  21.639  0.00  0.00    +0.000 A 
ATOM     12  C   UNL     1      -0.229  10.149  20.784  0.00  0.00    +0.000 A 
ATOM     13  C   UNL     1       0.615  10.079  19.674  0.00  0.00    +0.000 A 
ATOM     14  C   UNL     1       1.359   8.916  19.431  0.00  0.00    +0.000 A 
ATOM     15  C   UNL     1       2.262   8.840  18.275  0.00  0.00    +0.000 C 
ATOM     16  O   UNL     1       2.371   9.801  17.523  0.00  0.00    +0.000 OA
ENDROOT
BRANCH   1  18
ATOM     17  C   UNL     1       2.512   3.182  19.021  0.00  0.00    +0.000 C 
ATOM     18  O   UNL     1       3.573   4.108  19.252  0.00  0.00    +0.000 OA
ENDBRANCH   1  18
BRANCH   3  19
ATOM     19  O   UNL     1       5.478   6.507  15.596  0.00  0.00    +0.000 OA
ATOM     20  H   UNL     1       6.101   7.245  15.782  0.00  0.00    +0.000 HD
ENDBRANCH   3  19
BRANCH   2  21
ATOM     21  C   UNL     1       5.326   4.042  17.150  0.00  0.00    +0.000 C 
BRANCH  21  22
ATOM     22  O   UNL     1       6.270   3.841  18.206  0.00  0.00    +0.000 OA
ATOM     23  H   UNL     1       6.624   4.723  18.422  0.00  0.00    +0.000 HD
ENDBRANCH  21  22
ENDBRANCH   2  21
TORSDOF 4
ENDMDL
MODEL 6
REMARK VINA RESULT:      -6.5      1.209      3.267
REMARK  Name = 
REMARK  5 active torsions:
REMARK  status: ('A' for Active; 'I' for Inactive)
REMARK    1  A    between atoms: C_1  and  O_2
REMARK    2  A    between atoms: O_2  and  C_3
REMARK    3  A    between atoms: C_4  and  C_5
REMARK    4  A    between atoms: C_5  and  O_6
REMARK    5  A    between atoms: C_7  and  O_8
REMARK                            x       y       z     vdW  Elec       q    Type
REMARK                         _______ _______ _______ _____ _____    ______ ____
ROOT
ATOM      1  C   UNL     1       3.905   4.460  19.159  0.00  0.00    +0.000 A 
ATOM      2  C   UNL     1       3.683   3.376  20.051  0.00  0.00    +0.000 A 
ATOM      3  C   UNL     1       2.721   3.523  21.062  0.00  0.00    +0.000 A 
ATOM      4  C   UNL     1       2.027   4.711  21.233  0.00  0.00    +0.000 A 
ATOM      5  C   UNL     1       2.232   5.768  20.346  0.00  0.00    +0.000 A 
ATOM      6  C   UNL     1       3.133   5.643  19.274  0.00  0.00    +0.000 A 
ATOM      7  C   UNL     1       3.108   6.720  18.255  0.00  0.00    +0.000 C 
ATOM      8  O   UNL     1       3.532   6.553  17.124  0.00  0.00    +0.000 OA
ATOM      9  C   UNL     1       2.470   8.015  18.548  0.00  0.00    +0.000 A 
ATOM     10  C   UNL     1       2.657   9.098  17.678  0.00  0.00    +0.000 A 
ATOM     11  C   UNL     1       1.957  10.287  17.882  0.00  0.00    +0.000 A 
ATOM     12  C   UNL     1       1.072  10.397  18.952  0.00  0.00    +0.000 A 
ATOM     13  C   UNL     1       0.909   9.330  19.837  0.00  0.00    +0.000 A 
ATOM     14  C   UNL     1       1.619   8.138  19.637  0.00  0.00    +0.000 A 
ATOM     15  C   UNL     1       1.441   7.004  20.554  0.00  0.00    +0.000 C 
ATOM     16  O   UNL     1       0.661   7.098  21.495  0.00  0.00    +0.000 OA
ENDROOT
BRANCH   1  18
ATOM     17  C   UNL     1       6.161   4.677  18.347  0.00  0.00    +0.000 C 
ATOM     18  O   UNL     1       4.832   4.186  18.181  0.00  0.00    +0.000 OA
ENDBRANCH   1  18
BRANCH   3  19
ATOM     19  O   UNL     1       2.397   2.513  21.926  0.00  0.00    +0.000 OA
ATOM     20  H   UNL     1       2.395   1.671  21.419  0.00  0.00    +0.000 HD
ENDBRANCH   3  19
BRANCH   2  21
ATOM     21  C   UNL     1       4.392   2.058  19.847  0.00  0.00    +0.000 C 
BRANCH  21  22
ATOM     22  O   UNL     1       5.117   1.686  21.022  0.00  0.00    +0.000 OA
ATOM     23  H   UNL     1       5.068   2.453  21.623  0.00  0.00    +0.000 HD
ENDBRANCH  21  22
ENDBRANCH   2  21
TORSDOF 4
ENDMDL
MODEL 7
REMARK VINA RESULT:      -6.4      1.301      3.513
REMARK  Name = 
REMARK  5 active torsions:
REMARK  status: ('A' for Active; 'I' for Inactive)
REMARK    1  A    between atoms: C_1  and  O_2
REMARK    2  A    between atoms: O_2  and  C_3
REMARK    3  A    between atoms: C_4  and  C_5
REMARK    4  A    between atoms: C_5  and  O_6
REMARK    5  A    between atoms: C_7  and  O_8
REMARK                            x       y       z     vdW  Elec       q    Type
REMARK                         _______ _______ _______ _____ _____    ______ ____
ROOT
ATOM      1  C   UNL     1       3.460   6.064  18.320  0.00  0.00    +0.000 A 
ATOM      2  C   UNL     1       3.493   4.786  18.942  0.00  0.00    +0.000 A 
ATOM      3  C   UNL     1       2.739   4.585  20.108  0.00  0.00    +0.000 A 
ATOM      4  C   UNL     1       2.010   5.614  20.685  0.00  0.00    +0.000 A 
ATOM      5  C   UNL     1       1.963   6.863  20.064  0.00  0.00    +0.000 A 
ATOM      6  C   UNL     1       2.643   7.092  18.856  0.00  0.00    +0.000 A 
ATOM      7  C   UNL     1       2.344   8.364  18.154  0.00  0.00    +0.000 C 
ATOM      8  O   UNL     1       2.549   8.510  16.961  0.00  0.00    +0.000 OA
ATOM      9  C   UNL     1       1.686   9.474  18.863  0.00  0.00    +0.000 A 
ATOM     10  C   UNL     1       1.623  10.742  18.268  0.00  0.00    +0.000 A 
ATOM     11  C   UNL     1       0.894  11.764  18.877  0.00  0.00    +0.000 A 
ATOM     12  C   UNL     1       0.230  11.522  20.078  0.00  0.00    +0.000 A 
ATOM     13  C   UNL     1       0.319  10.269  20.686  0.00  0.00    +0.000 A 
ATOM     14  C   UNL     1       1.057   9.245  20.079  0.00  0.00    +0.000 A 
ATOM     15  C   UNL     1       1.142   7.918  20.704  0.00  0.00    +0.000 C 
ATOM     16  O   UNL     1       0.557   7.704  21.759  0.00  0.00    +0.000 OA
ENDROOT
BRANCH   1  18
ATOM     17  C   UNL     1       5.496   6.712  17.212  0.00  0.00    +0.000 C 
ATOM     18  O   UNL     1       4.194   6.130  17.160  0.00  0.00    +0.000 OA
ENDBRANCH   1  18
BRANCH   3  19
ATOM     19  O   UNL     1       2.661   3.374  20.739  0.00  0.00    +0.000 OA
ATOM     20  H   UNL     1       3.460   2.854  20.495  0.00  0.00    +0.000 HD
ENDBRANCH   3  19
BRANCH   2  21
ATOM     21  C   UNL     1       4.240   3.641  18.300  0.00  0.00    +0.000 C 
BRANCH  21  22
ATOM     22  O   UNL     1       5.297   3.187  19.148  0.00  0.00    +0.000 OA
ATOM     23  H   UNL     1       4.949   3.229  20.058  0.00  0.00    +0.000 HD
ENDBRANCH  21  22
ENDBRANCH   2  21
TORSDOF 4
ENDMDL
MODEL 8
REMARK VINA RESULT:      -6.4      1.281      3.530
REMARK  Name = 
REMARK  5 active torsions:
REMARK  status: ('A' for Active; 'I' for Inactive)
REMARK    1  A    between atoms: C_1  and  O_2
REMARK    2  A    between atoms: O_2  and  C_3
REMARK    3  A    between atoms: C_4  and  C_5
REMARK    4  A    between atoms: C_5  and  O_6
REMARK    5  A    between atoms: C_7  and  O_8
REMARK                            x       y       z     vdW  Elec       q    Type
REMARK                         _______ _______ _______ _____ _____    ______ ____
ROOT
ATOM      1  C   UNL     1       4.323   5.724  17.318  0.00  0.00    +0.000 A 
ATOM      2  C   UNL     1       4.675   4.347  17.299  0.00  0.00    +0.000 A 
ATOM      3  C   UNL     1       4.105   3.492  18.254  0.00  0.00    +0.000 A 
ATOM      4  C   UNL     1       3.252   3.972  19.236  0.00  0.00    +0.000 A 
ATOM      5  C   UNL     1       2.892   5.320  19.244  0.00  0.00    +0.000 A 
ATOM      6  C   UNL     1       3.381   6.201  18.264  0.00  0.00    +0.000 A 
ATOM      7  C   UNL     1       2.761   7.548  18.211  0.00  0.00    +0.000 C 
ATOM      8  O   UNL     1       2.805   8.243  17.211  0.00  0.00    +0.000 OA
ATOM      9  C   UNL     1       1.975   8.056  19.348  0.00  0.00    +0.000 A 
ATOM     10  C   UNL     1       1.599   9.405  19.388  0.00  0.00    +0.000 A 
ATOM     11  C   UNL     1       0.751   9.864  20.396  0.00  0.00    +0.000 A 
ATOM     12  C   UNL     1       0.279   8.979  21.364  0.00  0.00    +0.000 A 
ATOM     13  C   UNL     1       0.680   7.642  21.343  0.00  0.00    +0.000 A 
ATOM     14  C   UNL     1       1.538   7.183  20.334  0.00  0.00    +0.000 A 
ATOM     15  C   UNL     1       1.951   5.774  20.295  0.00  0.00    +0.000 C 
ATOM     16  O   UNL     1       1.536   4.993  21.144  0.00  0.00    +0.000 OA
ENDROOT
BRANCH   1  18
ATOM     17  C   UNL     1       6.066   7.223  16.606  0.00  0.00    +0.000 C 
ATOM     18  O   UNL     1       4.901   6.455  16.308  0.00  0.00    +0.000 OA
ENDBRANCH   1  18
BRANCH   3  19
ATOM     19  O   UNL     1       4.338   2.144  18.272  0.00  0.00    +0.000 OA
ATOM     20  H   UNL     1       4.983   1.958  18.991  0.00  0.00    +0.000 HD
ENDBRANCH   3  19
BRANCH   2  21
ATOM     21  C   UNL     1       5.562   3.799  16.204  0.00  0.00    +0.000 C 
BRANCH  21  22
ATOM     22  O   UNL     1       6.942   3.985  16.531  0.00  0.00    +0.000 OA
ATOM     23  H   UNL     1       7.186   4.861  16.180  0.00  0.00    +0.000 HD
ENDBRANCH  21  22
ENDBRANCH   2  21
TORSDOF 4
ENDMDL
MODEL 9
REMARK VINA RESULT:      -6.4      1.757      5.731
REMARK  Name = 
REMARK  5 active torsions:
REMARK  status: ('A' for Active; 'I' for Inactive)
REMARK    1  A    between atoms: C_1  and  O_2
REMARK    2  A    between atoms: O_2  and  C_3
REMARK    3  A    between atoms: C_4  and  C_5
REMARK    4  A    between atoms: C_5  and  O_6
REMARK    5  A    between atoms: C_7  and  O_8
REMARK                            x       y       z     vdW  Elec       q    Type
REMARK                         _______ _______ _______ _____ _____    ______ ____
ROOT
ATOM      1  C   UNL     1       1.422   8.324  20.099  0.00  0.00    +0.000 A 
ATOM      2  C   UNL     1       1.400   9.506  19.310  0.00  0.00    +0.000 A 
ATOM      3  C   UNL     1       2.102   9.518  18.095  0.00  0.00    +0.000 A 
ATOM      4  C   UNL     1       2.847   8.425  17.680  0.00  0.00    +0.000 A 
ATOM      5  C   UNL     1       2.853   7.259  18.445  0.00  0.00    +0.000 A 
ATOM      6  C   UNL     1       2.108   7.174  19.634  0.00  0.00    +0.000 A 
ATOM      7  C   UNL     1       1.986   5.830  20.249  0.00  0.00    +0.000 C 
ATOM      8  O   UNL     1       1.087   5.551  21.023  0.00  0.00    +0.000 OA
ATOM      9  C   UNL     1       2.900   4.742  19.861  0.00  0.00    +0.000 A 
ATOM     10  C   UNL     1       2.932   3.558  20.609  0.00  0.00    +0.000 A 
ATOM     11  C   UNL     1       3.703   2.479  20.177  0.00  0.00    +0.000 A 
ATOM     12  C   UNL     1       4.441   2.580  18.999  0.00  0.00    +0.000 A 
ATOM     13  C   UNL     1       4.434   3.771  18.270  0.00  0.00    +0.000 A 
ATOM     14  C   UNL     1       3.666   4.858  18.709  0.00  0.00    +0.000 A 
ATOM     15  C   UNL     1       3.640   6.109  17.940  0.00  0.00    +0.000 C 
ATOM     16  O   UNL     1       4.287   6.199  16.902  0.00  0.00    +0.000 OA
ENDROOT
BRANCH   1  18
ATOM     17  C   UNL     1       1.247   8.986  22.406  0.00  0.00    +0.000 C 
ATOM     18  O   UNL     1       0.661   8.410  21.240  0.00  0.00    +0.000 OA
ENDBRANCH   1  18
BRANCH   3  19
ATOM     19  O   UNL     1       2.086  10.588  17.243  0.00  0.00    +0.000 OA
ATOM     20  H   UNL     1       1.236  11.065  17.371  0.00  0.00    +0.000 HD
ENDBRANCH   3  19
BRANCH   2  21
ATOM     21  C   UNL     1       0.552  10.686  19.722  0.00  0.00    +0.000 C 
BRANCH  21  22
ATOM     22  O   UNL     1      -0.839  10.364  19.637  0.00  0.00    +0.000 OA
ATOM     23  H   UNL     1      -1.216  10.563  20.514  0.00  0.00    +0.000 HD
ENDBRANCH  21  22
ENDBRANCH   2  21
TORSDOF 4
ENDMDL
