MODEL 1
REMARK VINA RESULT:      -7.8      0.000      0.000
REMARK  Name = 
REMARK  6 active torsions:
REMARK  status: ('A' for Active; 'I' for Inactive)
REMARK    1  A    between atoms: C_1  and  O_2
REMARK    2  A    between atoms: O_2  and  C_3
REMARK    3  A    between atoms: C_6  and  C_7
REMARK    4  A    between atoms: C_17  and  N_18
REMARK    5  A    between atoms: N_18  and  S_19
REMARK    6  A    between atoms: S_19  and  C_20
REMARK                            x       y       z     vdW  Elec       q    Type
REMARK                         _______ _______ _______ _____ _____    ______ ____
ROOT
ATOM      1  C   UNL     1       3.966   3.799  19.160  0.00  0.00    +0.000 A 
ATOM      2  N   UNL     1       2.841   3.979  19.884  0.00  0.00    +0.000 NA
ATOM      3  C   UNL     1       2.309   5.226  19.879  0.00  0.00    +0.000 A 
ATOM      4  C   UNL     1       2.852   6.331  19.218  0.00  0.00    +0.000 A 
ATOM      5  C   UNL     1       4.057   6.101  18.535  0.00  0.00    +0.000 A 
ATOM      6  C   UNL     1       4.621   4.825  18.485  0.00  0.00    +0.000 A 
ENDROOT
BRANCH   4   7
ATOM      7  C   UNL     1       2.156   7.644  19.178  0.00  0.00    +0.000 A 
ATOM      8  C   UNL     1       2.163   8.437  17.980  0.00  0.00    +0.000 A 
ATOM      9  C   UNL     1       1.575   9.715  17.854  0.00  0.00    +0.000 A 
ATOM     10  C   UNL     1       0.943  10.180  19.017  0.00  0.00    +0.000 A 
ATOM     11  N   UNL     1       0.298  11.332  19.232  0.00  0.00    +0.000 NA
ATOM     12  O   UNL     1      -0.132  11.282  20.549  0.00  0.00    +0.000 OA
ATOM     13  N   UNL     1       0.247  10.102  21.169  0.00  0.00    +0.000 NA
ATOM     14  C   UNL     1       0.911   9.402  20.242  0.00  0.00    +0.000 A 
ATOM     15  C   UNL     1       1.515   8.135  20.347  0.00  0.00    +0.000 A 
ENDBRANCH   4   7
BRANCH   1  17
ATOM     16  C   UNL     1       3.449   1.613  18.582  0.00  0.00    +0.000 C 
ATOM     17  O   UNL     1       4.459   2.516  19.023  0.00  0.00    +0.000 OA
ENDBRANCH   1  17
BRANCH   6  18
ATOM     18  N   UNL     1       5.704   4.601  17.590  0.00  0.00    +0.000 N 
ATOM     19  H   UNL     1       5.560   4.028  16.762  0.00  0.00    +0.000 HD
BRANCH  18  20
ATOM     20  S   UNL     1       7.259   5.045  17.971  0.00  0.00    +0.000 S 
ATOM     21  C   UNL     1       7.367   6.725  17.389  0.00  0.00    +0.000 C 
ATOM     22  O   UNL     1       7.310   5.093  19.416  0.00  0.00    +0.000 OA
ATOM     23  O   UNL     1       8.185   4.228  17.216  0.00  0.00    +0.000 OA
ENDBRANCH  18  20
ENDBRANCH   6  18
TORSDOF 4
ENDMDL
MODEL 2
REMARK VINA RESULT:      -7.7      1.761      3.156
REMARK  Name = 
REMARK  6 active torsions:
REMARK  status: ('A' for Active; 'I' for Inactive)
REMARK    1  A    between atoms: C_1  and  O_2
REMARK    2  A    between atoms: O_2  and  C_3
REMARK    3  A    between atoms: C_6  and  C_7
REMARK    4  A    between atoms: C_17  and  N_18
REMARK    5  A    between atoms: N_18  and  S_19
REMARK    6  A    between atoms: S_19  and  C_20
REMARK                            x       y       z     vdW  Elec       q    Type
REMARK                         _______ _______ _______ _____ _____    ______ ____
ROOT
ATOM      1  C   UNL     1       5.395   4.919  17.167  0.00  0.00    +0.000 A 
ATOM      2  N   UNL     1       5.049   5.978  16.405  0.00  0.00    +0.000 NA
ATOM      3  C   UNL     1       4.103   6.806  16.910  0.00  0.00    +0.000 A 
ATOM      4  C   UNL     1       3.441   6.626  18.129  0.00  0.00    +0.000 A 
ATOM      5  C   UNL     1       3.794   5.474  18.849  0.00  0.00    +0.000 A 
ATOM      6  C   UNL     1       4.788   4.613  18.382  0.00  0.00    +0.000 A 
ENDROOT
BRANCH   4   7
ATOM      7  C   UNL     1       2.485   7.632  18.661  0.00  0.00    +0.000 A 
ATOM      8  C   UNL     1       2.007   8.697  17.824  0.00  0.00    +0.000 A 
ATOM      9  C   UNL     1       1.137   9.727  18.245  0.00  0.00    +0.000 A 
ATOM     10  C   UNL     1       0.738   9.637  19.588  0.00  0.00    +0.000 A 
ATOM     11  N   UNL     1      -0.069  10.439  20.290  0.00  0.00    +0.000 NA
ATOM     12  O   UNL     1      -0.124   9.893  21.564  0.00  0.00    +0.000 OA
ATOM     13  N   UNL     1       0.654   8.752  21.669  0.00  0.00    +0.000 NA
ATOM     14  C   UNL     1       1.196   8.571  20.459  0.00  0.00    +0.000 A 
ATOM     15  C   UNL     1       2.072   7.561  20.018  0.00  0.00    +0.000 A 
ENDBRANCH   4   7
BRANCH   1  17
ATOM     16  C   UNL     1       7.021   4.614  15.542  0.00  0.00    +0.000 C 
ATOM     17  O   UNL     1       6.453   4.133  16.757  0.00  0.00    +0.000 OA
ENDBRANCH   1  17
BRANCH   6  18
ATOM     18  N   UNL     1       5.268   3.599  19.258  0.00  0.00    +0.000 N 
ATOM     19  H   UNL     1       6.268   3.516  19.429  0.00  0.00    +0.000 HD
BRANCH  18  20
ATOM     20  S   UNL     1       4.275   2.395  19.828  0.00  0.00    +0.000 S 
ATOM     21  C   UNL     1       3.573   1.699  18.347  0.00  0.00    +0.000 C 
ATOM     22  O   UNL     1       5.157   1.394  20.389  0.00  0.00    +0.000 OA
ATOM     23  O   UNL     1       3.215   2.984  20.616  0.00  0.00    +0.000 OA
ENDBRANCH  18  20
ENDBRANCH   6  18
TORSDOF 4
ENDMDL
MODEL 3
REMARK VINA RESULT:      -7.6      1.112      1.115
REMARK  Name = 
REMARK  6 active torsions:
REMARK  status: ('A' for Active; 'I' for Inactive)
REMARK    1  A    between atoms: C_1  and  O_2
REMARK    2  A    between atoms: O_2  and  C_3
REMARK    3  A    between atoms: C_6  and  C_7
REMARK    4  A    between atoms: C_17  and  N_18
REMARK    5  A    between atoms: N_18  and  S_19
REMARK    6  A    between atoms: S_19  and  C_20
REMARK                            x       y       z     vdW  Elec       q    Type
REMARK                         _______ _______ _______ _____ _____    ______ ____
ROOT
ATOM      1  C   UNL     1       3.893   3.346  19.578  0.00  0.00    +0.000 A 
ATOM      2  N   UNL     1       2.592   3.525  19.893  0.00  0.00    +0.000 NA
ATOM      3  C   UNL     1       2.119   4.793  19.822  0.00  0.00    +0.000 A 
ATOM      4  C   UNL     1       2.877   5.919  19.486  0.00  0.00    +0.000 A 
ATOM      5  C   UNL     1       4.238   5.683  19.232  0.00  0.00    +0.000 A 
ATOM      6  C   UNL     1       4.759   4.388  19.260  0.00  0.00    +0.000 A 
ENDROOT
BRANCH   4   7
ATOM      7  C   UNL     1       2.263   7.263  19.333  0.00  0.00    +0.000 A 
ATOM      8  C   UNL     1       2.356   7.969  18.086  0.00  0.00    +0.000 A 
ATOM      9  C   UNL     1       1.850   9.268  17.853  0.00  0.00    +0.000 A 
ATOM     10  C   UNL     1       1.210   9.847  18.959  0.00  0.00    +0.000 A 
ATOM     11  N   UNL     1       0.628  11.047  19.072  0.00  0.00    +0.000 NA
ATOM     12  O   UNL     1       0.153  11.112  20.372  0.00  0.00    +0.000 OA
ATOM     13  N   UNL     1       0.441   9.959  21.084  0.00  0.00    +0.000 NA
ATOM     14  C   UNL     1       1.092   9.160  20.231  0.00  0.00    +0.000 A 
ATOM     15  C   UNL     1       1.614   7.870  20.442  0.00  0.00    +0.000 A 
ENDBRANCH   4   7
BRANCH   1  17
ATOM     16  C   UNL     1       3.758   1.328  18.443  0.00  0.00    +0.000 C 
ATOM     17  O   UNL     1       4.378   2.056  19.500  0.00  0.00    +0.000 OA
ENDBRANCH   1  17
BRANCH   6  18
ATOM     18  N   UNL     1       6.078   4.182  18.768  0.00  0.00    +0.000 N 
ATOM     19  H   UNL     1       6.791   3.802  19.387  0.00  0.00    +0.000 HD
BRANCH  18  20
ATOM     20  S   UNL     1       6.559   4.761  17.286  0.00  0.00    +0.000 S 
ATOM     21  C   UNL     1       5.448   3.963  16.147  0.00  0.00    +0.000 C 
ATOM     22  O   UNL     1       6.224   6.169  17.288  0.00  0.00    +0.000 OA
ATOM     23  O   UNL     1       7.908   4.313  17.016  0.00  0.00    +0.000 OA
ENDBRANCH  18  20
ENDBRANCH   6  18
TORSDOF 4
ENDMDL
MODEL 4
REMARK VINA RESULT:      -7.5      1.933      3.195
REMARK  Name = 
REMARK  6 active torsions:
REMARK  status: ('A' for Active; 'I' for Inactive)
REMARK    1  A    between atoms: C_1  and  O_2
REMARK    2  A    between atoms: O_2  and  C_3
REMARK    3  A    between atoms: C_6  and  C_7
REMARK    4  A    between atoms: C_17  and  N_18
REMARK    5  A    between atoms: N_18  and  S_19
REMARK    6  A    between atoms: S_19  and  C_20
REMARK                            x       y       z     vdW  Elec       q    Type
REMARK                         _______ _______ _______ _____ _____    ______ ____
ROOT
ATOM      1  C   UNL     1       4.799   4.931  16.824  0.00  0.00    +0.000 A 
ATOM      2  N   UNL     1       5.141   6.236  16.762  0.00  0.00    +0.000 NA
ATOM      3  C   UNL     1       4.286   7.116  17.338  0.00  0.00    +0.000 A 
ATOM      4  C   UNL     1       3.076   6.780  17.952  0.00  0.00    +0.000 A 
ATOM      5  C   UNL     1       2.739   5.417  17.931  0.00  0.00    +0.000 A 
ATOM      6  C   UNL     1       3.607   4.473  17.379  0.00  0.00    +0.000 A 
ENDROOT
BRANCH   4   7
ATOM      7  C   UNL     1       2.240   7.793  18.649  0.00  0.00    +0.000 A 
ATOM      8  C   UNL     1       1.715   8.922  17.933  0.00  0.00    +0.000 A 
ATOM      9  C   UNL     1       0.953   9.962  18.512  0.00  0.00    +0.000 A 
ATOM     10  C   UNL     1       0.717   9.812  19.887  0.00  0.00    +0.000 A 
ATOM     11  N   UNL     1       0.040  10.605  20.724  0.00  0.00    +0.000 NA
ATOM     12  O   UNL     1       0.115   9.991  21.965  0.00  0.00    +0.000 OA
ATOM     13  N   UNL     1       0.845   8.815  21.914  0.00  0.00    +0.000 NA
ATOM     14  C   UNL     1       1.227   8.680  20.639  0.00  0.00    +0.000 A 
ATOM     15  C   UNL     1       1.993   7.662  20.042  0.00  0.00    +0.000 A 
ENDBRANCH   4   7
BRANCH   1  17
ATOM     16  C   UNL     1       7.046   4.464  16.495  0.00  0.00    +0.000 C 
ATOM     17  O   UNL     1       5.707   3.992  16.378  0.00  0.00    +0.000 OA
ENDBRANCH   1  17
BRANCH   6  18
ATOM     18  N   UNL     1       3.327   3.095  17.594  0.00  0.00    +0.000 N 
ATOM     19  H   UNL     1       2.727   2.596  16.940  0.00  0.00    +0.000 HD
BRANCH  18  20
ATOM     20  S   UNL     1       3.752   2.326  19.005  0.00  0.00    +0.000 S 
ATOM     21  C   UNL     1       2.314   2.525  20.036  0.00  0.00    +0.000 C 
ATOM     22  O   UNL     1       3.844   0.921  18.673  0.00  0.00    +0.000 OA
ATOM     23  O   UNL     1       4.863   3.027  19.613  0.00  0.00    +0.000 OA
ENDBRANCH  18  20
ENDBRANCH   6  18
TORSDOF 4
ENDMDL
MODEL 5
REMARK VINA RESULT:      -7.5      1.277      1.449
REMARK  Name = 
REMARK  6 active torsions:
REMARK  status: ('A' for Active; 'I' for Inactive)
REMARK    1  A    between atoms: C_1  and  O_2
REMARK    2  A    between atoms: O_2  and  C_3
REMARK    3  A    between atoms: C_6  and  C_7
REMARK    4  A    between atoms: C_17  and  N_18
REMARK    5  A    between atoms: N_18  and  S_19
REMARK    6  A    between atoms: S_19  and  C_20
REMARK                            x       y       z     vdW  Elec       q    Type
REMARK                         _______ _______ _______ _____ _____    ______ ____
ROOT
ATOM      1  C   UNL     1       3.826   4.018  18.022  0.00  0.00    +0.000 A 
ATOM      2  N   UNL     1       2.878   4.068  18.982  0.00  0.00    +0.000 NA
ATOM      3  C   UNL     1       2.379   5.292  19.280  0.00  0.00    +0.000 A 
ATOM      4  C   UNL     1       2.795   6.495  18.701  0.00  0.00    +0.000 A 
ATOM      5  C   UNL     1       3.829   6.391  17.757  0.00  0.00    +0.000 A 
ATOM      6  C   UNL     1       4.347   5.146  17.395  0.00  0.00    +0.000 A 
ENDROOT
BRANCH   4   7
ATOM      7  C   UNL     1       2.130   7.788  19.010  0.00  0.00    +0.000 A 
ATOM      8  C   UNL     1       2.015   8.807  18.004  0.00  0.00    +0.000 A 
ATOM      9  C   UNL     1       1.446  10.084  18.209  0.00  0.00    +0.000 A 
ATOM     10  C   UNL     1       0.966  10.303  19.509  0.00  0.00    +0.000 A 
ATOM     11  N   UNL     1       0.378  11.387  20.026  0.00  0.00    +0.000 NA
ATOM     12  O   UNL     1       0.104  11.070  21.348  0.00  0.00    +0.000 OA
ATOM     13  N   UNL     1       0.526   9.790  21.669  0.00  0.00    +0.000 NA
ATOM     14  C   UNL     1       1.060   9.293  20.547  0.00  0.00    +0.000 A 
ATOM     15  C   UNL     1       1.642   8.031  20.321  0.00  0.00    +0.000 A 
ENDBRANCH   4   7
BRANCH   1  17
ATOM     16  C   UNL     1       3.452   1.732  18.120  0.00  0.00    +0.000 C 
ATOM     17  O   UNL     1       4.257   2.780  17.589  0.00  0.00    +0.000 OA
ENDBRANCH   1  17
BRANCH   6  18
ATOM     18  N   UNL     1       5.219   5.080  16.272  0.00  0.00    +0.000 N 
ATOM     19  H   UNL     1       4.905   4.622  15.419  0.00  0.00    +0.000 HD
BRANCH  18  20
ATOM     20  S   UNL     1       6.819   5.514  16.380  0.00  0.00    +0.000 S 
ATOM     21  C   UNL     1       7.368   4.712  17.872  0.00  0.00    +0.000 C 
ATOM     22  O   UNL     1       7.480   4.853  15.276  0.00  0.00    +0.000 OA
ATOM     23  O   UNL     1       6.913   6.947  16.558  0.00  0.00    +0.000 OA
ENDBRANCH  18  20
ENDBRANCH   6  18
TORSDOF 4
ENDMDL
MODEL 6
REMARK VINA RESULT:      -7.5      1.883      3.383
REMARK  Name = 
REMARK  6 active torsions:
REMARK  status: ('A' for Active; 'I' for Inactive)
REMARK    1  A    between atoms: C_1  and  O_2
REMARK    2  A    between atoms: O_2  and  C_3
REMARK    3  A    between atoms: C_6  and  C_7
REMARK    4  A    between atoms: C_17  and  N_18
REMARK    5  A    between atoms: N_18  and  S_19
REMARK    6  A    between atoms: S_19  and  C_20
REMARK                            x       y       z     vdW  Elec       q    Type
REMARK                         _______ _______ _______ _____ _____    ______ ____
ROOT
ATOM      1  C   UNL     1       4.688   4.934  16.759  0.00  0.00    +0.000 A 
ATOM      2  N   UNL     1       5.026   6.240  16.697  0.00  0.00    +0.000 NA
ATOM      3  C   UNL     1       4.212   7.108  17.346  0.00  0.00    +0.000 A 
ATOM      4  C   UNL     1       3.046   6.759  18.034  0.00  0.00    +0.000 A 
ATOM      5  C   UNL     1       2.708   5.396  18.010  0.00  0.00    +0.000 A 
ATOM      6  C   UNL     1       3.537   4.464  17.384  0.00  0.00    +0.000 A 
ENDROOT
BRANCH   4   7
ATOM      7  C   UNL     1       2.259   7.758  18.805  0.00  0.00    +0.000 A 
ATOM      8  C   UNL     1       1.958   7.535  20.192  0.00  0.00    +0.000 A 
ATOM      9  C   UNL     1       1.180   8.396  20.997  0.00  0.00    +0.000 A 
ATOM     10  C   UNL     1       0.708   9.540  20.336  0.00  0.00    +0.000 A 
ATOM     11  N   UNL     1      -0.044  10.542  20.804  0.00  0.00    +0.000 NA
ATOM     12  O   UNL     1      -0.218  11.410  19.737  0.00  0.00    +0.000 OA
ATOM     13  N   UNL     1       0.417  10.954  18.593  0.00  0.00    +0.000 NA
ATOM     14  C   UNL     1       0.999   9.799  18.939  0.00  0.00    +0.000 A 
ATOM     15  C   UNL     1       1.769   8.920  18.153  0.00  0.00    +0.000 A 
ENDBRANCH   4   7
BRANCH   1  17
ATOM     16  C   UNL     1       6.906   4.484  16.250  0.00  0.00    +0.000 C 
ATOM     17  O   UNL     1       5.565   4.004  16.234  0.00  0.00    +0.000 OA
ENDBRANCH   1  17
BRANCH   6  18
ATOM     18  N   UNL     1       3.273   3.082  17.592  0.00  0.00    +0.000 N 
ATOM     19  H   UNL     1       2.663   2.584  16.945  0.00  0.00    +0.000 HD
BRANCH  18  20
ATOM     20  S   UNL     1       3.731   2.304  18.987  0.00  0.00    +0.000 S 
ATOM     21  C   UNL     1       2.307   2.468  20.043  0.00  0.00    +0.000 C 
ATOM     22  O   UNL     1       3.840   0.904  18.637  0.00  0.00    +0.000 OA
ATOM     23  O   UNL     1       4.841   3.014  19.585  0.00  0.00    +0.000 OA
ENDBRANCH  18  20
ENDBRANCH   6  18
TORSDOF 4
ENDMDL
MODEL 7
REMARK VINA RESULT:      -7.4      2.324      3.750
REMARK  Name = 
REMARK  6 active torsions:
REMARK  status: ('A' for Active; 'I' for Inactive)
REMARK    1  A    between atoms: C_1  and  O_2
REMARK    2  A    between atoms: O_2  and  C_3
REMARK    3  A    between atoms: C_6  and  C_7
REMARK    4  A    between atoms: C_17  and  N_18
REMARK    5  A    between atoms: N_18  and  S_19
REMARK    6  A    between atoms: S_19  and  C_20
REMARK                            x       y       z     vdW  Elec       q    Type
REMARK                         _______ _______ _______ _____ _____    ______ ____
ROOT
ATOM      1  C   UNL     1       3.865   5.975  17.658  0.00  0.00    +0.000 A 
ATOM      2  N   UNL     1       3.791   7.265  17.267  0.00  0.00    +0.000 NA
ATOM      3  C   UNL     1       2.979   8.073  17.991  0.00  0.00    +0.000 A 
ATOM      4  C   UNL     1       2.195   7.667  19.075  0.00  0.00    +0.000 A 
ATOM      5  C   UNL     1       2.261   6.301  19.397  0.00  0.00    +0.000 A 
ATOM      6  C   UNL     1       3.111   5.441  18.700  0.00  0.00    +0.000 A 
ENDROOT
BRANCH   4   7
ATOM      7  C   UNL     1       1.404   8.634  19.881  0.00  0.00    +0.000 A 
ATOM      8  C   UNL     1       0.718   9.723  19.244  0.00  0.00    +0.000 A 
ATOM      9  C   UNL     1      -0.017  10.721  19.922  0.00  0.00    +0.000 A 
ATOM     10  C   UNL     1      -0.051  10.570  21.316  0.00  0.00    +0.000 A 
ATOM     11  N   UNL     1      -0.652  11.329  22.239  0.00  0.00    +0.000 NA
ATOM     12  O   UNL     1      -0.369  10.732  23.458  0.00  0.00    +0.000 OA
ATOM     13  N   UNL     1       0.416   9.601  23.307  0.00  0.00    +0.000 NA
ATOM     14  C   UNL     1       0.625   9.477  21.991  0.00  0.00    +0.000 A 
ATOM     15  C   UNL     1       1.361   8.501  21.294  0.00  0.00    +0.000 A 
ENDBRANCH   4   7
BRANCH   1  17
ATOM     16  C   UNL     1       5.340   5.769  15.881  0.00  0.00    +0.000 C 
ATOM     17  O   UNL     1       4.786   5.153  17.040  0.00  0.00    +0.000 OA
ENDBRANCH   1  17
BRANCH   6  18
ATOM     18  N   UNL     1       3.314   4.131  19.216  0.00  0.00    +0.000 N 
ATOM     19  H   UNL     1       4.166   3.922  19.733  0.00  0.00    +0.000 HD
BRANCH  18  20
ATOM     20  S   UNL     1       2.321   2.864  18.803  0.00  0.00    +0.000 S 
ATOM     21  C   UNL     1       1.184   2.764  20.169  0.00  0.00    +0.000 C 
ATOM     22  O   UNL     1       1.566   3.317  17.655  0.00  0.00    +0.000 OA
ATOM     23  O   UNL     1       3.101   1.646  18.753  0.00  0.00    +0.000 OA
ENDBRANCH  18  20
ENDBRANCH   6  18
TORSDOF 4
ENDMDL
MODEL 8
REMARK VINA RESULT:      -7.4      0.798      1.489
REMARK  Name = 
REMARK  6 active torsions:
REMARK  status: ('A' for Active; 'I' for Inactive)
REMARK    1  A    between atoms: C_1  and  O_2
REMARK    2  A    between atoms: O_2  and  C_3
REMARK    3  A    between atoms: C_6  and  C_7
REMARK    4  A    between atoms: C_17  and  N_18
REMARK    5  A    between atoms: N_18  and  S_19
REMARK    6  A    between atoms: S_19  and  C_20
REMARK                            x       y       z     vdW  Elec       q    Type
REMARK                         _______ _______ _______ _____ _____    ______ ____
ROOT
ATOM      1  C   UNL     1       3.888   3.664  19.538  0.00  0.00    +0.000 A 
ATOM      2  N   UNL     1       2.792   3.741  20.322  0.00  0.00    +0.000 NA
ATOM      3  C   UNL     1       2.221   4.964  20.448  0.00  0.00    +0.000 A 
ATOM      4  C   UNL     1       2.698   6.141  19.864  0.00  0.00    +0.000 A 
ATOM      5  C   UNL     1       3.877   6.013  19.113  0.00  0.00    +0.000 A 
ATOM      6  C   UNL     1       4.479   4.767  18.928  0.00  0.00    +0.000 A 
ENDROOT
BRANCH   4   7
ATOM      7  C   UNL     1       1.960   7.426  19.969  0.00  0.00    +0.000 A 
ATOM      8  C   UNL     1       1.210   7.742  21.153  0.00  0.00    +0.000 A 
ATOM      9  C   UNL     1       0.438   8.911  21.332  0.00  0.00    +0.000 A 
ATOM     10  C   UNL     1       0.459   9.793  20.241  0.00  0.00    +0.000 A 
ATOM     11  N   UNL     1      -0.155  10.972  20.089  0.00  0.00    +0.000 NA
ATOM     12  O   UNL     1       0.203  11.421  18.827  0.00  0.00    +0.000 OA
ATOM     13  N   UNL     1       1.036  10.523  18.178  0.00  0.00    +0.000 NA
ATOM     14  C   UNL     1       1.211   9.509  19.033  0.00  0.00    +0.000 A 
ATOM     15  C   UNL     1       1.965   8.331  18.874  0.00  0.00    +0.000 A 
ENDBRANCH   4   7
BRANCH   1  17
ATOM     16  C   UNL     1       3.531   1.638  18.467  0.00  0.00    +0.000 C 
ATOM     17  O   UNL     1       4.415   2.416  19.268  0.00  0.00    +0.000 OA
ENDBRANCH   1  17
BRANCH   6  18
ATOM     18  N   UNL     1       5.526   4.659  17.972  0.00  0.00    +0.000 N 
ATOM     19  H   UNL     1       5.372   4.133  17.115  0.00  0.00    +0.000 HD
BRANCH  18  20
ATOM     20  S   UNL     1       7.074   5.162  18.310  0.00  0.00    +0.000 S 
ATOM     21  C   UNL     1       7.122   6.822  17.665  0.00  0.00    +0.000 C 
ATOM     22  O   UNL     1       7.147   5.265  19.751  0.00  0.00    +0.000 OA
ATOM     23  O   UNL     1       8.012   4.345  17.569  0.00  0.00    +0.000 OA
ENDBRANCH  18  20
ENDBRANCH   6  18
TORSDOF 4
ENDMDL
MODEL 9
REMARK VINA RESULT:      -7.4      1.380      1.478
REMARK  Name = 
REMARK  6 active torsions:
REMARK  status: ('A' for Active; 'I' for Inactive)
REMARK    1  A    between atoms: C_1  and  O_2
REMARK    2  A    between atoms: O_2  and  C_3
REMARK    3  A    between atoms: C_6  and  C_7
REMARK    4  A    between atoms: C_17  and  N_18
REMARK    5  A    between atoms: N_18  and  S_19
REMARK    6  A    between atoms: S_19  and  C_20
REMARK                            x       y       z     vdW  Elec       q    Type
REMARK                         _______ _______ _______ _____ _____    ______ ____
ROOT
ATOM      1  C   UNL     1       3.910   3.910  18.722  0.00  0.00    +0.000 A 
ATOM      2  N   UNL     1       3.278   4.194  19.881  0.00  0.00    +0.000 NA
ATOM      3  C   UNL     1       2.737   5.432  19.991  0.00  0.00    +0.000 A 
ATOM      4  C   UNL     1       2.815   6.435  19.020  0.00  0.00    +0.000 A 
ATOM      5  C   UNL     1       3.538   6.107  17.862  0.00  0.00    +0.000 A 
ATOM      6  C   UNL     1       4.082   4.832  17.693  0.00  0.00    +0.000 A 
ENDROOT
BRANCH   4   7
ATOM      7  C   UNL     1       2.110   7.734  19.173  0.00  0.00    +0.000 A 
ATOM      8  C   UNL     1       1.984   8.631  18.057  0.00  0.00    +0.000 A 
ATOM      9  C   UNL     1       1.377   9.905  18.111  0.00  0.00    +0.000 A 
ATOM     10  C   UNL     1       0.869  10.254  19.371  0.00  0.00    +0.000 A 
ATOM     11  N   UNL     1       0.243  11.371  19.756  0.00  0.00    +0.000 NA
ATOM     12  O   UNL     1      -0.044  11.196  21.101  0.00  0.00    +0.000 OA
ATOM     13  N   UNL     1       0.407   9.973  21.569  0.00  0.00    +0.000 NA
ATOM     14  C   UNL     1       0.973   9.370  20.517  0.00  0.00    +0.000 A 
ATOM     15  C   UNL     1       1.593   8.108  20.442  0.00  0.00    +0.000 A 
ENDBRANCH   4   7
BRANCH   1  17
ATOM     16  C   UNL     1       3.259   1.711  18.379  0.00  0.00    +0.000 C 
ATOM     17  O   UNL     1       4.349   2.618  18.513  0.00  0.00    +0.000 OA
ENDBRANCH   1  17
BRANCH   6  18
ATOM     18  N   UNL     1       4.595   4.483  16.413  0.00  0.00    +0.000 N 
ATOM     19  H   UNL     1       4.071   3.843  15.820  0.00  0.00    +0.000 HD
BRANCH  18  20
ATOM     20  S   UNL     1       6.136   4.893  15.947  0.00  0.00    +0.000 S 
ATOM     21  C   UNL     1       6.363   3.996  14.425  0.00  0.00    +0.000 C 
ATOM     22  O   UNL     1       6.082   6.298  15.606  0.00  0.00    +0.000 OA
ATOM     23  O   UNL     1       7.078   4.396  16.927  0.00  0.00    +0.000 OA
ENDBRANCH  18  20
ENDBRANCH   6  18
TORSDOF 4
ENDMDL
