MODEL 1
REMARK VINA RESULT:      -8.3      0.000      0.000
REMARK  Name = 
REMARK  9 active torsions:
REMARK  status: ('A' for Active; 'I' for Inactive)
REMARK    1  A    between atoms: C_1  and  O_2
REMARK    2  A    between atoms: O_2  and  C_3
REMARK    3  A    between atoms: C_6  and  C_7
REMARK    4  A    between atoms: C_9  and  C_10
REMARK    5  A    between atoms: C_10  and  O_11
REMARK    6  A    between atoms: O_11  and  C_12
REMARK    7  A    between atoms: C_14  and  C_15
REMARK    8  A    between atoms: C_18  and  C_19
REMARK    9  A    between atoms: N_22  and  C_23
REMARK                            x       y       z     vdW  Elec       q    Type
REMARK                         _______ _______ _______ _____ _____    ______ ____
ROOT
ATOM      1  C   UNL     1       3.924   4.653  19.377  0.00  0.00    +0.000 A 
ATOM      2  N   UNL     1       4.337   3.386  19.158  0.00  0.00    +0.000 NA
ATOM      3  C   UNL     1       3.449   2.558  18.580  0.00  0.00    +0.000 A 
ATOM      4  C   UNL     1       3.872   1.150  18.300  0.00  0.00    +0.000 C 
ATOM      5  N   UNL     1       2.197   2.902  18.227  0.00  0.00    +0.000 NA
ATOM      6  C   UNL     1       1.837   4.180  18.465  0.00  0.00    +0.000 A 
ATOM      7  C   UNL     1       2.665   5.123  19.041  0.00  0.00    +0.000 A 
ENDROOT
BRANCH   7   8
ATOM      8  C   UNL     1       2.225   6.513  19.207  0.00  0.00    +0.000 A 
ATOM      9  C   UNL     1       1.686   7.001  20.460  0.00  0.00    +0.000 A 
ATOM     10  C   UNL     1       1.332   8.280  20.601  0.00  0.00    +0.000 A 
ATOM     11  N   UNL     1       1.461   9.172  19.554  0.00  0.00    +0.000 N 
ATOM     12  C   UNL     1       1.084  10.562  19.735  0.00  0.00    +0.000 C 
ATOM     13  C   UNL     1       1.943   8.786  18.304  0.00  0.00    +0.000 A 
ATOM     14  O   UNL     1       2.067   9.541  17.342  0.00  0.00    +0.000 OA
ATOM     15  C   UNL     1       2.342   7.358  18.168  0.00  0.00    +0.000 A 
ENDBRANCH   7   8
BRANCH   1  16
ATOM     16  O   UNL     1       4.800   5.557  19.955  0.00  0.00    +0.000 OA
BRANCH  16  17
ATOM     17  C   UNL     1       6.124   5.496  19.427  0.00  0.00    +0.000 C 
BRANCH  17  20
ATOM     18  C   UNL     1       7.228   5.406  17.071  0.00  0.00    +0.000 C 
ATOM     19  C   UNL     1       6.937   6.863  17.346  0.00  0.00    +0.000 C 
ATOM     20  C   UNL     1       6.062   5.798  17.957  0.00  0.00    +0.000 C 
BRANCH  18  24
ATOM     21  C   UNL     1       6.392   3.955  13.125  0.00  0.00    +0.000 A 
ATOM     22  C   UNL     1       5.706   3.427  14.208  0.00  0.00    +0.000 A 
ATOM     23  C   UNL     1       6.019   3.858  15.498  0.00  0.00    +0.000 A 
ATOM     24  C   UNL     1       7.015   4.817  15.700  0.00  0.00    +0.000 A 
ATOM     25  N   UNL     1       7.716   5.313  14.651  0.00  0.00    +0.000 NA
ATOM     26  C   UNL     1       7.393   4.874  13.406  0.00  0.00    +0.000 A 
BRANCH  21  28
ATOM     27  C   UNL     1       5.502   2.437  11.538  0.00  0.00    +0.000 C 
ATOM     28  O   UNL     1       6.165   3.668  11.810  0.00  0.00    +0.000 OA
ENDBRANCH  21  28
ENDBRANCH  18  24
ENDBRANCH  17  20
ENDBRANCH  16  17
ENDBRANCH   1  16
TORSDOF 6
ENDMDL
MODEL 2
REMARK VINA RESULT:      -7.6      2.346      8.216
REMARK  Name = 
REMARK  9 active torsions:
REMARK  status: ('A' for Active; 'I' for Inactive)
REMARK    1  A    between atoms: C_1  and  O_2
REMARK    2  A    between atoms: O_2  and  C_3
REMARK    3  A    between atoms: C_6  and  C_7
REMARK    4  A    between atoms: C_9  and  C_10
REMARK    5  A    between atoms: C_10  and  O_11
REMARK    6  A    between atoms: O_11  and  C_12
REMARK    7  A    between atoms: C_14  and  C_15
REMARK    8  A    between atoms: C_18  and  C_19
REMARK    9  A    between atoms: N_22  and  C_23
REMARK                            x       y       z     vdW  Elec       q    Type
REMARK                         _______ _______ _______ _____ _____    ______ ____
ROOT
ATOM      1  C   UNL     1       3.429   4.801  19.269  0.00  0.00    +0.000 A 
ATOM      2  N   UNL     1       2.626   4.493  20.310  0.00  0.00    +0.000 NA
ATOM      3  C   UNL     1       2.462   3.184  20.573  0.00  0.00    +0.000 A 
ATOM      4  C   UNL     1       1.595   2.799  21.731  0.00  0.00    +0.000 C 
ATOM      5  N   UNL     1       3.026   2.185  19.872  0.00  0.00    +0.000 NA
ATOM      6  C   UNL     1       3.822   2.548  18.845  0.00  0.00    +0.000 A 
ATOM      7  C   UNL     1       4.074   3.857  18.487  0.00  0.00    +0.000 A 
ENDROOT
BRANCH   7   8
ATOM      8  C   UNL     1       5.006   4.176  17.399  0.00  0.00    +0.000 A 
ATOM      9  C   UNL     1       6.368   4.599  17.657  0.00  0.00    +0.000 A 
ATOM     10  C   UNL     1       7.211   4.842  16.651  0.00  0.00    +0.000 A 
ATOM     11  N   UNL     1       6.807   4.706  15.337  0.00  0.00    +0.000 N 
ATOM     12  C   UNL     1       7.746   4.960  14.260  0.00  0.00    +0.000 C 
ATOM     13  C   UNL     1       5.509   4.331  14.994  0.00  0.00    +0.000 A 
ATOM     14  O   UNL     1       5.102   4.205  13.841  0.00  0.00    +0.000 OA
ATOM     15  C   UNL     1       4.585   4.054  16.128  0.00  0.00    +0.000 A 
ENDBRANCH   7   8
BRANCH   1  16
ATOM     16  O   UNL     1       3.649   6.133  18.958  0.00  0.00    +0.000 OA
BRANCH  16  17
ATOM     17  C   UNL     1       2.553   6.759  18.292  0.00  0.00    +0.000 C 
BRANCH  17  20
ATOM     18  C   UNL     1       1.035   8.776  18.926  0.00  0.00    +0.000 C 
ATOM     19  C   UNL     1       2.025   9.296  17.910  0.00  0.00    +0.000 C 
ATOM     20  C   UNL     1       2.415   8.158  18.820  0.00  0.00    +0.000 C 
BRANCH  18  24
ATOM     21  C   UNL     1      -0.414  11.143  22.193  0.00  0.00    +0.000 A 
ATOM     22  C   UNL     1       0.049  11.770  21.046  0.00  0.00    +0.000 A 
ATOM     23  C   UNL     1       0.574  11.002  20.006  0.00  0.00    +0.000 A 
ATOM     24  C   UNL     1       0.632   9.610  20.116  0.00  0.00    +0.000 A 
ATOM     25  N   UNL     1       0.217   8.990  21.247  0.00  0.00    +0.000 NA
ATOM     26  C   UNL     1      -0.287   9.762  22.246  0.00  0.00    +0.000 A 
BRANCH  21  28
ATOM     27  C   UNL     1      -2.401  11.960  23.191  0.00  0.00    +0.000 C 
ATOM     28  O   UNL     1      -0.994  11.753  23.267  0.00  0.00    +0.000 OA
ENDBRANCH  21  28
ENDBRANCH  18  24
ENDBRANCH  17  20
ENDBRANCH  16  17
ENDBRANCH   1  16
TORSDOF 6
ENDMDL
MODEL 3
REMARK VINA RESULT:      -7.6      0.969      1.332
REMARK  Name = 
REMARK  9 active torsions:
REMARK  status: ('A' for Active; 'I' for Inactive)
REMARK    1  A    between atoms: C_1  and  O_2
REMARK    2  A    between atoms: O_2  and  C_3
REMARK    3  A    between atoms: C_6  and  C_7
REMARK    4  A    between atoms: C_9  and  C_10
REMARK    5  A    between atoms: C_10  and  O_11
REMARK    6  A    between atoms: O_11  and  C_12
REMARK    7  A    between atoms: C_14  and  C_15
REMARK    8  A    between atoms: C_18  and  C_19
REMARK    9  A    between atoms: N_22  and  C_23
REMARK                            x       y       z     vdW  Elec       q    Type
REMARK                         _______ _______ _______ _____ _____    ______ ____
ROOT
ATOM      1  C   UNL     1       3.949   4.615  19.376  0.00  0.00    +0.000 A 
ATOM      2  N   UNL     1       4.340   3.345  19.136  0.00  0.00    +0.000 NA
ATOM      3  C   UNL     1       3.441   2.545  18.533  0.00  0.00    +0.000 A 
ATOM      4  C   UNL     1       3.840   1.135  18.230  0.00  0.00    +0.000 C 
ATOM      5  N   UNL     1       2.200   2.920  18.175  0.00  0.00    +0.000 NA
ATOM      6  C   UNL     1       1.862   4.200  18.435  0.00  0.00    +0.000 A 
ATOM      7  C   UNL     1       2.702   5.115  19.037  0.00  0.00    +0.000 A 
ENDROOT
BRANCH   7   8
ATOM      8  C   UNL     1       2.287   6.510  19.226  0.00  0.00    +0.000 A 
ATOM      9  C   UNL     1       2.343   7.477  18.148  0.00  0.00    +0.000 A 
ATOM     10  C   UNL     1       1.920   8.730  18.330  0.00  0.00    +0.000 A 
ATOM     11  N   UNL     1       1.426   9.141  19.554  0.00  0.00    +0.000 N 
ATOM     12  C   UNL     1       0.957  10.504  19.724  0.00  0.00    +0.000 C 
ATOM     13  C   UNL     1       1.361   8.288  20.654  0.00  0.00    +0.000 A 
ATOM     14  O   UNL     1       0.938   8.612  21.761  0.00  0.00    +0.000 OA
ATOM     15  C   UNL     1       1.828   6.892  20.429  0.00  0.00    +0.000 A 
ENDBRANCH   7   8
BRANCH   1  16
ATOM     16  O   UNL     1       4.836   5.490  19.980  0.00  0.00    +0.000 OA
BRANCH  16  17
ATOM     17  C   UNL     1       6.081   5.615  19.294  0.00  0.00    +0.000 C 
BRANCH  17  20
ATOM     18  C   UNL     1       6.947   5.683  16.840  0.00  0.00    +0.000 C 
ATOM     19  C   UNL     1       6.239   6.997  17.075  0.00  0.00    +0.000 C 
ATOM     20  C   UNL     1       5.799   5.766  17.826  0.00  0.00    +0.000 C 
BRANCH  18  24
ATOM     21  C   UNL     1       6.366   3.839  13.015  0.00  0.00    +0.000 A 
ATOM     22  C   UNL     1       5.508   3.531  14.060  0.00  0.00    +0.000 A 
ATOM     23  C   UNL     1       5.733   4.087  15.320  0.00  0.00    +0.000 A 
ATOM     24  C   UNL     1       6.811   4.950  15.530  0.00  0.00    +0.000 A 
ATOM     25  N   UNL     1       7.676   5.228  14.524  0.00  0.00    +0.000 NA
ATOM     26  C   UNL     1       7.437   4.671  13.308  0.00  0.00    +0.000 A 
BRANCH  21  28
ATOM     27  C   UNL     1       7.244   2.503  11.266  0.00  0.00    +0.000 C 
ATOM     28  O   UNL     1       6.248   3.413  11.723  0.00  0.00    +0.000 OA
ENDBRANCH  21  28
ENDBRANCH  18  24
ENDBRANCH  17  20
ENDBRANCH  16  17
ENDBRANCH   1  16
TORSDOF 6
ENDMDL
MODEL 4
REMARK VINA RESULT:      -7.6      2.290      7.384
REMARK  Name = 
REMARK  9 active torsions:
REMARK  status: ('A' for Active; 'I' for Inactive)
REMARK    1  A    between atoms: C_1  and  O_2
REMARK    2  A    between atoms: O_2  and  C_3
REMARK    3  A    between atoms: C_6  and  C_7
REMARK    4  A    between atoms: C_9  and  C_10
REMARK    5  A    between atoms: C_10  and  O_11
REMARK    6  A    between atoms: O_11  and  C_12
REMARK    7  A    between atoms: C_14  and  C_15
REMARK    8  A    between atoms: C_18  and  C_19
REMARK    9  A    between atoms: N_22  and  C_23
REMARK                            x       y       z     vdW  Elec       q    Type
REMARK                         _______ _______ _______ _____ _____    ______ ____
ROOT
ATOM      1  C   UNL     1       5.345   5.509  16.606  0.00  0.00    +0.000 A 
ATOM      2  N   UNL     1       6.169   5.894  15.608  0.00  0.00    +0.000 NA
ATOM      3  C   UNL     1       6.616   4.923  14.792  0.00  0.00    +0.000 A 
ATOM      4  C   UNL     1       7.516   5.308  13.660  0.00  0.00    +0.000 C 
ATOM      5  N   UNL     1       6.310   3.618  14.913  0.00  0.00    +0.000 NA
ATOM      6  C   UNL     1       5.480   3.288  15.924  0.00  0.00    +0.000 A 
ATOM      7  C   UNL     1       4.949   4.198  16.817  0.00  0.00    +0.000 A 
ENDROOT
BRANCH   7   8
ATOM      8  C   UNL     1       3.999   3.773  17.852  0.00  0.00    +0.000 A 
ATOM      9  C   UNL     1       4.402   3.584  19.231  0.00  0.00    +0.000 A 
ATOM     10  C   UNL     1       3.512   3.239  20.163  0.00  0.00    +0.000 A 
ATOM     11  N   UNL     1       2.183   3.043  19.837  0.00  0.00    +0.000 N 
ATOM     12  C   UNL     1       1.230   2.683  20.871  0.00  0.00    +0.000 C 
ATOM     13  C   UNL     1       1.710   3.174  18.533  0.00  0.00    +0.000 A 
ATOM     14  O   UNL     1       0.541   3.002  18.195  0.00  0.00    +0.000 OA
ATOM     15  C   UNL     1       2.716   3.569  17.508  0.00  0.00    +0.000 A 
ENDBRANCH   7   8
BRANCH   1  16
ATOM     16  O   UNL     1       4.840   6.466  17.470  0.00  0.00    +0.000 OA
BRANCH  16  17
ATOM     17  C   UNL     1       3.911   7.362  16.860  0.00  0.00    +0.000 C 
BRANCH  17  20
ATOM     18  C   UNL     1       2.518   8.431  18.782  0.00  0.00    +0.000 C 
ATOM     19  C   UNL     1       2.687   6.974  19.143  0.00  0.00    +0.000 C 
ATOM     20  C   UNL     1       2.661   7.387  17.693  0.00  0.00    +0.000 C 
BRANCH  18  24
ATOM     21  C   UNL     1      -1.021  10.736  19.514  0.00  0.00    +0.000 A 
ATOM     22  C   UNL     1      -0.374  10.120  20.575  0.00  0.00    +0.000 A 
ATOM     23  C   UNL     1       0.744   9.321  20.328  0.00  0.00    +0.000 A 
ATOM     24  C   UNL     1       1.213   9.146  19.024  0.00  0.00    +0.000 A 
ATOM     25  N   UNL     1       0.567   9.715  17.977  0.00  0.00    +0.000 NA
ATOM     26  C   UNL     1      -0.522  10.484  18.244  0.00  0.00    +0.000 A 
BRANCH  21  28
ATOM     27  C   UNL     1      -2.971  11.600  18.483  0.00  0.00    +0.000 C 
ATOM     28  O   UNL     1      -2.092  11.578  19.603  0.00  0.00    +0.000 OA
ENDBRANCH  21  28
ENDBRANCH  18  24
ENDBRANCH  17  20
ENDBRANCH  16  17
ENDBRANCH   1  16
TORSDOF 6
ENDMDL
MODEL 5
REMARK VINA RESULT:      -7.5      2.483      8.162
REMARK  Name = 
REMARK  9 active torsions:
REMARK  status: ('A' for Active; 'I' for Inactive)
REMARK    1  A    between atoms: C_1  and  O_2
REMARK    2  A    between atoms: O_2  and  C_3
REMARK    3  A    between atoms: C_6  and  C_7
REMARK    4  A    between atoms: C_9  and  C_10
REMARK    5  A    between atoms: C_10  and  O_11
REMARK    6  A    between atoms: O_11  and  C_12
REMARK    7  A    between atoms: C_14  and  C_15
REMARK    8  A    between atoms: C_18  and  C_19
REMARK    9  A    between atoms: N_22  and  C_23
REMARK                            x       y       z     vdW  Elec       q    Type
REMARK                         _______ _______ _______ _____ _____    ______ ____
ROOT
ATOM      1  C   UNL     1       3.195   4.743  19.409  0.00  0.00    +0.000 A 
ATOM      2  N   UNL     1       2.375   4.467  20.446  0.00  0.00    +0.000 NA
ATOM      3  C   UNL     1       2.105   3.167  20.667  0.00  0.00    +0.000 A 
ATOM      4  C   UNL     1       1.217   2.815  21.818  0.00  0.00    +0.000 C 
ATOM      5  N   UNL     1       2.581   2.149  19.927  0.00  0.00    +0.000 NA
ATOM      6  C   UNL     1       3.398   2.480  18.906  0.00  0.00    +0.000 A 
ATOM      7  C   UNL     1       3.755   3.776  18.590  0.00  0.00    +0.000 A 
ENDROOT
BRANCH   7   8
ATOM      8  C   UNL     1       4.704   4.054  17.505  0.00  0.00    +0.000 A 
ATOM      9  C   UNL     1       4.269   4.231  16.135  0.00  0.00    +0.000 A 
ATOM     10  C   UNL     1       5.144   4.525  15.171  0.00  0.00    +0.000 A 
ATOM     11  N   UNL     1       6.490   4.660  15.452  0.00  0.00    +0.000 N 
ATOM     12  C   UNL     1       7.421   4.996  14.391  0.00  0.00    +0.000 C 
ATOM     13  C   UNL     1       7.003   4.480  16.736  0.00  0.00    +0.000 A 
ATOM     14  O   UNL     1       8.192   4.581  17.031  0.00  0.00    +0.000 OA
ATOM     15  C   UNL     1       6.011   4.162  17.799  0.00  0.00    +0.000 A 
ENDBRANCH   7   8
BRANCH   1  16
ATOM     16  O   UNL     1       3.522   6.062  19.142  0.00  0.00    +0.000 OA
BRANCH  16  17
ATOM     17  C   UNL     1       2.571   6.738  18.321  0.00  0.00    +0.000 C 
BRANCH  17  20
ATOM     18  C   UNL     1       1.008   8.770  18.775  0.00  0.00    +0.000 C 
ATOM     19  C   UNL     1       2.155   9.296  17.944  0.00  0.00    +0.000 C 
ATOM     20  C   UNL     1       2.375   8.124  18.867  0.00  0.00    +0.000 C 
BRANCH  18  24
ATOM     21  C   UNL     1      -0.310  11.137  22.096  0.00  0.00    +0.000 A 
ATOM     22  C   UNL     1      -0.074   9.782  22.272  0.00  0.00    +0.000 A 
ATOM     23  C   UNL     1       0.298   9.001  21.178  0.00  0.00    +0.000 A 
ATOM     24  C   UNL     1       0.437   9.577  19.913  0.00  0.00    +0.000 A 
ATOM     25  N   UNL     1       0.173  10.893  19.722  0.00  0.00    +0.000 NA
ATOM     26  C   UNL     1      -0.191  11.631  20.804  0.00  0.00    +0.000 A 
BRANCH  21  28
ATOM     27  C   UNL     1      -1.991  12.460  23.114  0.00  0.00    +0.000 C 
ATOM     28  O   UNL     1      -0.633  12.033  23.074  0.00  0.00    +0.000 OA
ENDBRANCH  21  28
ENDBRANCH  18  24
ENDBRANCH  17  20
ENDBRANCH  16  17
ENDBRANCH   1  16
TORSDOF 6
ENDMDL
MODEL 6
REMARK VINA RESULT:      -7.5      2.432      8.216
REMARK  Name = 
REMARK  9 active torsions:
REMARK  status: ('A' for Active; 'I' for Inactive)
REMARK    1  A    between atoms: C_1  and  O_2
REMARK    2  A    between atoms: O_2  and  C_3
REMARK    3  A    between atoms: C_6  and  C_7
REMARK    4  A    between atoms: C_9  and  C_10
REMARK    5  A    between atoms: C_10  and  O_11
REMARK    6  A    between atoms: O_11  and  C_12
REMARK    7  A    between atoms: C_14  and  C_15
REMARK    8  A    between atoms: C_18  and  C_19
REMARK    9  A    between atoms: N_22  and  C_23
REMARK                            x       y       z     vdW  Elec       q    Type
REMARK                         _______ _______ _______ _____ _____    ______ ____
ROOT
ATOM      1  C   UNL     1       3.423   4.914  19.093  0.00  0.00    +0.000 A 
ATOM      2  N   UNL     1       2.641   4.617  20.154  0.00  0.00    +0.000 NA
ATOM      3  C   UNL     1       2.485   3.311  20.436  0.00  0.00    +0.000 A 
ATOM      4  C   UNL     1       1.643   2.939  21.616  0.00  0.00    +0.000 C 
ATOM      5  N   UNL     1       3.037   2.304  19.735  0.00  0.00    +0.000 NA
ATOM      6  C   UNL     1       3.811   2.656  18.688  0.00  0.00    +0.000 A 
ATOM      7  C   UNL     1       4.053   3.961  18.309  0.00  0.00    +0.000 A 
ENDROOT
BRANCH   7   8
ATOM      8  C   UNL     1       4.962   4.268  17.198  0.00  0.00    +0.000 A 
ATOM      9  C   UNL     1       4.845   3.613  15.911  0.00  0.00    +0.000 A 
ATOM     10  C   UNL     1       5.656   3.939  14.902  0.00  0.00    +0.000 A 
ATOM     11  N   UNL     1       6.634   4.902  15.059  0.00  0.00    +0.000 N 
ATOM     12  C   UNL     1       7.493   5.250  13.943  0.00  0.00    +0.000 C 
ATOM     13  C   UNL     1       6.838   5.563  16.269  0.00  0.00    +0.000 A 
ATOM     14  O   UNL     1       7.700   6.419  16.458  0.00  0.00    +0.000 OA
ATOM     15  C   UNL     1       5.919   5.194  17.381  0.00  0.00    +0.000 A 
ENDBRANCH   7   8
BRANCH   1  16
ATOM     16  O   UNL     1       3.634   6.242  18.762  0.00  0.00    +0.000 OA
BRANCH  16  17
ATOM     17  C   UNL     1       2.514   6.865  18.134  0.00  0.00    +0.000 C 
BRANCH  17  20
ATOM     18  C   UNL     1       0.985   8.855  18.825  0.00  0.00    +0.000 C 
ATOM     19  C   UNL     1       1.963   9.406  17.814  0.00  0.00    +0.000 C 
ATOM     20  C   UNL     1       2.368   8.251  18.695  0.00  0.00    +0.000 C 
BRANCH  18  24
ATOM     21  C   UNL     1      -0.464  11.111  22.169  0.00  0.00    +0.000 A 
ATOM     22  C   UNL     1      -0.113  11.769  21.000  0.00  0.00    +0.000 A 
ATOM     23  C   UNL     1       0.413  11.041  19.932  0.00  0.00    +0.000 A 
ATOM     24  C   UNL     1       0.583   9.659  20.036  0.00  0.00    +0.000 A 
ATOM     25  N   UNL     1       0.278   9.011  21.187  0.00  0.00    +0.000 NA
ATOM     26  C   UNL     1      -0.229   9.744  22.213  0.00  0.00    +0.000 A 
BRANCH  21  28
ATOM     27  C   UNL     1      -2.310  12.275  23.091  0.00  0.00    +0.000 C 
ATOM     28  O   UNL     1      -1.031  11.677  23.275  0.00  0.00    +0.000 OA
ENDBRANCH  21  28
ENDBRANCH  18  24
ENDBRANCH  17  20
ENDBRANCH  16  17
ENDBRANCH   1  16
TORSDOF 6
ENDMDL
MODEL 7
REMARK VINA RESULT:      -7.4      2.251      8.188
REMARK  Name = 
REMARK  9 active torsions:
REMARK  status: ('A' for Active; 'I' for Inactive)
REMARK    1  A    between atoms: C_1  and  O_2
REMARK    2  A    between atoms: O_2  and  C_3
REMARK    3  A    between atoms: C_6  and  C_7
REMARK    4  A    between atoms: C_9  and  C_10
REMARK    5  A    between atoms: C_10  and  O_11
REMARK    6  A    between atoms: O_11  and  C_12
REMARK    7  A    between atoms: C_14  and  C_15
REMARK    8  A    between atoms: C_18  and  C_19
REMARK    9  A    between atoms: N_22  and  C_23
REMARK                            x       y       z     vdW  Elec       q    Type
REMARK                         _______ _______ _______ _____ _____    ______ ____
ROOT
ATOM      1  C   UNL     1       3.516   4.993  19.082  0.00  0.00    +0.000 A 
ATOM      2  N   UNL     1       2.773   4.709  20.174  0.00  0.00    +0.000 NA
ATOM      3  C   UNL     1       2.762   3.424  20.572  0.00  0.00    +0.000 A 
ATOM      4  C   UNL     1       1.968   3.067  21.790  0.00  0.00    +0.000 C 
ATOM      5  N   UNL     1       3.421   2.425  19.957  0.00  0.00    +0.000 NA
ATOM      6  C   UNL     1       4.150   2.764  18.875  0.00  0.00    +0.000 A 
ATOM      7  C   UNL     1       4.247   4.050  18.379  0.00  0.00    +0.000 A 
ENDROOT
BRANCH   7   8
ATOM      8  C   UNL     1       5.115   4.354  17.236  0.00  0.00    +0.000 A 
ATOM      9  C   UNL     1       6.437   4.924  17.409  0.00  0.00    +0.000 A 
ATOM     10  C   UNL     1       7.226   5.152  16.357  0.00  0.00    +0.000 A 
ATOM     11  N   UNL     1       6.802   4.861  15.074  0.00  0.00    +0.000 N 
ATOM     12  C   UNL     1       7.684   5.104  13.948  0.00  0.00    +0.000 C 
ATOM     13  C   UNL     1       5.538   4.338  14.810  0.00  0.00    +0.000 A 
ATOM     14  O   UNL     1       5.115   4.072  13.688  0.00  0.00    +0.000 OA
ATOM     15  C   UNL     1       4.674   4.080  15.996  0.00  0.00    +0.000 A 
ENDBRANCH   7   8
BRANCH   1  16
ATOM     16  O   UNL     1       3.579   6.302  18.632  0.00  0.00    +0.000 OA
BRANCH  16  17
ATOM     17  C   UNL     1       2.310   6.853  18.282  0.00  0.00    +0.000 C 
BRANCH  17  20
ATOM     18  C   UNL     1       1.010   9.094  18.539  0.00  0.00    +0.000 C 
ATOM     19  C   UNL     1       2.227   9.405  17.699  0.00  0.00    +0.000 C 
ATOM     20  C   UNL     1       2.284   8.292  18.714  0.00  0.00    +0.000 C 
BRANCH  18  24
ATOM     21  C   UNL     1      -0.088  11.754  21.715  0.00  0.00    +0.000 A 
ATOM     22  C   UNL     1      -0.497  10.430  21.759  0.00  0.00    +0.000 A 
ATOM     23  C   UNL     1      -0.190   9.579  20.697  0.00  0.00    +0.000 A 
ATOM     24  C   UNL     1       0.529  10.054  19.597  0.00  0.00    +0.000 A 
ATOM     25  N   UNL     1       0.902  11.355  19.527  0.00  0.00    +0.000 NA
ATOM     26  C   UNL     1       0.586  12.163  20.573  0.00  0.00    +0.000 A 
BRANCH  21  28
ATOM     27  C   UNL     1      -1.598  12.819  23.198  0.00  0.00    +0.000 C 
ATOM     28  O   UNL     1      -0.273  12.688  22.693  0.00  0.00    +0.000 OA
ENDBRANCH  21  28
ENDBRANCH  18  24
ENDBRANCH  17  20
ENDBRANCH  16  17
ENDBRANCH   1  16
TORSDOF 6
ENDMDL
MODEL 8
REMARK VINA RESULT:      -7.3      0.724      1.014
REMARK  Name = 
REMARK  9 active torsions:
REMARK  status: ('A' for Active; 'I' for Inactive)
REMARK    1  A    between atoms: C_1  and  O_2
REMARK    2  A    between atoms: O_2  and  C_3
REMARK    3  A    between atoms: C_6  and  C_7
REMARK    4  A    between atoms: C_9  and  C_10
REMARK    5  A    between atoms: C_10  and  O_11
REMARK    6  A    between atoms: O_11  and  C_12
REMARK    7  A    between atoms: C_14  and  C_15
REMARK    8  A    between atoms: C_18  and  C_19
REMARK    9  A    between atoms: N_22  and  C_23
REMARK                            x       y       z     vdW  Elec       q    Type
REMARK                         _______ _______ _______ _____ _____    ______ ____
ROOT
ATOM      1  C   UNL     1       3.937   4.600  19.314  0.00  0.00    +0.000 A 
ATOM      2  N   UNL     1       4.333   3.326  19.103  0.00  0.00    +0.000 NA
ATOM      3  C   UNL     1       3.402   2.479  18.628  0.00  0.00    +0.000 A 
ATOM      4  C   UNL     1       3.804   1.063  18.361  0.00  0.00    +0.000 C 
ATOM      5  N   UNL     1       2.125   2.813  18.368  0.00  0.00    +0.000 NA
ATOM      6  C   UNL     1       1.782   4.098  18.592  0.00  0.00    +0.000 A 
ATOM      7  C   UNL     1       2.653   5.059  19.067  0.00  0.00    +0.000 A 
ENDROOT
BRANCH   7   8
ATOM      8  C   UNL     1       2.225   6.454  19.223  0.00  0.00    +0.000 A 
ATOM      9  C   UNL     1       1.707   6.960  20.478  0.00  0.00    +0.000 A 
ATOM     10  C   UNL     1       1.364   8.243  20.608  0.00  0.00    +0.000 A 
ATOM     11  N   UNL     1       1.485   9.122  19.549  0.00  0.00    +0.000 N 
ATOM     12  C   UNL     1       1.121  10.516  19.719  0.00  0.00    +0.000 C 
ATOM     13  C   UNL     1       1.947   8.718  18.297  0.00  0.00    +0.000 A 
ATOM     14  O   UNL     1       2.063   9.461  17.325  0.00  0.00    +0.000 OA
ATOM     15  C   UNL     1       2.334   7.286  18.173  0.00  0.00    +0.000 A 
ENDBRANCH   7   8
BRANCH   1  16
ATOM     16  O   UNL     1       4.855   5.521  19.788  0.00  0.00    +0.000 OA
BRANCH  16  17
ATOM     17  C   UNL     1       6.071   5.560  19.043  0.00  0.00    +0.000 C 
BRANCH  17  20
ATOM     18  C   UNL     1       6.811   5.669  16.549  0.00  0.00    +0.000 C 
ATOM     19  C   UNL     1       6.295   7.045  16.897  0.00  0.00    +0.000 C 
ATOM     20  C   UNL     1       5.737   5.836  17.604  0.00  0.00    +0.000 C 
BRANCH  18  24
ATOM     21  C   UNL     1       6.115   3.619  12.850  0.00  0.00    +0.000 A 
ATOM     22  C   UNL     1       7.268   4.372  13.008  0.00  0.00    +0.000 A 
ATOM     23  C   UNL     1       7.466   5.087  14.191  0.00  0.00    +0.000 A 
ATOM     24  C   UNL     1       6.513   5.042  15.211  0.00  0.00    +0.000 A 
ATOM     25  N   UNL     1       5.366   4.338  15.052  0.00  0.00    +0.000 NA
ATOM     26  C   UNL     1       5.196   3.654  13.890  0.00  0.00    +0.000 A 
BRANCH  21  28
ATOM     27  C   UNL     1       6.888   2.132  11.176  0.00  0.00    +0.000 C 
ATOM     28  O   UNL     1       5.805   2.835  11.776  0.00  0.00    +0.000 OA
ENDBRANCH  21  28
ENDBRANCH  18  24
ENDBRANCH  17  20
ENDBRANCH  16  17
ENDBRANCH   1  16
TORSDOF 6
ENDMDL
MODEL 9
REMARK VINA RESULT:      -7.3      2.310      7.667
REMARK  Name = 
REMARK  9 active torsions:
REMARK  status: ('A' for Active; 'I' for Inactive)
REMARK    1  A    between atoms: C_1  and  O_2
REMARK    2  A    between atoms: O_2  and  C_3
REMARK    3  A    between atoms: C_6  and  C_7
REMARK    4  A    between atoms: C_9  and  C_10
REMARK    5  A    between atoms: C_10  and  O_11
REMARK    6  A    between atoms: O_11  and  C_12
REMARK    7  A    between atoms: C_14  and  C_15
REMARK    8  A    between atoms: C_18  and  C_19
REMARK    9  A    between atoms: N_22  and  C_23
REMARK                            x       y       z     vdW  Elec       q    Type
REMARK                         _______ _______ _______ _____ _____    ______ ____
ROOT
ATOM      1  C   UNL     1       5.335   5.597  16.652  0.00  0.00    +0.000 A 
ATOM      2  N   UNL     1       6.152   5.979  15.646  0.00  0.00    +0.000 NA
ATOM      3  C   UNL     1       6.603   5.003  14.838  0.00  0.00    +0.000 A 
ATOM      4  C   UNL     1       7.495   5.384  13.698  0.00  0.00    +0.000 C 
ATOM      5  N   UNL     1       6.307   3.698  14.973  0.00  0.00    +0.000 NA
ATOM      6  C   UNL     1       5.485   3.371  15.991  0.00  0.00    +0.000 A 
ATOM      7  C   UNL     1       4.951   4.285  16.877  0.00  0.00    +0.000 A 
ENDROOT
BRANCH   7   8
ATOM      8  C   UNL     1       4.008   3.863  17.920  0.00  0.00    +0.000 A 
ATOM      9  C   UNL     1       4.376   3.841  19.321  0.00  0.00    +0.000 A 
ATOM     10  C   UNL     1       3.489   3.495  20.257  0.00  0.00    +0.000 A 
ATOM     11  N   UNL     1       2.199   3.139  19.914  0.00  0.00    +0.000 N 
ATOM     12  C   UNL     1       1.247   2.781  20.949  0.00  0.00    +0.000 C 
ATOM     13  C   UNL     1       1.764   3.103  18.590  0.00  0.00    +0.000 A 
ATOM     14  O   UNL     1       0.631   2.785  18.237  0.00  0.00    +0.000 OA
ATOM     15  C   UNL     1       2.764   3.502  17.561  0.00  0.00    +0.000 A 
ENDBRANCH   7   8
BRANCH   1  16
ATOM     16  O   UNL     1       4.826   6.559  17.508  0.00  0.00    +0.000 OA
BRANCH  16  17
ATOM     17  C   UNL     1       3.464   6.897  17.253  0.00  0.00    +0.000 C 
BRANCH  17  20
ATOM     18  C   UNL     1       1.643   8.461  18.262  0.00  0.00    +0.000 C 
ATOM     19  C   UNL     1       2.583   9.353  17.484  0.00  0.00    +0.000 C 
ATOM     20  C   UNL     1       3.102   8.080  18.105  0.00  0.00    +0.000 C 
BRANCH  18  24
ATOM     21  C   UNL     1       0.304   9.884  22.077  0.00  0.00    +0.000 A 
ATOM     22  C   UNL     1       1.077   8.736  22.008  0.00  0.00    +0.000 A 
ATOM     23  C   UNL     1       1.464   8.240  20.762  0.00  0.00    +0.000 A 
ATOM     24  C   UNL     1       1.079   8.897  19.591  0.00  0.00    +0.000 A 
ATOM     25  N   UNL     1       0.293   9.999  19.645  0.00  0.00    +0.000 NA
ATOM     26  C   UNL     1      -0.073  10.459  20.871  0.00  0.00    +0.000 A 
BRANCH  21  28
ATOM     27  C   UNL     1      -1.384  11.143  23.162  0.00  0.00    +0.000 C 
ATOM     28  O   UNL     1      -0.110  10.511  23.217  0.00  0.00    +0.000 OA
ENDBRANCH  21  28
ENDBRANCH  18  24
ENDBRANCH  17  20
ENDBRANCH  16  17
ENDBRANCH   1  16
TORSDOF 6
ENDMDL
