MODEL 1
REMARK VINA RESULT:      -7.2      0.000      0.000
REMARK  Name = 
REMARK  6 active torsions:
REMARK  status: ('A' for Active; 'I' for Inactive)
REMARK    1  A    between atoms: C_1  and  C_2
REMARK    2  A    between atoms: C_5  and  C_6
REMARK    3  A    between atoms: C_7  and  C_8
REMARK    4  A    between atoms: C_8  and  C_9
REMARK    5  A    between atoms: C_9  and  C_10
REMARK    6  A    between atoms: C_18  and  C_19
REMARK                            x       y       z     vdW  Elec       q    Type
REMARK                         _______ _______ _______ _____ _____    ______ ____
ROOT
ATOM      1  C   UNL     1       2.912   4.798  17.527  0.00  0.00    +0.000 C 
ATOM      2  O   UNL     1       1.997   5.379  18.110  0.00  0.00    +0.000 OA
ATOM      3  N   UNL     1       4.142   5.377  17.367  0.00  0.00    +0.000 N 
ATOM      4  C   UNL     1       4.645   6.602  17.994  0.00  0.00    +0.000 C 
ATOM      5  C   UNL     1       5.977   5.911  17.987  0.00  0.00    +0.000 C 
ATOM      6  C   UNL     1       7.244   6.708  17.766  0.00  0.00    +0.000 C 
ATOM      7  C   UNL     1       7.924   5.747  18.772  0.00  0.00    +0.000 C 
ATOM      8  C   UNL     1       6.515   5.413  19.319  0.00  0.00    +0.000 C 
ATOM      9  C   UNL     1       5.473   4.893  16.970  0.00  0.00    +0.000 C 
ENDROOT
BRANCH   9  10
ATOM     10  C   UNL     1       5.741   5.097  15.490  0.00  0.00    +0.000 C 
ATOM     11  C   UNL     1       7.007   4.700  14.783  0.00  0.00    +0.000 C 
ATOM     12  C   UNL     1       5.718   4.014  14.441  0.00  0.00    +0.000 C 
ENDBRANCH   9  10
BRANCH   1  13
ATOM     13  C   UNL     1       2.730   3.414  16.930  0.00  0.00    +0.000 C 
BRANCH  13  14
ATOM     14  C   UNL     1       3.348   2.331  17.819  0.00  0.00    +0.000 C 
BRANCH  14  21
ATOM     15  C   UNL     1       0.291   2.529  18.973  0.00  0.00    +0.000 C 
ATOM     16  C   UNL     1       1.559   2.480  19.736  0.00  0.00    +0.000 A 
ATOM     17  N   UNL     1       1.529   2.502  21.073  0.00  0.00    +0.000 NA
ATOM     18  O   UNL     1       2.843   2.421  21.480  0.00  0.00    +0.000 OA
ATOM     19  C   UNL     1       3.656   2.355  20.393  0.00  0.00    +0.000 A 
ATOM     20  C   UNL     1       5.099   2.242  20.679  0.00  0.00    +0.000 C 
ATOM     21  C   UNL     1       2.893   2.400  19.242  0.00  0.00    +0.000 A 
ENDBRANCH  14  21
ENDBRANCH  13  14
ENDBRANCH   1  13
TORSDOF 4
ENDMDL
MODEL 2
REMARK VINA RESULT:      -7.1      0.430      1.770
REMARK  Name = 
REMARK  6 active torsions:
REMARK  status: ('A' for Active; 'I' for Inactive)
REMARK    1  A    between atoms: C_1  and  C_2
REMARK    2  A    between atoms: C_5  and  C_6
REMARK    3  A    between atoms: C_7  and  C_8
REMARK    4  A    between atoms: C_8  and  C_9
REMARK    5  A    between atoms: C_9  and  C_10
REMARK    6  A    between atoms: C_18  and  C_19
REMARK                            x       y       z     vdW  Elec       q    Type
REMARK                         _______ _______ _______ _____ _____    ______ ____
ROOT
ATOM      1  C   UNL     1       2.934   4.749  17.510  0.00  0.00    +0.000 C 
ATOM      2  O   UNL     1       2.007   5.309  18.098  0.00  0.00    +0.000 OA
ATOM      3  N   UNL     1       4.148   5.359  17.342  0.00  0.00    +0.000 N 
ATOM      4  C   UNL     1       4.623   6.597  17.964  0.00  0.00    +0.000 C 
ATOM      5  C   UNL     1       5.973   5.940  17.951  0.00  0.00    +0.000 C 
ATOM      6  C   UNL     1       7.218   6.768  17.720  0.00  0.00    +0.000 C 
ATOM      7  C   UNL     1       7.928   5.826  18.725  0.00  0.00    +0.000 C 
ATOM      8  C   UNL     1       6.531   5.458  19.281  0.00  0.00    +0.000 C 
ATOM      9  C   UNL     1       5.488   4.907  16.939  0.00  0.00    +0.000 C 
ENDROOT
BRANCH   9  10
ATOM     10  C   UNL     1       5.743   5.115  15.457  0.00  0.00    +0.000 C 
ATOM     11  C   UNL     1       6.997   4.708  14.735  0.00  0.00    +0.000 C 
ATOM     12  C   UNL     1       5.698   4.036  14.404  0.00  0.00    +0.000 C 
ENDBRANCH   9  10
BRANCH   1  13
ATOM     13  C   UNL     1       2.783   3.360  16.917  0.00  0.00    +0.000 C 
BRANCH  13  14
ATOM     14  C   UNL     1       3.381   2.288  17.833  0.00  0.00    +0.000 C 
BRANCH  14  21
ATOM     15  C   UNL     1       5.052   2.303  20.649  0.00  0.00    +0.000 C 
ATOM     16  C   UNL     1       3.585   2.350  20.450  0.00  0.00    +0.000 A 
ATOM     17  N   UNL     1       2.776   2.423  21.513  0.00  0.00    +0.000 NA
ATOM     18  O   UNL     1       1.495   2.476  21.007  0.00  0.00    +0.000 OA
ATOM     19  C   UNL     1       1.537   2.431  19.650  0.00  0.00    +0.000 A 
ATOM     20  C   UNL     1       0.231   2.502  18.966  0.00  0.00    +0.000 C 
ATOM     21  C   UNL     1       2.850   2.338  19.230  0.00  0.00    +0.000 A 
ENDBRANCH  14  21
ENDBRANCH  13  14
ENDBRANCH   1  13
TORSDOF 4
ENDMDL
MODEL 3
REMARK VINA RESULT:      -7.1      2.592      6.013
REMARK  Name = 
REMARK  6 active torsions:
REMARK  status: ('A' for Active; 'I' for Inactive)
REMARK    1  A    between atoms: C_1  and  C_2
REMARK    2  A    between atoms: C_5  and  C_6
REMARK    3  A    between atoms: C_7  and  C_8
REMARK    4  A    between atoms: C_8  and  C_9
REMARK    5  A    between atoms: C_9  and  C_10
REMARK    6  A    between atoms: C_18  and  C_19
REMARK                            x       y       z     vdW  Elec       q    Type
REMARK                         _______ _______ _______ _____ _____    ______ ____
ROOT
ATOM      1  C   UNL     1       3.773   5.447  17.575  0.00  0.00    +0.000 C 
ATOM      2  O   UNL     1       3.919   4.860  16.502  0.00  0.00    +0.000 OA
ATOM      3  N   UNL     1       2.818   5.063  18.477  0.00  0.00    +0.000 N 
ATOM      4  C   UNL     1       1.997   3.850  18.453  0.00  0.00    +0.000 C 
ATOM      5  C   UNL     1       2.091   3.906  19.950  0.00  0.00    +0.000 C 
ATOM      6  C   UNL     1       0.919   3.467  20.801  0.00  0.00    +0.000 C 
ATOM      7  C   UNL     1       1.962   2.910  21.801  0.00  0.00    +0.000 C 
ATOM      8  C   UNL     1       2.981   2.882  20.636  0.00  0.00    +0.000 C 
ATOM      9  C   UNL     1       2.549   5.359  19.892  0.00  0.00    +0.000 C 
ENDROOT
BRANCH   9  10
ATOM     10  C   UNL     1       1.544   6.484  20.064  0.00  0.00    +0.000 C 
ATOM     11  C   UNL     1       1.629   7.561  21.109  0.00  0.00    +0.000 C 
ATOM     12  C   UNL     1       1.762   7.920  19.659  0.00  0.00    +0.000 C 
ENDBRANCH   9  10
BRANCH   1  13
ATOM     13  C   UNL     1       4.627   6.643  17.956  0.00  0.00    +0.000 C 
BRANCH  13  14
ATOM     14  C   UNL     1       5.779   6.851  16.970  0.00  0.00    +0.000 C 
BRANCH  14  21
ATOM     15  C   UNL     1       7.503   5.717  19.512  0.00  0.00    +0.000 C 
ATOM     16  C   UNL     1       7.528   5.255  18.105  0.00  0.00    +0.000 A 
ATOM     17  N   UNL     1       8.324   4.237  17.756  0.00  0.00    +0.000 NA
ATOM     18  O   UNL     1       8.106   4.033  16.411  0.00  0.00    +0.000 OA
ATOM     19  C   UNL     1       7.189   4.925  15.956  0.00  0.00    +0.000 A 
ATOM     20  C   UNL     1       6.838   4.811  14.527  0.00  0.00    +0.000 C 
ATOM     21  C   UNL     1       6.787   5.746  16.992  0.00  0.00    +0.000 A 
ENDBRANCH  14  21
ENDBRANCH  13  14
ENDBRANCH   1  13
TORSDOF 4
ENDMDL
MODEL 4
REMARK VINA RESULT:      -7.0      4.464      6.377
REMARK  Name = 
REMARK  6 active torsions:
REMARK  status: ('A' for Active; 'I' for Inactive)
REMARK    1  A    between atoms: C_1  and  C_2
REMARK    2  A    between atoms: C_5  and  C_6
REMARK    3  A    between atoms: C_7  and  C_8
REMARK    4  A    between atoms: C_8  and  C_9
REMARK    5  A    between atoms: C_9  and  C_10
REMARK    6  A    between atoms: C_18  and  C_19
REMARK                            x       y       z     vdW  Elec       q    Type
REMARK                         _______ _______ _______ _____ _____    ______ ____
ROOT
ATOM      1  C   UNL     1       2.502   7.775  18.599  0.00  0.00    +0.000 C 
ATOM      2  O   UNL     1       3.288   7.716  17.654  0.00  0.00    +0.000 OA
ATOM      3  N   UNL     1       1.772   8.905  18.854  0.00  0.00    +0.000 N 
ATOM      4  C   UNL     1       1.625  10.088  18.003  0.00  0.00    +0.000 C 
ATOM      5  C   UNL     1       0.232  10.161  18.559  0.00  0.00    +0.000 C 
ATOM      6  C   UNL     1      -0.416  11.506  18.808  0.00  0.00    +0.000 C 
ATOM      7  C   UNL     1      -1.749  10.850  18.369  0.00  0.00    +0.000 C 
ATOM      8  C   UNL     1      -0.913   9.773  17.636  0.00  0.00    +0.000 C 
ATOM      9  C   UNL     1       0.610   9.221  19.698  0.00  0.00    +0.000 C 
ENDROOT
BRANCH   9  10
ATOM     10  C   UNL     1       1.016   9.784  21.048  0.00  0.00    +0.000 C 
ATOM     11  C   UNL     1       0.084   9.986  22.211  0.00  0.00    +0.000 C 
ATOM     12  C   UNL     1       1.192   8.981  22.312  0.00  0.00    +0.000 C 
ENDBRANCH   9  10
BRANCH   1  13
ATOM     13  C   UNL     1       2.305   6.610  19.553  0.00  0.00    +0.000 C 
BRANCH  13  14
ATOM     14  C   UNL     1       2.165   5.284  18.801  0.00  0.00    +0.000 C 
BRANCH  14  21
ATOM     15  C   UNL     1       5.260   4.483  18.093  0.00  0.00    +0.000 C 
ATOM     16  C   UNL     1       4.346   3.845  19.068  0.00  0.00    +0.000 A 
ATOM     17  N   UNL     1       4.776   2.812  19.800  0.00  0.00    +0.000 NA
ATOM     18  O   UNL     1       3.721   2.464  20.615  0.00  0.00    +0.000 OA
ATOM     19  C   UNL     1       2.664   3.280  20.370  0.00  0.00    +0.000 A 
ATOM     20  C   UNL     1       1.461   3.037  21.190  0.00  0.00    +0.000 C 
ATOM     21  C   UNL     1       2.997   4.183  19.378  0.00  0.00    +0.000 A 
ENDBRANCH  14  21
ENDBRANCH  13  14
ENDBRANCH   1  13
TORSDOF 4
ENDMDL
MODEL 5
REMARK VINA RESULT:      -7.0      1.139      1.662
REMARK  Name = 
REMARK  6 active torsions:
REMARK  status: ('A' for Active; 'I' for Inactive)
REMARK    1  A    between atoms: C_1  and  C_2
REMARK    2  A    between atoms: C_5  and  C_6
REMARK    3  A    between atoms: C_7  and  C_8
REMARK    4  A    between atoms: C_8  and  C_9
REMARK    5  A    between atoms: C_9  and  C_10
REMARK    6  A    between atoms: C_18  and  C_19
REMARK                            x       y       z     vdW  Elec       q    Type
REMARK                         _______ _______ _______ _____ _____    ______ ____
ROOT
ATOM      1  C   UNL     1       2.675   5.289  17.733  0.00  0.00    +0.000 C 
ATOM      2  O   UNL     1       1.896   6.032  18.329  0.00  0.00    +0.000 OA
ATOM      3  N   UNL     1       3.971   5.657  17.490  0.00  0.00    +0.000 N 
ATOM      4  C   UNL     1       4.693   6.810  18.033  0.00  0.00    +0.000 C 
ATOM      5  C   UNL     1       5.898   5.915  17.999  0.00  0.00    +0.000 C 
ATOM      6  C   UNL     1       7.262   6.489  17.681  0.00  0.00    +0.000 C 
ATOM      7  C   UNL     1       7.833   5.473  18.701  0.00  0.00    +0.000 C 
ATOM      8  C   UNL     1       6.420   5.391  19.327  0.00  0.00    +0.000 C 
ATOM      9  C   UNL     1       5.186   4.950  17.056  0.00  0.00    +0.000 C 
ENDROOT
BRANCH   9  10
ATOM     10  C   UNL     1       5.404   5.048  15.557  0.00  0.00    +0.000 C 
ATOM     11  C   UNL     1       6.641   4.587  14.837  0.00  0.00    +0.000 C 
ATOM     12  C   UNL     1       5.335   3.896  14.588  0.00  0.00    +0.000 C 
ENDBRANCH   9  10
BRANCH   1  13
ATOM     13  C   UNL     1       2.246   3.928  17.213  0.00  0.00    +0.000 C 
BRANCH  13  14
ATOM     14  C   UNL     1       1.709   3.039  18.338  0.00  0.00    +0.000 C 
BRANCH  14  21
ATOM     15  C   UNL     1       4.384   1.212  17.863  0.00  0.00    +0.000 C 
ATOM     16  C   UNL     1       3.919   1.852  19.115  0.00  0.00    +0.000 A 
ATOM     17  N   UNL     1       4.642   1.721  20.233  0.00  0.00    +0.000 NA
ATOM     18  O   UNL     1       3.971   2.438  21.200  0.00  0.00    +0.000 OA
ATOM     19  C   UNL     1       2.851   2.991  20.666  0.00  0.00    +0.000 A 
ATOM     20  C   UNL     1       2.039   3.810  21.586  0.00  0.00    +0.000 C 
ATOM     21  C   UNL     1       2.754   2.643  19.332  0.00  0.00    +0.000 A 
ENDBRANCH  14  21
ENDBRANCH  13  14
ENDBRANCH   1  13
TORSDOF 4
ENDMDL
MODEL 6
REMARK VINA RESULT:      -7.0      4.488      6.290
REMARK  Name = 
REMARK  6 active torsions:
REMARK  status: ('A' for Active; 'I' for Inactive)
REMARK    1  A    between atoms: C_1  and  C_2
REMARK    2  A    between atoms: C_5  and  C_6
REMARK    3  A    between atoms: C_7  and  C_8
REMARK    4  A    between atoms: C_8  and  C_9
REMARK    5  A    between atoms: C_9  and  C_10
REMARK    6  A    between atoms: C_18  and  C_19
REMARK                            x       y       z     vdW  Elec       q    Type
REMARK                         _______ _______ _______ _____ _____    ______ ____
ROOT
ATOM      1  C   UNL     1       2.470   7.826  18.570  0.00  0.00    +0.000 C 
ATOM      2  O   UNL     1       3.250   7.784  17.619  0.00  0.00    +0.000 OA
ATOM      3  N   UNL     1       1.734   8.948  18.843  0.00  0.00    +0.000 N 
ATOM      4  C   UNL     1       1.571  10.140  18.007  0.00  0.00    +0.000 C 
ATOM      5  C   UNL     1       0.182  10.196  18.574  0.00  0.00    +0.000 C 
ATOM      6  C   UNL     1      -0.474  11.533  18.844  0.00  0.00    +0.000 C 
ATOM      7  C   UNL     1      -1.805  10.871  18.407  0.00  0.00    +0.000 C 
ATOM      8  C   UNL     1      -0.966   9.809  17.656  0.00  0.00    +0.000 C 
ATOM      9  C   UNL     1       0.576   9.245  19.700  0.00  0.00    +0.000 C 
ENDROOT
BRANCH   9  10
ATOM     10  C   UNL     1       0.988   9.796  21.053  0.00  0.00    +0.000 C 
ATOM     11  C   UNL     1       0.065   9.969  22.228  0.00  0.00    +0.000 C 
ATOM     12  C   UNL     1       1.188   8.978  22.304  0.00  0.00    +0.000 C 
ENDBRANCH   9  10
BRANCH   1  13
ATOM     13  C   UNL     1       2.290   6.649  19.512  0.00  0.00    +0.000 C 
BRANCH  13  14
ATOM     14  C   UNL     1       2.217   5.323  18.750  0.00  0.00    +0.000 C 
BRANCH  14  21
ATOM     15  C   UNL     1       1.497   3.094  21.038  0.00  0.00    +0.000 C 
ATOM     16  C   UNL     1       2.775   3.290  20.315  0.00  0.00    +0.000 A 
ATOM     17  N   UNL     1       3.808   2.479  20.568  0.00  0.00    +0.000 NA
ATOM     18  O   UNL     1       4.824   2.894  19.735  0.00  0.00    +0.000 OA
ATOM     19  C   UNL     1       4.403   3.949  18.990  0.00  0.00    +0.000 A 
ATOM     20  C   UNL     1       5.386   4.489  18.030  0.00  0.00    +0.000 C 
ATOM     21  C   UNL     1       3.099   4.259  19.323  0.00  0.00    +0.000 A 
ENDBRANCH  14  21
ENDBRANCH  13  14
ENDBRANCH   1  13
TORSDOF 4
ENDMDL
MODEL 7
REMARK VINA RESULT:      -7.0      4.562      6.514
REMARK  Name = 
REMARK  6 active torsions:
REMARK  status: ('A' for Active; 'I' for Inactive)
REMARK    1  A    between atoms: C_1  and  C_2
REMARK    2  A    between atoms: C_5  and  C_6
REMARK    3  A    between atoms: C_7  and  C_8
REMARK    4  A    between atoms: C_8  and  C_9
REMARK    5  A    between atoms: C_9  and  C_10
REMARK    6  A    between atoms: C_18  and  C_19
REMARK                            x       y       z     vdW  Elec       q    Type
REMARK                         _______ _______ _______ _____ _____    ______ ____
ROOT
ATOM      1  C   UNL     1       2.365   7.771  18.775  0.00  0.00    +0.000 C 
ATOM      2  O   UNL     1       3.165   7.658  17.846  0.00  0.00    +0.000 OA
ATOM      3  N   UNL     1       1.666   8.930  18.981  0.00  0.00    +0.000 N 
ATOM      4  C   UNL     1       1.568  10.089  18.090  0.00  0.00    +0.000 C 
ATOM      5  C   UNL     1       0.169  10.221  18.619  0.00  0.00    +0.000 C 
ATOM      6  C   UNL     1      -0.443  11.591  18.814  0.00  0.00    +0.000 C 
ATOM      7  C   UNL     1      -1.787  10.961  18.372  0.00  0.00    +0.000 C 
ATOM      8  C   UNL     1      -0.971   9.837  17.689  0.00  0.00    +0.000 C 
ATOM      9  C   UNL     1       0.500   9.307  19.794  0.00  0.00    +0.000 C 
ENDROOT
BRANCH   9  10
ATOM     10  C   UNL     1       0.900   9.900  21.132  0.00  0.00    +0.000 C 
ATOM     11  C   UNL     1      -0.031  10.103  22.296  0.00  0.00    +0.000 C 
ATOM     12  C   UNL     1       1.098   9.122  22.409  0.00  0.00    +0.000 C 
ENDBRANCH   9  10
BRANCH   1  13
ATOM     13  C   UNL     1       2.118   6.644  19.761  0.00  0.00    +0.000 C 
BRANCH  13  14
ATOM     14  C   UNL     1       3.214   5.576  19.683  0.00  0.00    +0.000 C 
BRANCH  14  21
ATOM     15  C   UNL     1       4.286   4.376  16.832  0.00  0.00    +0.000 C 
ATOM     16  C   UNL     1       3.257   3.814  17.736  0.00  0.00    +0.000 A 
ATOM     17  N   UNL     1       2.655   2.662  17.419  0.00  0.00    +0.000 NA
ATOM     18  O   UNL     1       1.783   2.398  18.452  0.00  0.00    +0.000 OA
ATOM     19  C   UNL     1       1.859   3.385  19.381  0.00  0.00    +0.000 A 
ATOM     20  C   UNL     1       0.991   3.223  20.563  0.00  0.00    +0.000 C 
ATOM     21  C   UNL     1       2.780   4.332  18.974  0.00  0.00    +0.000 A 
ENDBRANCH  14  21
ENDBRANCH  13  14
ENDBRANCH   1  13
TORSDOF 4
ENDMDL
MODEL 8
REMARK VINA RESULT:      -7.0      4.860      6.789
REMARK  Name = 
REMARK  6 active torsions:
REMARK  status: ('A' for Active; 'I' for Inactive)
REMARK    1  A    between atoms: C_1  and  C_2
REMARK    2  A    between atoms: C_5  and  C_6
REMARK    3  A    between atoms: C_7  and  C_8
REMARK    4  A    between atoms: C_8  and  C_9
REMARK    5  A    between atoms: C_9  and  C_10
REMARK    6  A    between atoms: C_18  and  C_19
REMARK                            x       y       z     vdW  Elec       q    Type
REMARK                         _______ _______ _______ _____ _____    ______ ____
ROOT
ATOM      1  C   UNL     1       2.156   8.120  18.939  0.00  0.00    +0.000 C 
ATOM      2  O   UNL     1       2.968   8.077  18.014  0.00  0.00    +0.000 OA
ATOM      3  N   UNL     1       1.414   9.242  19.189  0.00  0.00    +0.000 N 
ATOM      4  C   UNL     1       1.281  10.436  18.351  0.00  0.00    +0.000 C 
ATOM      5  C   UNL     1      -0.126  10.493  18.870  0.00  0.00    +0.000 C 
ATOM      6  C   UNL     1      -0.788  11.831  19.120  0.00  0.00    +0.000 C 
ATOM      7  C   UNL     1      -2.105  11.173  18.636  0.00  0.00    +0.000 C 
ATOM      8  C   UNL     1      -1.243  10.111  17.912  0.00  0.00    +0.000 C 
ATOM      9  C   UNL     1       0.227   9.540  20.006  0.00  0.00    +0.000 C 
ENDROOT
BRANCH   9  10
ATOM     10  C   UNL     1       0.594  10.087  21.374  0.00  0.00    +0.000 C 
ATOM     11  C   UNL     1      -0.388  10.375  22.476  0.00  0.00    +0.000 C 
ATOM     12  C   UNL     1       0.630   9.288  22.653  0.00  0.00    +0.000 C 
ENDBRANCH   9  10
BRANCH   1  13
ATOM     13  C   UNL     1       1.941   6.941  19.872  0.00  0.00    +0.000 C 
BRANCH  13  14
ATOM     14  C   UNL     1       3.071   5.913  19.751  0.00  0.00    +0.000 C 
BRANCH  14  21
ATOM     15  C   UNL     1       0.775   3.596  20.036  0.00  0.00    +0.000 C 
ATOM     16  C   UNL     1       1.751   3.793  18.940  0.00  0.00    +0.000 A 
ATOM     17  N   UNL     1       1.744   2.963  17.890  0.00  0.00    +0.000 NA
ATOM     18  O   UNL     1       2.735   3.416  17.046  0.00  0.00    +0.000 OA
ATOM     19  C   UNL     1       3.334   4.507  17.588  0.00  0.00    +0.000 A 
ATOM     20  C   UNL     1       4.408   5.116  16.780  0.00  0.00    +0.000 C 
ATOM     21  C   UNL     1       2.756   4.794  18.810  0.00  0.00    +0.000 A 
ENDBRANCH  14  21
ENDBRANCH  13  14
ENDBRANCH   1  13
TORSDOF 4
ENDMDL
MODEL 9
REMARK VINA RESULT:      -6.9      2.260      5.792
REMARK  Name = 
REMARK  6 active torsions:
REMARK  status: ('A' for Active; 'I' for Inactive)
REMARK    1  A    between atoms: C_1  and  C_2
REMARK    2  A    between atoms: C_5  and  C_6
REMARK    3  A    between atoms: C_7  and  C_8
REMARK    4  A    between atoms: C_8  and  C_9
REMARK    5  A    between atoms: C_9  and  C_10
REMARK    6  A    between atoms: C_18  and  C_19
REMARK                            x       y       z     vdW  Elec       q    Type
REMARK                         _______ _______ _______ _____ _____    ______ ____
ROOT
ATOM      1  C   UNL     1       3.596   5.105  17.573  0.00  0.00    +0.000 C 
ATOM      2  O   UNL     1       3.549   6.321  17.386  0.00  0.00    +0.000 OA
ATOM      3  N   UNL     1       3.459   4.567  18.825  0.00  0.00    +0.000 N 
ATOM      4  C   UNL     1       3.045   5.248  20.054  0.00  0.00    +0.000 C 
ATOM      5  C   UNL     1       2.398   3.942  20.412  0.00  0.00    +0.000 C 
ATOM      6  C   UNL     1       2.362   3.483  21.854  0.00  0.00    +0.000 C 
ATOM      7  C   UNL     1       0.964   2.893  21.543  0.00  0.00    +0.000 C 
ATOM      8  C   UNL     1       0.881   3.868  20.344  0.00  0.00    +0.000 C 
ATOM      9  C   UNL     1       3.219   3.215  19.352  0.00  0.00    +0.000 C 
ENDROOT
BRANCH   9  10
ATOM     10  C   UNL     1       4.507   2.510  19.736  0.00  0.00    +0.000 C 
ATOM     11  C   UNL     1       4.654   1.556  20.890  0.00  0.00    +0.000 C 
ATOM     12  C   UNL     1       4.814   1.055  19.485  0.00  0.00    +0.000 C 
ENDBRANCH   9  10
BRANCH   1  13
ATOM     13  C   UNL     1       3.828   4.127  16.435  0.00  0.00    +0.000 C 
BRANCH  13  14
ATOM     14  C   UNL     1       5.243   3.543  16.474  0.00  0.00    +0.000 C 
BRANCH  14  21
ATOM     15  C   UNL     1       6.134   3.756  13.330  0.00  0.00    +0.000 C 
ATOM     16  C   UNL     1       6.649   4.526  14.486  0.00  0.00    +0.000 A 
ATOM     17  N   UNL     1       7.591   5.456  14.294  0.00  0.00    +0.000 NA
ATOM     18  O   UNL     1       7.837   6.003  15.535  0.00  0.00    +0.000 OA
ATOM     19  C   UNL     1       7.050   5.402  16.464  0.00  0.00    +0.000 A 
ATOM     20  C   UNL     1       7.192   5.904  17.845  0.00  0.00    +0.000 C 
ATOM     21  C   UNL     1       6.272   4.436  15.857  0.00  0.00    +0.000 A 
ENDBRANCH  14  21
ENDBRANCH  13  14
ENDBRANCH   1  13
TORSDOF 4
ENDMDL
