MODEL 1
REMARK VINA RESULT:      -9.7      0.000      0.000
REMARK  Name = 
REMARK  4 active torsions:
REMARK  status: ('A' for Active; 'I' for Inactive)
REMARK    1  A    between atoms: C_1  and  C_2
REMARK    2  A    between atoms: C_5  and  N_6
REMARK    3  A    between atoms: N_9  and  C_10
REMARK    4  A    between atoms: C_13  and  C_14
REMARK                            x       y       z     vdW  Elec       q    Type
REMARK                         _______ _______ _______ _____ _____    ______ ____
ROOT
ATOM      1  N   UNL     1       2.307   6.821  20.630  0.00  0.00    +0.000 N 
ATOM      2  C   UNL     1       1.814   5.539  20.558  0.00  0.00    +0.000 C 
ATOM      3  O   UNL     1       0.867   5.158  19.879  0.00  0.00    +0.000 OA
ATOM      4  N   UNL     1       2.513   4.705  21.399  0.00  0.00    +0.000 N 
ATOM      5  H   UNL     1       2.580   7.067  21.574  0.00  0.00    +0.000 HD
ATOM      6  H   UNL     1       3.391   5.049  21.757  0.00  0.00    +0.000 HD
ENDROOT
BRANCH   1  11
ATOM      7  C   UNL     1      -0.918  10.334  23.261  0.00  0.00    +0.000 C 
ATOM      8  C   UNL     1      -0.432  10.130  21.857  0.00  0.00    +0.000 A 
ATOM      9  C   UNL     1       0.433   9.081  21.553  0.00  0.00    +0.000 A 
ATOM     10  C   UNL     1       0.996   8.956  20.264  0.00  0.00    +0.000 A 
ATOM     11  C   UNL     1       1.896   7.932  19.845  0.00  0.00    +0.000 A 
ATOM     12  C   UNL     1       2.362   7.930  18.520  0.00  0.00    +0.000 A 
ATOM     13  F   UNL     1       3.215   6.969  18.125  0.00  0.00    +0.000 F 
ATOM     14  C   UNL     1       1.988   8.900  17.603  0.00  0.00    +0.000 A 
ATOM     15  C   UNL     1       1.088   9.884  17.991  0.00  0.00    +0.000 A 
ATOM     16  C   UNL     1       0.589   9.917  19.304  0.00  0.00    +0.000 A 
ATOM     17  C   UNL     1      -0.332  10.892  19.691  0.00  0.00    +0.000 A 
ATOM     18  N   UNL     1      -0.842  11.025  20.934  0.00  0.00    +0.000 NA
ENDBRANCH   1  11
BRANCH   4  19
ATOM     19  C   UNL     1       2.206   3.293  21.551  0.00  0.00    +0.000 C 
ATOM     20  C   UNL     1       1.007   2.831  20.722  0.00  0.00    +0.000 C 
ATOM     21  C   UNL     1       1.558   2.330  19.386  0.00  0.00    +0.000 C 
ATOM     22  C   UNL     1       3.083   2.198  19.546  0.00  0.00    +0.000 C 
ATOM     23  C   UNL     1       3.350   2.417  21.045  0.00  0.00    +0.000 C 
BRANCH  22  24
ATOM     24  C   UNL     1       3.922   3.090  18.646  0.00  0.00    +0.000 A 
ATOM     25  C   UNL     1       3.648   3.291  17.284  0.00  0.00    +0.000 A 
ATOM     26  C   UNL     1       4.473   4.101  16.500  0.00  0.00    +0.000 A 
ATOM     27  C   UNL     1       5.582   4.724  17.055  0.00  0.00    +0.000 A 
ATOM     28  C   UNL     1       5.868   4.545  18.405  0.00  0.00    +0.000 A 
ATOM     29  C   UNL     1       5.041   3.742  19.196  0.00  0.00    +0.000 A 
ENDBRANCH  22  24
ENDBRANCH   4  19
TORSDOF 3
ENDMDL
MODEL 2
REMARK VINA RESULT:      -9.3      2.311      4.269
REMARK  Name = 
REMARK  4 active torsions:
REMARK  status: ('A' for Active; 'I' for Inactive)
REMARK    1  A    between atoms: C_1  and  C_2
REMARK    2  A    between atoms: C_5  and  N_6
REMARK    3  A    between atoms: N_9  and  C_10
REMARK    4  A    between atoms: C_13  and  C_14
REMARK                            x       y       z     vdW  Elec       q    Type
REMARK                         _______ _______ _______ _____ _____    ______ ____
ROOT
ATOM      1  N   UNL     1       1.149   8.545  19.521  0.00  0.00    +0.000 N 
ATOM      2  C   UNL     1       2.069   8.334  18.520  0.00  0.00    +0.000 C 
ATOM      3  O   UNL     1       2.353   9.110  17.615  0.00  0.00    +0.000 OA
ATOM      4  N   UNL     1       2.631   7.084  18.637  0.00  0.00    +0.000 N 
ATOM      5  H   UNL     1       0.624   7.705  19.734  0.00  0.00    +0.000 HD
ATOM      6  H   UNL     1       2.494   6.602  19.513  0.00  0.00    +0.000 HD
ENDROOT
BRANCH   1  11
ATOM      7  C   UNL     1      -2.655   9.697  15.797  0.00  0.00    +0.000 C 
ATOM      8  C   UNL     1      -2.037  10.377  16.981  0.00  0.00    +0.000 A 
ATOM      9  C   UNL     1      -1.056   9.736  17.734  0.00  0.00    +0.000 A 
ATOM     10  C   UNL     1      -0.560  10.315  18.923  0.00  0.00    +0.000 A 
ATOM     11  C   UNL     1       0.433   9.746  19.774  0.00  0.00    +0.000 A 
ATOM     12  C   UNL     1       0.839  10.451  20.920  0.00  0.00    +0.000 A 
ATOM     13  F   UNL     1       1.770   9.913  21.726  0.00  0.00    +0.000 F 
ATOM     14  C   UNL     1       0.294  11.679  21.263  0.00  0.00    +0.000 A 
ATOM     15  C   UNL     1      -0.651  12.256  20.426  0.00  0.00    +0.000 A 
ATOM     16  C   UNL     1      -1.076  11.590  19.264  0.00  0.00    +0.000 A 
ATOM     17  C   UNL     1      -2.011  12.178  18.409  0.00  0.00    +0.000 A 
ATOM     18  N   UNL     1      -2.504  11.605  17.291  0.00  0.00    +0.000 NA
ENDBRANCH   1  11
BRANCH   4  19
ATOM     19  C   UNL     1       3.624   6.572  17.709  0.00  0.00    +0.000 C 
ATOM     20  C   UNL     1       5.025   6.455  18.311  0.00  0.00    +0.000 C 
ATOM     21  C   UNL     1       5.151   5.036  18.868  0.00  0.00    +0.000 C 
ATOM     22  C   UNL     1       3.963   4.227  18.320  0.00  0.00    +0.000 C 
ATOM     23  C   UNL     1       3.299   5.143  17.278  0.00  0.00    +0.000 C 
BRANCH  22  24
ATOM     24  C   UNL     1       2.993   3.691  19.360  0.00  0.00    +0.000 A 
ATOM     25  C   UNL     1       1.599   3.799  19.246  0.00  0.00    +0.000 A 
ATOM     26  C   UNL     1       0.758   3.311  20.250  0.00  0.00    +0.000 A 
ATOM     27  C   UNL     1       1.288   2.710  21.382  0.00  0.00    +0.000 A 
ATOM     28  C   UNL     1       2.668   2.584  21.512  0.00  0.00    +0.000 A 
ATOM     29  C   UNL     1       3.513   3.063  20.507  0.00  0.00    +0.000 A 
ENDBRANCH  22  24
ENDBRANCH   4  19
TORSDOF 3
ENDMDL
MODEL 3
REMARK VINA RESULT:      -9.1      0.834      1.052
REMARK  Name = 
REMARK  4 active torsions:
REMARK  status: ('A' for Active; 'I' for Inactive)
REMARK    1  A    between atoms: C_1  and  C_2
REMARK    2  A    between atoms: C_5  and  N_6
REMARK    3  A    between atoms: N_9  and  C_10
REMARK    4  A    between atoms: C_13  and  C_14
REMARK                            x       y       z     vdW  Elec       q    Type
REMARK                         _______ _______ _______ _____ _____    ______ ____
ROOT
ATOM      1  N   UNL     1       2.549   6.511  20.186  0.00  0.00    +0.000 N 
ATOM      2  C   UNL     1       2.244   5.241  19.752  0.00  0.00    +0.000 C 
ATOM      3  O   UNL     1       1.465   4.946  18.852  0.00  0.00    +0.000 OA
ATOM      4  N   UNL     1       2.914   4.301  20.498  0.00  0.00    +0.000 N 
ATOM      5  H   UNL     1       2.646   6.551  21.195  0.00  0.00    +0.000 HD
ATOM      6  H   UNL     1       3.678   4.632  21.070  0.00  0.00    +0.000 HD
ENDROOT
BRANCH   1  11
ATOM      7  C   UNL     1      -0.494   9.595  23.487  0.00  0.00    +0.000 C 
ATOM      8  C   UNL     1      -0.080   9.607  22.046  0.00  0.00    +0.000 A 
ATOM      9  C   UNL     1       0.754   8.612  21.540  0.00  0.00    +0.000 A 
ATOM     10  C   UNL     1       1.251   8.685  20.221  0.00  0.00    +0.000 A 
ATOM     11  C   UNL     1       2.115   7.732  19.604  0.00  0.00    +0.000 A 
ATOM     12  C   UNL     1       2.516   7.932  18.273  0.00  0.00    +0.000 A 
ATOM     13  F   UNL     1       3.335   7.039  17.692  0.00  0.00    +0.000 F 
ATOM     14  C   UNL     1       2.112   9.036  17.537  0.00  0.00    +0.000 A 
ATOM     15  C   UNL     1       1.246   9.953  18.117  0.00  0.00    +0.000 A 
ATOM     16  C   UNL     1       0.812   9.785  19.443  0.00  0.00    +0.000 A 
ATOM     17  C   UNL     1      -0.075  10.695  20.021  0.00  0.00    +0.000 A 
ATOM     18  N   UNL     1      -0.522  10.637  21.294  0.00  0.00    +0.000 NA
ENDBRANCH   1  11
BRANCH   4  19
ATOM     19  C   UNL     1       2.776   2.872  20.282  0.00  0.00    +0.000 C 
ATOM     20  C   UNL     1       1.705   2.505  19.254  0.00  0.00    +0.000 C 
ATOM     21  C   UNL     1       2.407   2.407  17.899  0.00  0.00    +0.000 C 
ATOM     22  C   UNL     1       3.921   2.399  18.172  0.00  0.00    +0.000 C 
ATOM     23  C   UNL     1       4.053   2.270  19.699  0.00  0.00    +0.000 C 
BRANCH  22  24
ATOM     24  C   UNL     1       4.703   3.567  17.594  0.00  0.00    +0.000 A 
ATOM     25  C   UNL     1       4.565   4.011  16.270  0.00  0.00    +0.000 A 
ATOM     26  C   UNL     1       5.332   5.073  15.787  0.00  0.00    +0.000 A 
ATOM     27  C   UNL     1       6.250   5.711  16.610  0.00  0.00    +0.000 A 
ATOM     28  C   UNL     1       6.398   5.292  17.929  0.00  0.00    +0.000 A 
ATOM     29  C   UNL     1       5.626   4.236  18.419  0.00  0.00    +0.000 A 
ENDBRANCH  22  24
ENDBRANCH   4  19
TORSDOF 3
ENDMDL
MODEL 4
REMARK VINA RESULT:      -8.8      2.306      7.774
REMARK  Name = 
REMARK  4 active torsions:
REMARK  status: ('A' for Active; 'I' for Inactive)
REMARK    1  A    between atoms: C_1  and  C_2
REMARK    2  A    between atoms: C_5  and  N_6
REMARK    3  A    between atoms: N_9  and  C_10
REMARK    4  A    between atoms: C_13  and  C_14
REMARK                            x       y       z     vdW  Elec       q    Type
REMARK                         _______ _______ _______ _____ _____    ______ ____
ROOT
ATOM      1  N   UNL     1       2.670   6.979  18.632  0.00  0.00    +0.000 N 
ATOM      2  C   UNL     1       2.352   8.057  17.839  0.00  0.00    +0.000 C 
ATOM      3  O   UNL     1       2.738   8.259  16.693  0.00  0.00    +0.000 OA
ATOM      4  N   UNL     1       1.546   8.937  18.521  0.00  0.00    +0.000 N 
ATOM      5  H   UNL     1       2.817   7.251  19.597  0.00  0.00    +0.000 HD
ATOM      6  H   UNL     1       1.116   8.599  19.369  0.00  0.00    +0.000 HD
ENDROOT
BRANCH   1  11
ATOM      7  C   UNL     1       7.929   7.959  17.610  0.00  0.00    +0.000 C 
ATOM      8  C   UNL     1       6.979   6.809  17.465  0.00  0.00    +0.000 A 
ATOM      9  C   UNL     1       5.650   6.934  17.864  0.00  0.00    +0.000 A 
ATOM     10  C   UNL     1       4.781   5.821  17.850  0.00  0.00    +0.000 A 
ATOM     11  C   UNL     1       3.410   5.830  18.243  0.00  0.00    +0.000 A 
ATOM     12  C   UNL     1       2.665   4.642  18.159  0.00  0.00    +0.000 A 
ATOM     13  F   UNL     1       1.375   4.648  18.536  0.00  0.00    +0.000 F 
ATOM     14  C   UNL     1       3.221   3.451  17.720  0.00  0.00    +0.000 A 
ATOM     15  C   UNL     1       4.547   3.436  17.305  0.00  0.00    +0.000 A 
ATOM     16  C   UNL     1       5.324   4.605  17.362  0.00  0.00    +0.000 A 
ATOM     17  C   UNL     1       6.651   4.599  16.926  0.00  0.00    +0.000 A 
ATOM     18  N   UNL     1       7.485   5.660  16.972  0.00  0.00    +0.000 NA
ENDBRANCH   1  11
BRANCH   4  19
ATOM     19  C   UNL     1       1.063  10.180  17.945  0.00  0.00    +0.000 C 
ATOM     20  C   UNL     1      -0.418  10.148  17.566  0.00  0.00    +0.000 C 
ATOM     21  C   UNL     1      -1.196  10.676  18.773  0.00  0.00    +0.000 C 
ATOM     22  C   UNL     1      -0.171  11.310  19.730  0.00  0.00    +0.000 C 
ATOM     23  C   UNL     1       1.152  11.330  18.945  0.00  0.00    +0.000 C 
BRANCH  22  24
ATOM     24  C   UNL     1      -0.054  10.660  21.098  0.00  0.00    +0.000 A 
ATOM     25  C   UNL     1       0.953   9.743  21.436  0.00  0.00    +0.000 A 
ATOM     26  C   UNL     1       0.993   9.157  22.703  0.00  0.00    +0.000 A 
ATOM     27  C   UNL     1       0.032   9.470  23.654  0.00  0.00    +0.000 A 
ATOM     28  C   UNL     1      -0.971  10.383  23.344  0.00  0.00    +0.000 A 
ATOM     29  C   UNL     1      -1.010  10.979  22.081  0.00  0.00    +0.000 A 
ENDBRANCH  22  24
ENDBRANCH   4  19
TORSDOF 3
ENDMDL
MODEL 5
REMARK VINA RESULT:      -8.6      2.416      7.331
REMARK  Name = 
REMARK  4 active torsions:
REMARK  status: ('A' for Active; 'I' for Inactive)
REMARK    1  A    between atoms: C_1  and  C_2
REMARK    2  A    between atoms: C_5  and  N_6
REMARK    3  A    between atoms: N_9  and  C_10
REMARK    4  A    between atoms: C_13  and  C_14
REMARK                            x       y       z     vdW  Elec       q    Type
REMARK                         _______ _______ _______ _____ _____    ______ ____
ROOT
ATOM      1  N   UNL     1       2.539   6.833  18.653  0.00  0.00    +0.000 N 
ATOM      2  C   UNL     1       2.160   6.807  19.976  0.00  0.00    +0.000 C 
ATOM      3  O   UNL     1       2.313   5.877  20.760  0.00  0.00    +0.000 OA
ATOM      4  N   UNL     1       1.532   7.980  20.321  0.00  0.00    +0.000 N 
ATOM      5  H   UNL     1       1.852   7.300  18.073  0.00  0.00    +0.000 HD
ATOM      6  H   UNL     1       1.632   8.757  19.684  0.00  0.00    +0.000 HD
ENDROOT
BRANCH   1  11
ATOM      7  C   UNL     1       7.692   8.247  17.597  0.00  0.00    +0.000 C 
ATOM      8  C   UNL     1       6.768   7.122  17.241  0.00  0.00    +0.000 A 
ATOM      9  C   UNL     1       5.464   7.094  17.731  0.00  0.00    +0.000 A 
ATOM     10  C   UNL     1       4.629   5.979  17.507  0.00  0.00    +0.000 A 
ATOM     11  C   UNL     1       3.286   5.838  17.966  0.00  0.00    +0.000 A 
ATOM     12  C   UNL     1       2.572   4.671  17.650  0.00  0.00    +0.000 A 
ATOM     13  F   UNL     1       1.309   4.534  18.088  0.00  0.00    +0.000 F 
ATOM     14  C   UNL     1       3.133   3.638  16.915  0.00  0.00    +0.000 A 
ATOM     15  C   UNL     1       4.428   3.776  16.435  0.00  0.00    +0.000 A 
ATOM     16  C   UNL     1       5.174   4.933  16.720  0.00  0.00    +0.000 A 
ATOM     17  C   UNL     1       6.470   5.084  16.221  0.00  0.00    +0.000 A 
ATOM     18  N   UNL     1       7.274   6.140  16.467  0.00  0.00    +0.000 NA
ENDBRANCH   1  11
BRANCH   4  19
ATOM     19  C   UNL     1       1.004   8.235  21.650  0.00  0.00    +0.000 C 
ATOM     20  C   UNL     1       1.641   9.440  22.344  0.00  0.00    +0.000 C 
ATOM     21  C   UNL     1       0.767  10.653  22.016  0.00  0.00    +0.000 C 
ATOM     22  C   UNL     1      -0.540  10.117  21.406  0.00  0.00    +0.000 C 
ATOM     23  C   UNL     1      -0.479   8.593  21.601  0.00  0.00    +0.000 C 
BRANCH  22  24
ATOM     24  C   UNL     1      -0.819  10.534  19.971  0.00  0.00    +0.000 A 
ATOM     25  C   UNL     1      -1.159   9.629  18.955  0.00  0.00    +0.000 A 
ATOM     26  C   UNL     1      -1.377  10.068  17.647  0.00  0.00    +0.000 A 
ATOM     27  C   UNL     1      -1.257  11.413  17.328  0.00  0.00    +0.000 A 
ATOM     28  C   UNL     1      -0.927  12.330  18.321  0.00  0.00    +0.000 A 
ATOM     29  C   UNL     1      -0.718  11.896  19.633  0.00  0.00    +0.000 A 
ENDBRANCH  22  24
ENDBRANCH   4  19
TORSDOF 3
ENDMDL
MODEL 6
REMARK VINA RESULT:      -8.4      2.017      3.372
REMARK  Name = 
REMARK  4 active torsions:
REMARK  status: ('A' for Active; 'I' for Inactive)
REMARK    1  A    between atoms: C_1  and  C_2
REMARK    2  A    between atoms: C_5  and  N_6
REMARK    3  A    between atoms: N_9  and  C_10
REMARK    4  A    between atoms: C_13  and  C_14
REMARK                            x       y       z     vdW  Elec       q    Type
REMARK                         _______ _______ _______ _____ _____    ______ ____
ROOT
ATOM      1  N   UNL     1       1.793   8.126  19.851  0.00  0.00    +0.000 N 
ATOM      2  C   UNL     1       1.687   6.764  20.013  0.00  0.00    +0.000 C 
ATOM      3  O   UNL     1       0.919   6.176  20.766  0.00  0.00    +0.000 OA
ATOM      4  N   UNL     1       2.606   6.111  19.226  0.00  0.00    +0.000 N 
ATOM      5  H   UNL     1       2.758   8.419  19.744  0.00  0.00    +0.000 HD
ATOM      6  H   UNL     1       3.049   6.651  18.497  0.00  0.00    +0.000 HD
ENDROOT
BRANCH   1  11
ATOM      7  C   UNL     1      -1.998  10.103  16.478  0.00  0.00    +0.000 C 
ATOM      8  C   UNL     1      -1.484  10.411  17.852  0.00  0.00    +0.000 A 
ATOM      9  C   UNL     1      -0.466   9.644  18.415  0.00  0.00    +0.000 A 
ATOM     10  C   UNL     1      -0.064   9.844  19.753  0.00  0.00    +0.000 A 
ATOM     11  C   UNL     1       0.956   9.116  20.434  0.00  0.00    +0.000 A 
ATOM     12  C   UNL     1       1.258   9.440  21.767  0.00  0.00    +0.000 A 
ATOM     13  F   UNL     1       2.214   8.750  22.411  0.00  0.00    +0.000 F 
ATOM     14  C   UNL     1       0.586  10.440  22.454  0.00  0.00    +0.000 A 
ATOM     15  C   UNL     1      -0.387  11.177  21.792  0.00  0.00    +0.000 A 
ATOM     16  C   UNL     1      -0.712  10.892  20.455  0.00  0.00    +0.000 A 
ATOM     17  C   UNL     1      -1.675  11.645  19.781  0.00  0.00    +0.000 A 
ATOM     18  N   UNL     1      -2.078  11.427  18.511  0.00  0.00    +0.000 NA
ENDBRANCH   1  11
BRANCH   4  19
ATOM     19  C   UNL     1       2.743   4.665  19.199  0.00  0.00    +0.000 C 
ATOM     20  C   UNL     1       2.546   4.054  17.812  0.00  0.00    +0.000 C 
ATOM     21  C   UNL     1       3.931   3.965  17.167  0.00  0.00    +0.000 C 
ATOM     22  C   UNL     1       4.965   4.221  18.277  0.00  0.00    +0.000 C 
ATOM     23  C   UNL     1       4.156   4.232  19.585  0.00  0.00    +0.000 C 
BRANCH  22  24
ATOM     24  C   UNL     1       5.839   5.450  18.095  0.00  0.00    +0.000 A 
ATOM     25  C   UNL     1       5.517   6.508  17.231  0.00  0.00    +0.000 A 
ATOM     26  C   UNL     1       6.375   7.600  17.085  0.00  0.00    +0.000 A 
ATOM     27  C   UNL     1       7.567   7.659  17.793  0.00  0.00    +0.000 A 
ATOM     28  C   UNL     1       7.904   6.625  18.660  0.00  0.00    +0.000 A 
ATOM     29  C   UNL     1       7.044   5.534  18.817  0.00  0.00    +0.000 A 
ENDBRANCH  22  24
ENDBRANCH   4  19
TORSDOF 3
ENDMDL
MODEL 7
REMARK VINA RESULT:      -8.4      2.578      7.653
REMARK  Name = 
REMARK  4 active torsions:
REMARK  status: ('A' for Active; 'I' for Inactive)
REMARK    1  A    between atoms: C_1  and  C_2
REMARK    2  A    between atoms: C_5  and  N_6
REMARK    3  A    between atoms: N_9  and  C_10
REMARK    4  A    between atoms: C_13  and  C_14
REMARK                            x       y       z     vdW  Elec       q    Type
REMARK                         _______ _______ _______ _____ _____    ______ ____
ROOT
ATOM      1  N   UNL     1       2.266   7.175  18.187  0.00  0.00    +0.000 N 
ATOM      2  C   UNL     1       2.094   7.714  19.441  0.00  0.00    +0.000 C 
ATOM      3  O   UNL     1       2.472   7.228  20.501  0.00  0.00    +0.000 OA
ATOM      4  N   UNL     1       1.388   8.891  19.368  0.00  0.00    +0.000 N 
ATOM      5  H   UNL     1       1.449   7.311  17.603  0.00  0.00    +0.000 HD
ATOM      6  H   UNL     1       1.298   9.314  18.456  0.00  0.00    +0.000 HD
ENDROOT
BRANCH   1  11
ATOM      7  C   UNL     1       7.590   8.084  17.487  0.00  0.00    +0.000 C 
ATOM      8  C   UNL     1       6.638   6.943  17.297  0.00  0.00    +0.000 A 
ATOM      9  C   UNL     1       5.288   7.087  17.609  0.00  0.00    +0.000 A 
ATOM     10  C   UNL     1       4.409   5.983  17.555  0.00  0.00    +0.000 A 
ATOM     11  C   UNL     1       3.016   6.013  17.860  0.00  0.00    +0.000 A 
ATOM     12  C   UNL     1       2.264   4.832  17.745  0.00  0.00    +0.000 A 
ATOM     13  F   UNL     1       0.953   4.857  18.039  0.00  0.00    +0.000 F 
ATOM     14  C   UNL     1       2.833   3.629  17.357  0.00  0.00    +0.000 A 
ATOM     15  C   UNL     1       4.182   3.594  17.027  0.00  0.00    +0.000 A 
ATOM     16  C   UNL     1       4.968   4.756  17.118  0.00  0.00    +0.000 A 
ATOM     17  C   UNL     1       6.319   4.729  16.767  0.00  0.00    +0.000 A 
ATOM     18  N   UNL     1       7.161   5.781  16.852  0.00  0.00    +0.000 NA
ENDBRANCH   1  11
BRANCH   4  19
ATOM     19  C   UNL     1       1.037   9.679  20.537  0.00  0.00    +0.000 C 
ATOM     20  C   UNL     1       1.411  11.157  20.417  0.00  0.00    +0.000 C 
ATOM     21  C   UNL     1       0.188  11.879  19.849  0.00  0.00    +0.000 C 
ATOM     22  C   UNL     1      -0.996  10.900  19.934  0.00  0.00    +0.000 C 
ATOM     23  C   UNL     1      -0.474   9.709  20.755  0.00  0.00    +0.000 C 
BRANCH  22  24
ATOM     24  C   UNL     1      -1.615  10.495  18.606  0.00  0.00    +0.000 A 
ATOM     25  C   UNL     1      -0.921   9.786  17.614  0.00  0.00    +0.000 A 
ATOM     26  C   UNL     1      -1.535   9.466  16.400  0.00  0.00    +0.000 A 
ATOM     27  C   UNL     1      -2.847   9.847  16.153  0.00  0.00    +0.000 A 
ATOM     28  C   UNL     1      -3.556  10.544  17.126  0.00  0.00    +0.000 A 
ATOM     29  C   UNL     1      -2.949  10.858  18.345  0.00  0.00    +0.000 A 
ENDBRANCH  22  24
ENDBRANCH   4  19
TORSDOF 3
ENDMDL
MODEL 8
REMARK VINA RESULT:      -8.3      1.191      1.628
REMARK  Name = 
REMARK  4 active torsions:
REMARK  status: ('A' for Active; 'I' for Inactive)
REMARK    1  A    between atoms: C_1  and  C_2
REMARK    2  A    between atoms: C_5  and  N_6
REMARK    3  A    between atoms: N_9  and  C_10
REMARK    4  A    between atoms: C_13  and  C_14
REMARK                            x       y       z     vdW  Elec       q    Type
REMARK                         _______ _______ _______ _____ _____    ______ ____
ROOT
ATOM      1  N   UNL     1       2.700   7.168  19.809  0.00  0.00    +0.000 N 
ATOM      2  C   UNL     1       2.289   5.854  19.800  0.00  0.00    +0.000 C 
ATOM      3  O   UNL     1       1.144   5.450  19.632  0.00  0.00    +0.000 OA
ATOM      4  N   UNL     1       3.349   5.015  20.048  0.00  0.00    +0.000 N 
ATOM      5  H   UNL     1       3.404   7.337  20.518  0.00  0.00    +0.000 HD
ATOM      6  H   UNL     1       4.274   5.412  19.970  0.00  0.00    +0.000 HD
ENDROOT
BRANCH   1  11
ATOM      7  C   UNL     1       0.211   9.350  24.133  0.00  0.00    +0.000 C 
ATOM      8  C   UNL     1       0.189   9.535  22.646  0.00  0.00    +0.000 A 
ATOM      9  C   UNL     1       1.012   8.767  21.825  0.00  0.00    +0.000 A 
ATOM     10  C   UNL     1       1.093   9.020  20.439  0.00  0.00    +0.000 A 
ATOM     11  C   UNL     1       1.904   8.306  19.508  0.00  0.00    +0.000 A 
ATOM     12  C   UNL     1       1.868   8.665  18.150  0.00  0.00    +0.000 A 
ATOM     13  F   UNL     1       2.637   7.997  17.273  0.00  0.00    +0.000 F 
ATOM     14  C   UNL     1       1.078   9.703  17.681  0.00  0.00    +0.000 A 
ATOM     15  C   UNL     1       0.260  10.385  18.573  0.00  0.00    +0.000 A 
ATOM     16  C   UNL     1       0.258  10.051  19.938  0.00  0.00    +0.000 A 
ATOM     17  C   UNL     1      -0.578  10.721  20.833  0.00  0.00    +0.000 A 
ATOM     18  N   UNL     1      -0.627  10.494  22.163  0.00  0.00    +0.000 NA
ENDBRANCH   1  11
BRANCH   4  19
ATOM     19  C   UNL     1       3.217   3.570  20.119  0.00  0.00    +0.000 C 
ATOM     20  C   UNL     1       1.998   3.026  19.373  0.00  0.00    +0.000 C 
ATOM     21  C   UNL     1       2.463   2.682  17.956  0.00  0.00    +0.000 C 
ATOM     22  C   UNL     1       4.001   2.720  17.963  0.00  0.00    +0.000 C 
ATOM     23  C   UNL     1       4.393   2.869  19.442  0.00  0.00    +0.000 C 
BRANCH  22  24
ATOM     24  C   UNL     1       4.640   3.761  17.059  0.00  0.00    +0.000 A 
ATOM     25  C   UNL     1       4.330   5.128  17.114  0.00  0.00    +0.000 A 
ATOM     26  C   UNL     1       4.930   6.035  16.237  0.00  0.00    +0.000 A 
ATOM     27  C   UNL     1       5.846   5.598  15.291  0.00  0.00    +0.000 A 
ATOM     28  C   UNL     1       6.174   4.248  15.223  0.00  0.00    +0.000 A 
ATOM     29  C   UNL     1       5.583   3.338  16.104  0.00  0.00    +0.000 A 
ENDBRANCH  22  24
ENDBRANCH   4  19
TORSDOF 3
ENDMDL
MODEL 9
REMARK VINA RESULT:      -8.2      2.217      3.348
REMARK  Name = 
REMARK  4 active torsions:
REMARK  status: ('A' for Active; 'I' for Inactive)
REMARK    1  A    between atoms: C_1  and  C_2
REMARK    2  A    between atoms: C_5  and  N_6
REMARK    3  A    between atoms: N_9  and  C_10
REMARK    4  A    between atoms: C_13  and  C_14
REMARK                            x       y       z     vdW  Elec       q    Type
REMARK                         _______ _______ _______ _____ _____    ______ ____
ROOT
ATOM      1  N   UNL     1       1.307   8.701  19.782  0.00  0.00    +0.000 N 
ATOM      2  C   UNL     1       1.194   7.512  20.465  0.00  0.00    +0.000 C 
ATOM      3  O   UNL     1       0.487   7.297  21.443  0.00  0.00    +0.000 OA
ATOM      4  N   UNL     1       2.028   6.563  19.923  0.00  0.00    +0.000 N 
ATOM      5  H   UNL     1       2.263   8.882  19.497  0.00  0.00    +0.000 HD
ATOM      6  H   UNL     1       2.413   6.760  19.010  0.00  0.00    +0.000 HD
ENDROOT
BRANCH   1  11
ATOM      7  C   UNL     1      -2.444   9.660  15.952  0.00  0.00    +0.000 C 
ATOM      8  C   UNL     1      -1.880  10.379  17.140  0.00  0.00    +0.000 A 
ATOM      9  C   UNL     1      -0.895   9.785  17.926  0.00  0.00    +0.000 A 
ATOM     10  C   UNL     1      -0.450  10.398  19.117  0.00  0.00    +0.000 A 
ATOM     11  C   UNL     1       0.542   9.879  20.000  0.00  0.00    +0.000 A 
ATOM     12  C   UNL     1       0.893  10.613  21.145  0.00  0.00    +0.000 A 
ATOM     13  F   UNL     1       1.823  10.122  21.981  0.00  0.00    +0.000 F 
ATOM     14  C   UNL     1       0.296  11.824  21.457  0.00  0.00    +0.000 A 
ATOM     15  C   UNL     1      -0.649  12.355  20.589  0.00  0.00    +0.000 A 
ATOM     16  C   UNL     1      -1.021  11.658  19.427  0.00  0.00    +0.000 A 
ATOM     17  C   UNL     1      -1.956  12.199  18.542  0.00  0.00    +0.000 A 
ATOM     18  N   UNL     1      -2.400  11.592  17.420  0.00  0.00    +0.000 NA
ENDBRANCH   1  11
BRANCH   4  19
ATOM     19  C   UNL     1       2.139   5.212  20.446  0.00  0.00    +0.000 C 
ATOM     20  C   UNL     1       1.215   4.208  19.757  0.00  0.00    +0.000 C 
ATOM     21  C   UNL     1       2.016   3.582  18.613  0.00  0.00    +0.000 C 
ATOM     22  C   UNL     1       3.489   3.975  18.824  0.00  0.00    +0.000 C 
ATOM     23  C   UNL     1       3.533   4.636  20.211  0.00  0.00    +0.000 C 
BRANCH  22  24
ATOM     24  C   UNL     1       4.109   4.825  17.727  0.00  0.00    +0.000 A 
ATOM     25  C   UNL     1       4.150   6.227  17.765  0.00  0.00    +0.000 A 
ATOM     26  C   UNL     1       4.709   6.955  16.713  0.00  0.00    +0.000 A 
ATOM     27  C   UNL     1       5.234   6.304  15.606  0.00  0.00    +0.000 A 
ATOM     28  C   UNL     1       5.211   4.914  15.550  0.00  0.00    +0.000 A 
ATOM     29  C   UNL     1       4.661   4.180  16.605  0.00  0.00    +0.000 A 
ENDBRANCH  22  24
ENDBRANCH   4  19
TORSDOF 3
ENDMDL
