MODEL 1
REMARK VINA RESULT:      -9.5      0.000      0.000
REMARK  Name = 
REMARK  7 active torsions:
REMARK  status: ('A' for Active; 'I' for Inactive)
REMARK    1  A    between atoms: C_2  and  C_4
REMARK    2  A    between atoms: N_13  and  C_14
REMARK    3  A    between atoms: C_17  and  C_18
REMARK    4  A    between atoms: C_18  and  N_19
REMARK    5  A    between atoms: N_19  and  C_20
REMARK    6  A    between atoms: C_20  and  C_21
REMARK    7  A    between atoms: C_21  and  C_22
REMARK                            x       y       z     vdW  Elec       q    Type
REMARK                         _______ _______ _______ _____ _____    ______ ____
ROOT
ATOM      1  C   UNL     1       2.248   7.096  19.042  0.00  0.00    +0.000 A 
ATOM      2  C   UNL     1       2.104   8.091  18.067  0.00  0.00    +0.000 A 
ATOM      3  C   UNL     1       1.600   9.349  18.392  0.00  0.00    +0.000 A 
ATOM      4  C   UNL     1       1.192   9.635  19.700  0.00  0.00    +0.000 A 
ATOM      5  C   UNL     1       1.305   8.653  20.680  0.00  0.00    +0.000 A 
ATOM      6  C   UNL     1       1.840   7.408  20.353  0.00  0.00    +0.000 A 
ENDROOT
BRANCH   1  16
ATOM      7  C   UNL     1       5.717   5.029  15.783  0.00  0.00    +0.000 A 
ATOM      8  C   UNL     1       5.734   6.233  16.485  0.00  0.00    +0.000 A 
ATOM      9  C   UNL     1       4.778   6.467  17.473  0.00  0.00    +0.000 A 
ATOM     10  C   UNL     1       3.766   5.532  17.762  0.00  0.00    +0.000 A 
ATOM     11  C   UNL     1       3.762   4.316  17.054  0.00  0.00    +0.000 A 
ATOM     12  C   UNL     1       4.735   4.074  16.066  0.00  0.00    +0.000 A 
ATOM     13  C   UNL     1       2.750   3.240  17.353  0.00  0.00    +0.000 C 
ATOM     14  C   UNL     1       1.583   3.751  18.183  0.00  0.00    +0.000 C 
ATOM     15  C   UNL     1       2.087   4.655  19.297  0.00  0.00    +0.000 C 
ATOM     16  N   UNL     1       2.777   5.824  18.732  0.00  0.00    +0.000 N 
BRANCH   7  18
ATOM     17  N   UNL     1       6.451   3.687  13.892  0.00  0.00    +0.000 N 
ATOM     18  C   UNL     1       6.721   4.734  14.729  0.00  0.00    +0.000 C 
ATOM     19  O   UNL     1       7.726   5.417  14.587  0.00  0.00    +0.000 OA
ATOM     20  H   UNL     1       7.083   3.565  13.111  0.00  0.00    +0.000 HD
ATOM     21  H   UNL     1       5.534   3.271  13.824  0.00  0.00    +0.000 HD
ENDBRANCH   7  18
ENDBRANCH   1  16
BRANCH   4  22
ATOM     22  C   UNL     1       0.711  11.011  20.055  0.00  0.00    +0.000 C 
BRANCH  22  23
ATOM     23  N   UNL     1       0.726  11.890  18.886  0.00  0.00    +0.000 NA
ATOM     24  H   UNL     1       0.797  11.313  18.049  0.00  0.00    +0.000 HD
BRANCH  23  25
ATOM     25  C   UNL     1      -0.478  12.720  18.813  0.00  0.00    +0.000 C 
BRANCH  25  26
ATOM     26  C   UNL     1      -1.731  11.976  19.292  0.00  0.00    +0.000 C 
BRANCH  26  27
ATOM     27  C   UNL     1      -2.656  11.620  18.163  0.00  0.00    +0.000 A 
ATOM     28  C   UNL     1      -4.044  11.698  18.333  0.00  0.00    +0.000 A 
ATOM     29  C   UNL     1      -4.901  11.333  17.294  0.00  0.00    +0.000 A 
ATOM     30  C   UNL     1      -4.373  10.896  16.080  0.00  0.00    +0.000 A 
ATOM     31  C   UNL     1      -2.995  10.838  15.909  0.00  0.00    +0.000 A 
ATOM     32  F   UNL     1      -2.491  10.412  14.744  0.00  0.00    +0.000 F 
ATOM     33  C   UNL     1      -2.132  11.195  16.936  0.00  0.00    +0.000 A 
ENDBRANCH  26  27
ENDBRANCH  25  26
ENDBRANCH  23  25
ENDBRANCH  22  23
ENDBRANCH   4  22
TORSDOF 7
ENDMDL
MODEL 2
REMARK VINA RESULT:      -9.1      1.150      1.464
REMARK  Name = 
REMARK  7 active torsions:
REMARK  status: ('A' for Active; 'I' for Inactive)
REMARK    1  A    between atoms: C_2  and  C_4
REMARK    2  A    between atoms: N_13  and  C_14
REMARK    3  A    between atoms: C_17  and  C_18
REMARK    4  A    between atoms: C_18  and  N_19
REMARK    5  A    between atoms: N_19  and  C_20
REMARK    6  A    between atoms: C_20  and  C_21
REMARK    7  A    between atoms: C_21  and  C_22
REMARK                            x       y       z     vdW  Elec       q    Type
REMARK                         _______ _______ _______ _____ _____    ______ ____
ROOT
ATOM      1  C   UNL     1       2.169   7.019  19.165  0.00  0.00    +0.000 A 
ATOM      2  C   UNL     1       2.006   8.033  18.213  0.00  0.00    +0.000 A 
ATOM      3  C   UNL     1       1.515   9.287  18.573  0.00  0.00    +0.000 A 
ATOM      4  C   UNL     1       1.141   9.550  19.896  0.00  0.00    +0.000 A 
ATOM      5  C   UNL     1       1.274   8.549  20.854  0.00  0.00    +0.000 A 
ATOM      6  C   UNL     1       1.795   7.308  20.490  0.00  0.00    +0.000 A 
ENDROOT
BRANCH   1  16
ATOM      7  C   UNL     1       5.577   5.004  15.810  0.00  0.00    +0.000 A 
ATOM      8  C   UNL     1       5.612   6.191  16.539  0.00  0.00    +0.000 A 
ATOM      9  C   UNL     1       4.672   6.409  17.546  0.00  0.00    +0.000 A 
ATOM     10  C   UNL     1       3.657   5.475  17.827  0.00  0.00    +0.000 A 
ATOM     11  C   UNL     1       3.635   4.276  17.091  0.00  0.00    +0.000 A 
ATOM     12  C   UNL     1       4.591   4.051  16.085  0.00  0.00    +0.000 A 
ATOM     13  C   UNL     1       2.619   3.201  17.380  0.00  0.00    +0.000 C 
ATOM     14  C   UNL     1       1.467   3.700  18.237  0.00  0.00    +0.000 C 
ATOM     15  C   UNL     1       1.992   4.575  19.365  0.00  0.00    +0.000 C 
ATOM     16  N   UNL     1       2.684   5.752  18.817  0.00  0.00    +0.000 N 
BRANCH   7  18
ATOM     17  N   UNL     1       7.725   5.451  14.758  0.00  0.00    +0.000 N 
ATOM     18  C   UNL     1       6.564   4.727  14.736  0.00  0.00    +0.000 C 
ATOM     19  O   UNL     1       6.369   3.867  13.888  0.00  0.00    +0.000 OA
ATOM     20  H   UNL     1       8.434   5.178  14.091  0.00  0.00    +0.000 HD
ATOM     21  H   UNL     1       8.018   5.977  15.568  0.00  0.00    +0.000 HD
ENDBRANCH   7  18
ENDBRANCH   1  16
BRANCH   4  22
ATOM     22  C   UNL     1       0.676  10.921  20.289  0.00  0.00    +0.000 C 
BRANCH  22  23
ATOM     23  N   UNL     1      -0.618  10.862  20.968  0.00  0.00    +0.000 NA
ATOM     24  H   UNL     1      -0.483  11.120  21.945  0.00  0.00    +0.000 HD
BRANCH  23  25
ATOM     25  C   UNL     1      -1.599  11.758  20.352  0.00  0.00    +0.000 C 
BRANCH  25  26
ATOM     26  C   UNL     1      -1.266  12.071  18.887  0.00  0.00    +0.000 C 
BRANCH  26  27
ATOM     27  C   UNL     1      -2.215  11.412  17.928  0.00  0.00    +0.000 A 
ATOM     28  C   UNL     1      -1.759  10.427  17.043  0.00  0.00    +0.000 A 
ATOM     29  C   UNL     1      -2.636   9.843  16.128  0.00  0.00    +0.000 A 
ATOM     30  C   UNL     1      -3.974  10.236  16.100  0.00  0.00    +0.000 A 
ATOM     31  C   UNL     1      -4.426  11.201  16.993  0.00  0.00    +0.000 A 
ATOM     32  F   UNL     1      -5.710  11.580  16.959  0.00  0.00    +0.000 F 
ATOM     33  C   UNL     1      -3.563  11.792  17.905  0.00  0.00    +0.000 A 
ENDBRANCH  26  27
ENDBRANCH  25  26
ENDBRANCH  23  25
ENDBRANCH  22  23
ENDBRANCH   4  22
TORSDOF 7
ENDMDL
MODEL 3
REMARK VINA RESULT:      -9.1      0.821      1.253
REMARK  Name = 
REMARK  7 active torsions:
REMARK  status: ('A' for Active; 'I' for Inactive)
REMARK    1  A    between atoms: C_2  and  C_4
REMARK    2  A    between atoms: N_13  and  C_14
REMARK    3  A    between atoms: C_17  and  C_18
REMARK    4  A    between atoms: C_18  and  N_19
REMARK    5  A    between atoms: N_19  and  C_20
REMARK    6  A    between atoms: C_20  and  C_21
REMARK    7  A    between atoms: C_21  and  C_22
REMARK                            x       y       z     vdW  Elec       q    Type
REMARK                         _______ _______ _______ _____ _____    ______ ____
ROOT
ATOM      1  C   UNL     1       2.248   7.145  19.023  0.00  0.00    +0.000 A 
ATOM      2  C   UNL     1       1.858   7.498  20.321  0.00  0.00    +0.000 A 
ATOM      3  C   UNL     1       1.320   8.754  20.594  0.00  0.00    +0.000 A 
ATOM      4  C   UNL     1       1.188   9.707  19.578  0.00  0.00    +0.000 A 
ATOM      5  C   UNL     1       1.590   9.385  18.285  0.00  0.00    +0.000 A 
ATOM      6  C   UNL     1       2.098   8.115  18.015  0.00  0.00    +0.000 A 
ENDROOT
BRANCH   1  16
ATOM      7  C   UNL     1       5.668   5.022  15.747  0.00  0.00    +0.000 A 
ATOM      8  C   UNL     1       5.693   6.240  16.425  0.00  0.00    +0.000 A 
ATOM      9  C   UNL     1       4.753   6.491  17.424  0.00  0.00    +0.000 A 
ATOM     10  C   UNL     1       3.748   5.560  17.748  0.00  0.00    +0.000 A 
ATOM     11  C   UNL     1       3.736   4.330  17.063  0.00  0.00    +0.000 A 
ATOM     12  C   UNL     1       4.692   4.072  16.065  0.00  0.00    +0.000 A 
ATOM     13  C   UNL     1       2.731   3.259  17.401  0.00  0.00    +0.000 C 
ATOM     14  C   UNL     1       1.576   3.783  18.240  0.00  0.00    +0.000 C 
ATOM     15  C   UNL     1       2.096   4.710  19.327  0.00  0.00    +0.000 C 
ATOM     16  N   UNL     1       2.775   5.869  18.728  0.00  0.00    +0.000 N 
BRANCH   7  18
ATOM     17  N   UNL     1       7.789   5.472  14.645  0.00  0.00    +0.000 N 
ATOM     18  C   UNL     1       6.654   4.710  14.682  0.00  0.00    +0.000 C 
ATOM     19  O   UNL     1       6.482   3.789  13.895  0.00  0.00    +0.000 OA
ATOM     20  H   UNL     1       8.502   5.181  13.990  0.00  0.00    +0.000 HD
ATOM     21  H   UNL     1       8.071   6.061  15.416  0.00  0.00    +0.000 HD
ENDBRANCH   7  18
ENDBRANCH   1  16
BRANCH   4  22
ATOM     22  C   UNL     1       0.547  11.033  19.866  0.00  0.00    +0.000 C 
BRANCH  22  23
ATOM     23  N   UNL     1      -0.436  10.916  20.943  0.00  0.00    +0.000 NA
ATOM     24  H   UNL     1       0.009  11.187  21.819  0.00  0.00    +0.000 HD
BRANCH  23  25
ATOM     25  C   UNL     1      -1.608  11.761  20.704  0.00  0.00    +0.000 C 
BRANCH  25  26
ATOM     26  C   UNL     1      -1.543  12.483  19.352  0.00  0.00    +0.000 C 
BRANCH  26  27
ATOM     27  C   UNL     1      -2.498  11.909  18.346  0.00  0.00    +0.000 A 
ATOM     28  C   UNL     1      -3.866  11.819  18.636  0.00  0.00    +0.000 A 
ATOM     29  C   UNL     1      -4.744  11.253  17.713  0.00  0.00    +0.000 A 
ATOM     30  C   UNL     1      -4.261  10.780  16.493  0.00  0.00    +0.000 A 
ATOM     31  C   UNL     1      -2.907  10.887  16.201  0.00  0.00    +0.000 A 
ATOM     32  F   UNL     1      -2.445  10.427  15.032  0.00  0.00    +0.000 F 
ATOM     33  C   UNL     1      -2.021  11.446  17.112  0.00  0.00    +0.000 A 
ENDBRANCH  26  27
ENDBRANCH  25  26
ENDBRANCH  23  25
ENDBRANCH  22  23
ENDBRANCH   4  22
TORSDOF 7
ENDMDL
MODEL 4
REMARK VINA RESULT:      -9.1      2.865      3.442
REMARK  Name = 
REMARK  7 active torsions:
REMARK  status: ('A' for Active; 'I' for Inactive)
REMARK    1  A    between atoms: C_2  and  C_4
REMARK    2  A    between atoms: N_13  and  C_14
REMARK    3  A    between atoms: C_17  and  C_18
REMARK    4  A    between atoms: C_18  and  N_19
REMARK    5  A    between atoms: N_19  and  C_20
REMARK    6  A    between atoms: C_20  and  C_21
REMARK    7  A    between atoms: C_21  and  C_22
REMARK                            x       y       z     vdW  Elec       q    Type
REMARK                         _______ _______ _______ _____ _____    ______ ____
ROOT
ATOM      1  C   UNL     1       2.165   7.222  19.103  0.00  0.00    +0.000 A 
ATOM      2  C   UNL     1       2.049   8.196  18.104  0.00  0.00    +0.000 A 
ATOM      3  C   UNL     1       1.528   9.457  18.386  0.00  0.00    +0.000 A 
ATOM      4  C   UNL     1       1.075   9.768  19.673  0.00  0.00    +0.000 A 
ATOM      5  C   UNL     1       1.160   8.806  20.676  0.00  0.00    +0.000 A 
ATOM      6  C   UNL     1       1.712   7.558  20.393  0.00  0.00    +0.000 A 
ENDROOT
BRANCH   1  16
ATOM      7  C   UNL     1       5.632   5.081  15.890  0.00  0.00    +0.000 A 
ATOM      8  C   UNL     1       5.637   6.312  16.544  0.00  0.00    +0.000 A 
ATOM      9  C   UNL     1       4.688   6.570  17.533  0.00  0.00    +0.000 A 
ATOM     10  C   UNL     1       3.694   5.632  17.868  0.00  0.00    +0.000 A 
ATOM     11  C   UNL     1       3.702   4.389  17.208  0.00  0.00    +0.000 A 
ATOM     12  C   UNL     1       4.667   4.124  16.221  0.00  0.00    +0.000 A 
ATOM     13  C   UNL     1       2.709   3.311  17.560  0.00  0.00    +0.000 C 
ATOM     14  C   UNL     1       1.543   3.836  18.382  0.00  0.00    +0.000 C 
ATOM     15  C   UNL     1       2.043   4.791  19.454  0.00  0.00    +0.000 C 
ATOM     16  N   UNL     1       2.711   5.947  18.837  0.00  0.00    +0.000 N 
BRANCH   7  18
ATOM     17  N   UNL     1       6.367   3.679  14.043  0.00  0.00    +0.000 N 
ATOM     18  C   UNL     1       6.629   4.761  14.837  0.00  0.00    +0.000 C 
ATOM     19  O   UNL     1       7.623   5.452  14.659  0.00  0.00    +0.000 OA
ATOM     20  H   UNL     1       6.992   3.536  13.261  0.00  0.00    +0.000 HD
ATOM     21  H   UNL     1       5.455   3.248  14.000  0.00  0.00    +0.000 HD
ENDBRANCH   7  18
ENDBRANCH   1  16
BRANCH   4  22
ATOM     22  C   UNL     1       0.576  11.148  19.984  0.00  0.00    +0.000 C 
BRANCH  22  23
ATOM     23  N   UNL     1       0.759  11.465  21.400  0.00  0.00    +0.000 NA
ATOM     24  H   UNL     1       1.625  11.994  21.504  0.00  0.00    +0.000 HD
BRANCH  23  25
ATOM     25  C   UNL     1      -0.361  12.242  21.935  0.00  0.00    +0.000 C 
BRANCH  25  26
ATOM     26  C   UNL     1      -1.630  12.098  21.085  0.00  0.00    +0.000 C 
BRANCH  26  27
ATOM     27  C   UNL     1      -2.879  12.418  21.856  0.00  0.00    +0.000 A 
ATOM     28  C   UNL     1      -4.027  12.867  21.192  0.00  0.00    +0.000 A 
ATOM     29  C   UNL     1      -5.173  13.198  21.914  0.00  0.00    +0.000 A 
ATOM     30  C   UNL     1      -5.179  13.074  23.303  0.00  0.00    +0.000 A 
ATOM     31  C   UNL     1      -4.044  12.610  23.958  0.00  0.00    +0.000 A 
ATOM     32  F   UNL     1      -4.050  12.497  25.291  0.00  0.00    +0.000 F 
ATOM     33  C   UNL     1      -2.895  12.281  23.251  0.00  0.00    +0.000 A 
ENDBRANCH  26  27
ENDBRANCH  25  26
ENDBRANCH  23  25
ENDBRANCH  22  23
ENDBRANCH   4  22
TORSDOF 7
ENDMDL
MODEL 5
REMARK VINA RESULT:      -9.0      1.638      2.275
REMARK  Name = 
REMARK  7 active torsions:
REMARK  status: ('A' for Active; 'I' for Inactive)
REMARK    1  A    between atoms: C_2  and  C_4
REMARK    2  A    between atoms: N_13  and  C_14
REMARK    3  A    between atoms: C_17  and  C_18
REMARK    4  A    between atoms: C_18  and  N_19
REMARK    5  A    between atoms: N_19  and  C_20
REMARK    6  A    between atoms: C_20  and  C_21
REMARK    7  A    between atoms: C_21  and  C_22
REMARK                            x       y       z     vdW  Elec       q    Type
REMARK                         _______ _______ _______ _____ _____    ______ ____
ROOT
ATOM      1  C   UNL     1       2.313   7.247  18.891  0.00  0.00    +0.000 A 
ATOM      2  C   UNL     1       1.828   7.651  20.141  0.00  0.00    +0.000 A 
ATOM      3  C   UNL     1       1.212   8.890  20.308  0.00  0.00    +0.000 A 
ATOM      4  C   UNL     1       1.096   9.777  19.231  0.00  0.00    +0.000 A 
ATOM      5  C   UNL     1       1.591   9.403  17.985  0.00  0.00    +0.000 A 
ATOM      6  C   UNL     1       2.177   8.149  17.820  0.00  0.00    +0.000 A 
ENDROOT
BRANCH   1  16
ATOM      7  C   UNL     1       5.737   5.026  15.686  0.00  0.00    +0.000 A 
ATOM      8  C   UNL     1       5.702   6.308  16.233  0.00  0.00    +0.000 A 
ATOM      9  C   UNL     1       4.789   6.599  17.246  0.00  0.00    +0.000 A 
ATOM     10  C   UNL     1       3.870   5.641  17.714  0.00  0.00    +0.000 A 
ATOM     11  C   UNL     1       3.918   4.348  17.161  0.00  0.00    +0.000 A 
ATOM     12  C   UNL     1       4.848   4.050  16.148  0.00  0.00    +0.000 A 
ATOM     13  C   UNL     1       3.010   3.252  17.656  0.00  0.00    +0.000 C 
ATOM     14  C   UNL     1       1.857   3.782  18.493  0.00  0.00    +0.000 C 
ATOM     15  C   UNL     1       2.353   4.853  19.452  0.00  0.00    +0.000 C 
ATOM     16  N   UNL     1       2.919   5.985  18.704  0.00  0.00    +0.000 N 
BRANCH   7  18
ATOM     17  N   UNL     1       6.355   3.630  13.792  0.00  0.00    +0.000 N 
ATOM     18  C   UNL     1       6.698   4.670  14.612  0.00  0.00    +0.000 C 
ATOM     19  O   UNL     1       7.733   5.299  14.438  0.00  0.00    +0.000 OA
ATOM     20  H   UNL     1       6.960   3.468  12.998  0.00  0.00    +0.000 HD
ATOM     21  H   UNL     1       5.416   3.261  13.751  0.00  0.00    +0.000 HD
ENDBRANCH   7  18
ENDBRANCH   1  16
BRANCH   4  22
ATOM     22  C   UNL     1       0.374  11.080  19.402  0.00  0.00    +0.000 C 
BRANCH  22  23
ATOM     23  N   UNL     1      -0.441  11.387  18.227  0.00  0.00    +0.000 NA
ATOM     24  H   UNL     1       0.088  11.139  17.392  0.00  0.00    +0.000 HD
BRANCH  23  25
ATOM     25  C   UNL     1      -1.712  10.659  18.241  0.00  0.00    +0.000 C 
BRANCH  25  26
ATOM     26  C   UNL     1      -2.787  11.342  17.386  0.00  0.00    +0.000 C 
BRANCH  26  27
ATOM     27  C   UNL     1      -4.084  11.516  18.122  0.00  0.00    +0.000 A 
ATOM     28  C   UNL     1      -5.293  11.130  17.529  0.00  0.00    +0.000 A 
ATOM     29  C   UNL     1      -6.499  11.326  18.201  0.00  0.00    +0.000 A 
ATOM     30  C   UNL     1      -6.502  11.901  19.471  0.00  0.00    +0.000 A 
ATOM     31  C   UNL     1      -5.299  12.266  20.064  0.00  0.00    +0.000 A 
ATOM     32  F   UNL     1      -5.305  12.822  21.281  0.00  0.00    +0.000 F 
ATOM     33  C   UNL     1      -4.091  12.079  19.404  0.00  0.00    +0.000 A 
ENDBRANCH  26  27
ENDBRANCH  25  26
ENDBRANCH  23  25
ENDBRANCH  22  23
ENDBRANCH   4  22
TORSDOF 7
ENDMDL
MODEL 6
REMARK VINA RESULT:      -9.0      1.441      2.129
REMARK  Name = 
REMARK  7 active torsions:
REMARK  status: ('A' for Active; 'I' for Inactive)
REMARK    1  A    between atoms: C_2  and  C_4
REMARK    2  A    between atoms: N_13  and  C_14
REMARK    3  A    between atoms: C_17  and  C_18
REMARK    4  A    between atoms: C_18  and  N_19
REMARK    5  A    between atoms: N_19  and  C_20
REMARK    6  A    between atoms: C_20  and  C_21
REMARK    7  A    between atoms: C_21  and  C_22
REMARK                            x       y       z     vdW  Elec       q    Type
REMARK                         _______ _______ _______ _____ _____    ______ ____
ROOT
ATOM      1  C   UNL     1       2.451   7.185  18.986  0.00  0.00    +0.000 A 
ATOM      2  C   UNL     1       1.949   7.572  20.235  0.00  0.00    +0.000 A 
ATOM      3  C   UNL     1       1.263   8.775  20.393  0.00  0.00    +0.000 A 
ATOM      4  C   UNL     1       1.091   9.643  19.309  0.00  0.00    +0.000 A 
ATOM      5  C   UNL     1       1.602   9.287  18.064  0.00  0.00    +0.000 A 
ATOM      6  C   UNL     1       2.259   8.068  17.908  0.00  0.00    +0.000 A 
ENDROOT
BRANCH   1  16
ATOM      7  C   UNL     1       5.801   5.056  15.643  0.00  0.00    +0.000 A 
ATOM      8  C   UNL     1       5.713   6.355  16.140  0.00  0.00    +0.000 A 
ATOM      9  C   UNL     1       4.852   6.630  17.201  0.00  0.00    +0.000 A 
ATOM     10  C   UNL     1       4.033   5.635  17.768  0.00  0.00    +0.000 A 
ATOM     11  C   UNL     1       4.134   4.325  17.265  0.00  0.00    +0.000 A 
ATOM     12  C   UNL     1       5.013   4.045  16.203  0.00  0.00    +0.000 A 
ATOM     13  C   UNL     1       3.338   3.194  17.864  0.00  0.00    +0.000 C 
ATOM     14  C   UNL     1       2.209   3.684  18.757  0.00  0.00    +0.000 C 
ATOM     15  C   UNL     1       2.692   4.825  19.637  0.00  0.00    +0.000 C 
ATOM     16  N   UNL     1       3.129   5.959  18.807  0.00  0.00    +0.000 N 
BRANCH   7  18
ATOM     17  N   UNL     1       6.399   3.608  13.782  0.00  0.00    +0.000 N 
ATOM     18  C   UNL     1       6.710   4.718  14.519  0.00  0.00    +0.000 C 
ATOM     19  O   UNL     1       7.674   5.416  14.237  0.00  0.00    +0.000 OA
ATOM     20  H   UNL     1       6.958   3.450  12.954  0.00  0.00    +0.000 HD
ATOM     21  H   UNL     1       5.494   3.164  13.829  0.00  0.00    +0.000 HD
ENDBRANCH   7  18
ENDBRANCH   1  16
BRANCH   4  22
ATOM     22  C   UNL     1       0.295  10.904  19.472  0.00  0.00    +0.000 C 
BRANCH  22  23
ATOM     23  N   UNL     1      -0.336  11.293  18.212  0.00  0.00    +0.000 NA
ATOM     24  H   UNL     1       0.323  11.120  17.453  0.00  0.00    +0.000 HD
BRANCH  23  25
ATOM     25  C   UNL     1      -1.574  10.550  17.969  0.00  0.00    +0.000 C 
BRANCH  25  26
ATOM     26  C   UNL     1      -2.666  11.423  17.340  0.00  0.00    +0.000 C 
BRANCH  26  27
ATOM     27  C   UNL     1      -3.872  11.564  18.224  0.00  0.00    +0.000 A 
ATOM     28  C   UNL     1      -3.811  12.337  19.390  0.00  0.00    +0.000 A 
ATOM     29  C   UNL     1      -4.922  12.437  20.227  0.00  0.00    +0.000 A 
ATOM     30  C   UNL     1      -6.101  11.769  19.899  0.00  0.00    +0.000 A 
ATOM     31  C   UNL     1      -6.165  11.018  18.731  0.00  0.00    +0.000 A 
ATOM     32  F   UNL     1      -7.296  10.374  18.421  0.00  0.00    +0.000 F 
ATOM     33  C   UNL     1      -5.065  10.908  17.891  0.00  0.00    +0.000 A 
ENDBRANCH  26  27
ENDBRANCH  25  26
ENDBRANCH  23  25
ENDBRANCH  22  23
ENDBRANCH   4  22
TORSDOF 7
ENDMDL
MODEL 7
REMARK VINA RESULT:      -9.0      2.550      3.896
REMARK  Name = 
REMARK  7 active torsions:
REMARK  status: ('A' for Active; 'I' for Inactive)
REMARK    1  A    between atoms: C_2  and  C_4
REMARK    2  A    between atoms: N_13  and  C_14
REMARK    3  A    between atoms: C_17  and  C_18
REMARK    4  A    between atoms: C_18  and  N_19
REMARK    5  A    between atoms: N_19  and  C_20
REMARK    6  A    between atoms: C_20  and  C_21
REMARK    7  A    between atoms: C_21  and  C_22
REMARK                            x       y       z     vdW  Elec       q    Type
REMARK                         _______ _______ _______ _____ _____    ______ ____
ROOT
ATOM      1  C   UNL     1       2.221   7.314  18.960  0.00  0.00    +0.000 A 
ATOM      2  C   UNL     1       1.756   7.709  20.220  0.00  0.00    +0.000 A 
ATOM      3  C   UNL     1       1.193   8.968  20.417  0.00  0.00    +0.000 A 
ATOM      4  C   UNL     1       1.111   9.883  19.361  0.00  0.00    +0.000 A 
ATOM      5  C   UNL     1       1.589   9.519  18.105  0.00  0.00    +0.000 A 
ATOM      6  C   UNL     1       2.122   8.246  17.910  0.00  0.00    +0.000 A 
ENDROOT
BRANCH   1  16
ATOM      7  C   UNL     1       5.683   5.068  15.813  0.00  0.00    +0.000 A 
ATOM      8  C   UNL     1       5.684   6.324  16.417  0.00  0.00    +0.000 A 
ATOM      9  C   UNL     1       4.739   6.615  17.400  0.00  0.00    +0.000 A 
ATOM     10  C   UNL     1       3.753   5.685  17.780  0.00  0.00    +0.000 A 
ATOM     11  C   UNL     1       3.766   4.417  17.171  0.00  0.00    +0.000 A 
ATOM     12  C   UNL     1       4.727   4.118  16.189  0.00  0.00    +0.000 A 
ATOM     13  C   UNL     1       2.783   3.348  17.573  0.00  0.00    +0.000 C 
ATOM     14  C   UNL     1       1.618   3.898  18.380  0.00  0.00    +0.000 C 
ATOM     15  C   UNL     1       2.119   4.898  19.410  0.00  0.00    +0.000 C 
ATOM     16  N   UNL     1       2.774   6.033  18.741  0.00  0.00    +0.000 N 
BRANCH   7  18
ATOM     17  N   UNL     1       6.380   3.639  13.971  0.00  0.00    +0.000 N 
ATOM     18  C   UNL     1       6.676   4.712  14.768  0.00  0.00    +0.000 C 
ATOM     19  O   UNL     1       7.695   5.367  14.597  0.00  0.00    +0.000 OA
ATOM     20  H   UNL     1       7.006   3.474  13.194  0.00  0.00    +0.000 HD
ATOM     21  H   UNL     1       5.454   3.241  13.922  0.00  0.00    +0.000 HD
ENDBRANCH   7  18
ENDBRANCH   1  16
BRANCH   4  22
ATOM     22  C   UNL     1       0.445  11.212  19.565  0.00  0.00    +0.000 C 
BRANCH  22  23
ATOM     23  N   UNL     1      -0.364  11.577  18.402  0.00  0.00    +0.000 NA
ATOM     24  H   UNL     1      -1.314  11.237  18.549  0.00  0.00    +0.000 HD
BRANCH  23  25
ATOM     25  C   UNL     1      -0.385  13.025  18.185  0.00  0.00    +0.000 C 
BRANCH  25  26
ATOM     26  C   UNL     1       0.333  13.793  19.301  0.00  0.00    +0.000 C 
BRANCH  26  27
ATOM     27  C   UNL     1       1.327  14.787  18.770  0.00  0.00    +0.000 A 
ATOM     28  C   UNL     1       1.000  16.147  18.697  0.00  0.00    +0.000 A 
ATOM     29  C   UNL     1       1.912  17.061  18.171  0.00  0.00    +0.000 A 
ATOM     30  C   UNL     1       3.157  16.621  17.722  0.00  0.00    +0.000 A 
ATOM     31  C   UNL     1       3.484  15.274  17.813  0.00  0.00    +0.000 A 
ATOM     32  F   UNL     1       4.678  14.853  17.376  0.00  0.00    +0.000 F 
ATOM     33  C   UNL     1       2.585  14.353  18.332  0.00  0.00    +0.000 A 
ENDBRANCH  26  27
ENDBRANCH  25  26
ENDBRANCH  23  25
ENDBRANCH  22  23
ENDBRANCH   4  22
TORSDOF 7
ENDMDL
MODEL 8
REMARK VINA RESULT:      -9.0      3.085      4.059
REMARK  Name = 
REMARK  7 active torsions:
REMARK  status: ('A' for Active; 'I' for Inactive)
REMARK    1  A    between atoms: C_2  and  C_4
REMARK    2  A    between atoms: N_13  and  C_14
REMARK    3  A    between atoms: C_17  and  C_18
REMARK    4  A    between atoms: C_18  and  N_19
REMARK    5  A    between atoms: N_19  and  C_20
REMARK    6  A    between atoms: C_20  and  C_21
REMARK    7  A    between atoms: C_21  and  C_22
REMARK                            x       y       z     vdW  Elec       q    Type
REMARK                         _______ _______ _______ _____ _____    ______ ____
ROOT
ATOM      1  C   UNL     1       2.228   7.295  19.057  0.00  0.00    +0.000 A 
ATOM      2  C   UNL     1       1.784   7.699  20.323  0.00  0.00    +0.000 A 
ATOM      3  C   UNL     1       1.158   8.930  20.506  0.00  0.00    +0.000 A 
ATOM      4  C   UNL     1       0.989   9.809  19.431  0.00  0.00    +0.000 A 
ATOM      5  C   UNL     1       1.444   9.437  18.169  0.00  0.00    +0.000 A 
ATOM      6  C   UNL     1       2.041   8.190  17.988  0.00  0.00    +0.000 A 
ENDROOT
BRANCH   1  16
ATOM      7  C   UNL     1       5.551   5.103  15.728  0.00  0.00    +0.000 A 
ATOM      8  C   UNL     1       5.519   6.387  16.267  0.00  0.00    +0.000 A 
ATOM      9  C   UNL     1       4.644   6.672  17.316  0.00  0.00    +0.000 A 
ATOM     10  C   UNL     1       3.759   5.704  17.827  0.00  0.00    +0.000 A 
ATOM     11  C   UNL     1       3.805   4.408  17.281  0.00  0.00    +0.000 A 
ATOM     12  C   UNL     1       4.696   4.117  16.233  0.00  0.00    +0.000 A 
ATOM     13  C   UNL     1       2.934   3.302  17.821  0.00  0.00    +0.000 C 
ATOM     14  C   UNL     1       1.808   3.822  18.701  0.00  0.00    +0.000 C 
ATOM     15  C   UNL     1       2.327   4.906  19.632  0.00  0.00    +0.000 C 
ATOM     16  N   UNL     1       2.845   6.042  18.853  0.00  0.00    +0.000 N 
BRANCH   7  18
ATOM     17  N   UNL     1       7.669   5.412  14.573  0.00  0.00    +0.000 N 
ATOM     18  C   UNL     1       6.471   4.753  14.617  0.00  0.00    +0.000 C 
ATOM     19  O   UNL     1       6.193   3.890  13.796  0.00  0.00    +0.000 OA
ATOM     20  H   UNL     1       8.332   5.089  13.881  0.00  0.00    +0.000 HD
ATOM     21  H   UNL     1       8.027   5.936  15.359  0.00  0.00    +0.000 HD
ENDBRANCH   7  18
ENDBRANCH   1  16
BRANCH   4  22
ATOM     22  C   UNL     1       0.256  11.103  19.623  0.00  0.00    +0.000 C 
BRANCH  22  23
ATOM     23  N   UNL     1       1.069  12.060  20.373  0.00  0.00    +0.000 NA
ATOM     24  H   UNL     1       1.465  12.733  19.717  0.00  0.00    +0.000 HD
BRANCH  23  25
ATOM     25  C   UNL     1       0.283  12.765  21.388  0.00  0.00    +0.000 C 
BRANCH  25  26
ATOM     26  C   UNL     1      -0.743  11.853  22.072  0.00  0.00    +0.000 C 
BRANCH  26  27
ATOM     27  C   UNL     1      -1.671  12.607  22.980  0.00  0.00    +0.000 A 
ATOM     28  C   UNL     1      -1.361  13.912  23.385  0.00  0.00    +0.000 A 
ATOM     29  C   UNL     1      -2.207  14.596  24.257  0.00  0.00    +0.000 A 
ATOM     30  C   UNL     1      -3.371  13.983  24.721  0.00  0.00    +0.000 A 
ATOM     31  C   UNL     1      -3.685  12.696  24.301  0.00  0.00    +0.000 A 
ATOM     32  F   UNL     1      -4.799  12.108  24.752  0.00  0.00    +0.000 F 
ATOM     33  C   UNL     1      -2.849  12.002  23.437  0.00  0.00    +0.000 A 
ENDBRANCH  26  27
ENDBRANCH  25  26
ENDBRANCH  23  25
ENDBRANCH  22  23
ENDBRANCH   4  22
TORSDOF 7
ENDMDL
MODEL 9
REMARK VINA RESULT:      -8.9      1.303      1.709
REMARK  Name = 
REMARK  7 active torsions:
REMARK  status: ('A' for Active; 'I' for Inactive)
REMARK    1  A    between atoms: C_2  and  C_4
REMARK    2  A    between atoms: N_13  and  C_14
REMARK    3  A    between atoms: C_17  and  C_18
REMARK    4  A    between atoms: C_18  and  N_19
REMARK    5  A    between atoms: N_19  and  C_20
REMARK    6  A    between atoms: C_20  and  C_21
REMARK    7  A    between atoms: C_21  and  C_22
REMARK                            x       y       z     vdW  Elec       q    Type
REMARK                         _______ _______ _______ _____ _____    ______ ____
ROOT
ATOM      1  C   UNL     1       2.217   7.302  18.865  0.00  0.00    +0.000 A 
ATOM      2  C   UNL     1       2.037   8.212  17.816  0.00  0.00    +0.000 A 
ATOM      3  C   UNL     1       1.494   9.475  18.044  0.00  0.00    +0.000 A 
ATOM      4  C   UNL     1       1.085   9.852  19.328  0.00  0.00    +0.000 A 
ATOM      5  C   UNL     1       1.234   8.954  20.381  0.00  0.00    +0.000 A 
ATOM      6  C   UNL     1       1.807   7.704  20.150  0.00  0.00    +0.000 A 
ENDROOT
BRANCH   1  16
ATOM      7  C   UNL     1       5.734   5.092  15.754  0.00  0.00    +0.000 A 
ATOM      8  C   UNL     1       5.715   6.348  16.358  0.00  0.00    +0.000 A 
ATOM      9  C   UNL     1       4.758   6.629  17.331  0.00  0.00    +0.000 A 
ATOM     10  C   UNL     1       3.777   5.690  17.701  0.00  0.00    +0.000 A 
ATOM     11  C   UNL     1       3.809   4.422  17.091  0.00  0.00    +0.000 A 
ATOM     12  C   UNL     1       4.783   4.133  16.119  0.00  0.00    +0.000 A 
ATOM     13  C   UNL     1       2.833   3.342  17.483  0.00  0.00    +0.000 C 
ATOM     14  C   UNL     1       1.654   3.881  18.279  0.00  0.00    +0.000 C 
ATOM     15  C   UNL     1       2.134   4.886  19.314  0.00  0.00    +0.000 C 
ATOM     16  N   UNL     1       2.785   6.027  18.652  0.00  0.00    +0.000 N 
BRANCH   7  18
ATOM     17  N   UNL     1       6.454   3.683  13.906  0.00  0.00    +0.000 N 
ATOM     18  C   UNL     1       6.740   4.746  14.718  0.00  0.00    +0.000 C 
ATOM     19  O   UNL     1       7.762   5.401  14.569  0.00  0.00    +0.000 OA
ATOM     20  H   UNL     1       7.091   3.526  13.136  0.00  0.00    +0.000 HD
ATOM     21  H   UNL     1       5.528   3.287  13.839  0.00  0.00    +0.000 HD
ENDBRANCH   7  18
ENDBRANCH   1  16
BRANCH   4  22
ATOM     22  C   UNL     1       0.563  11.236  19.577  0.00  0.00    +0.000 C 
BRANCH  22  23
ATOM     23  N   UNL     1       0.312  11.936  18.318  0.00  0.00    +0.000 NA
ATOM     24  H   UNL     1       0.513  11.299  17.548  0.00  0.00    +0.000 HD
BRANCH  23  25
ATOM     25  C   UNL     1      -1.072  12.406  18.222  0.00  0.00    +0.000 C 
BRANCH  25  26
ATOM     26  C   UNL     1      -2.086  11.315  18.587  0.00  0.00    +0.000 C 
BRANCH  26  27
ATOM     27  C   UNL     1      -3.454  11.870  18.864  0.00  0.00    +0.000 A 
ATOM     28  C   UNL     1      -3.697  12.610  20.029  0.00  0.00    +0.000 A 
ATOM     29  C   UNL     1      -4.976  13.094  20.300  0.00  0.00    +0.000 A 
ATOM     30  C   UNL     1      -6.017  12.846  19.406  0.00  0.00    +0.000 A 
ATOM     31  C   UNL     1      -5.769  12.127  18.243  0.00  0.00    +0.000 A 
ATOM     32  F   UNL     1      -6.771  11.886  17.389  0.00  0.00    +0.000 F 
ATOM     33  C   UNL     1      -4.500  11.637  17.962  0.00  0.00    +0.000 A 
ENDBRANCH  26  27
ENDBRANCH  25  26
ENDBRANCH  23  25
ENDBRANCH  22  23
ENDBRANCH   4  22
TORSDOF 7
ENDMDL
