MODEL 1
REMARK VINA RESULT:      -7.8      0.000      0.000
REMARK  Name = 
REMARK  10 active torsions:
REMARK  status: ('A' for Active; 'I' for Inactive)
REMARK    1  A    between atoms: C_1  and  C_2
REMARK    2  A    between atoms: C_2  and  C_3
REMARK    3  A    between atoms: C_2  and  O_4
REMARK    4  A    between atoms: O_4  and  C_5
REMARK    5  A    between atoms: C_8  and  C_9
REMARK    6  A    between atoms: C_9  and  N_10
REMARK    7  A    between atoms: C_11  and  C_13
REMARK    8  A    between atoms: C_18  and  C_19
REMARK    9  A    between atoms: C_19  and  C_20
REMARK   10  A    between atoms: C_19  and  C_21
REMARK                            x       y       z     vdW  Elec       q    Type
REMARK                         _______ _______ _______ _____ _____    ______ ____
ROOT
ATOM      1  N   UNL     1       1.091   9.629  19.185  0.00  0.00    +0.000 N 
ATOM      2  C   UNL     1       1.496   8.596  20.006  0.00  0.00    +0.000 C 
ATOM      3  O   UNL     1       1.289   8.604  21.217  0.00  0.00    +0.000 OA
ATOM      4  H   UNL     1       1.063   9.496  18.185  0.00  0.00    +0.000 HD
ENDROOT
BRANCH   2   5
ATOM      5  C   UNL     1       2.160   7.400  19.404  0.00  0.00    +0.000 A 
ATOM      6  C   UNL     1       2.027   6.206  20.141  0.00  0.00    +0.000 A 
ATOM      7  C   UNL     1       2.664   5.022  19.754  0.00  0.00    +0.000 A 
ATOM      8  C   UNL     1       3.463   5.056  18.611  0.00  0.00    +0.000 A 
ATOM      9  N   UNL     1       4.220   4.070  18.046  0.00  0.00    +0.000 NA
ATOM     10  C   UNL     1       4.780   4.656  17.007  0.00  0.00    +0.000 A 
ATOM     11  O   UNL     1       4.429   5.982  16.841  0.00  0.00    +0.000 OA
ATOM     12  C   UNL     1       3.575   6.234  17.890  0.00  0.00    +0.000 A 
ATOM     13  C   UNL     1       2.937   7.439  18.229  0.00  0.00    +0.000 A 
BRANCH  10  14
ATOM     14  C   UNL     1       5.745   4.050  16.034  0.00  0.00    +0.000 C 
ATOM     15  C   UNL     1       5.415   4.481  14.605  0.00  0.00    +0.000 C 
ATOM     16  C   UNL     1       7.184   4.467  16.365  0.00  0.00    +0.000 C 
ENDBRANCH  10  14
ENDBRANCH   2   5
BRANCH   1  17
ATOM     17  C   UNL     1       0.252  10.675  19.750  0.00  0.00    +0.000 C 
BRANCH  17  21
ATOM     18  C   UNL     1      -3.550  11.079  17.712  0.00  0.00    +0.000 A 
ATOM     19  C   UNL     1      -2.616  10.135  17.288  0.00  0.00    +0.000 A 
ATOM     20  C   UNL     1      -1.385  10.008  17.943  0.00  0.00    +0.000 A 
ATOM     21  C   UNL     1      -1.057  10.837  19.023  0.00  0.00    +0.000 A 
ATOM     22  C   UNL     1      -2.001  11.778  19.451  0.00  0.00    +0.000 A 
ATOM     23  C   UNL     1      -3.232  11.898  18.798  0.00  0.00    +0.000 A 
BRANCH  18  24
ATOM     24  O   UNL     1      -4.779  11.302  17.157  0.00  0.00    +0.000 OA
BRANCH  24  26
ATOM     25  C   UNL     1      -6.665  12.760  17.081  0.00  0.00    +0.000 C 
ATOM     26  C   UNL     1      -5.824  11.849  17.972  0.00  0.00    +0.000 C 
ATOM     27  C   UNL     1      -6.693  10.727  18.536  0.00  0.00    +0.000 C 
ENDBRANCH  24  26
ENDBRANCH  18  24
ENDBRANCH  17  21
ENDBRANCH   1  17
TORSDOF 6
ENDMDL
MODEL 2
REMARK VINA RESULT:      -7.7      0.755      1.209
REMARK  Name = 
REMARK  10 active torsions:
REMARK  status: ('A' for Active; 'I' for Inactive)
REMARK    1  A    between atoms: C_1  and  C_2
REMARK    2  A    between atoms: C_2  and  C_3
REMARK    3  A    between atoms: C_2  and  O_4
REMARK    4  A    between atoms: O_4  and  C_5
REMARK    5  A    between atoms: C_8  and  C_9
REMARK    6  A    between atoms: C_9  and  N_10
REMARK    7  A    between atoms: C_11  and  C_13
REMARK    8  A    between atoms: C_18  and  C_19
REMARK    9  A    between atoms: C_19  and  C_20
REMARK   10  A    between atoms: C_19  and  C_21
REMARK                            x       y       z     vdW  Elec       q    Type
REMARK                         _______ _______ _______ _____ _____    ______ ____
ROOT
ATOM      1  N   UNL     1       1.455   9.317  18.978  0.00  0.00    +0.000 N 
ATOM      2  C   UNL     1       1.871   8.172  19.626  0.00  0.00    +0.000 C 
ATOM      3  O   UNL     1       1.741   8.022  20.838  0.00  0.00    +0.000 OA
ATOM      4  H   UNL     1       1.359   9.321  17.973  0.00  0.00    +0.000 HD
ENDROOT
BRANCH   2   5
ATOM      5  C   UNL     1       2.451   7.050  18.827  0.00  0.00    +0.000 A 
ATOM      6  C   UNL     1       2.027   5.761  19.209  0.00  0.00    +0.000 A 
ATOM      7  C   UNL     1       2.545   4.605  18.616  0.00  0.00    +0.000 A 
ATOM      8  C   UNL     1       3.522   4.758  17.633  0.00  0.00    +0.000 A 
ATOM      9  N   UNL     1       4.217   3.811  16.935  0.00  0.00    +0.000 NA
ATOM     10  C   UNL     1       5.022   4.513  16.164  0.00  0.00    +0.000 A 
ATOM     11  O   UNL     1       4.896   5.882  16.300  0.00  0.00    +0.000 OA
ATOM     12  C   UNL     1       3.922   6.033  17.260  0.00  0.00    +0.000 A 
ATOM     13  C   UNL     1       3.413   7.220  17.812  0.00  0.00    +0.000 A 
BRANCH  10  14
ATOM     14  C   UNL     1       6.042   3.986  15.200  0.00  0.00    +0.000 C 
ATOM     15  C   UNL     1       5.476   3.948  13.780  0.00  0.00    +0.000 C 
ATOM     16  C   UNL     1       7.304   4.857  15.215  0.00  0.00    +0.000 C 
ENDBRANCH  10  14
ENDBRANCH   2   5
BRANCH   1  17
ATOM     17  C   UNL     1       0.692  10.302  19.732  0.00  0.00    +0.000 C 
BRANCH  17  21
ATOM     18  C   UNL     1      -3.107  11.273  17.889  0.00  0.00    +0.000 A 
ATOM     19  C   UNL     1      -2.699  11.920  19.054  0.00  0.00    +0.000 A 
ATOM     20  C   UNL     1      -1.474  11.603  19.653  0.00  0.00    +0.000 A 
ATOM     21  C   UNL     1      -0.642  10.617  19.108  0.00  0.00    +0.000 A 
ATOM     22  C   UNL     1      -1.050   9.975  17.933  0.00  0.00    +0.000 A 
ATOM     23  C   UNL     1      -2.273  10.299  17.333  0.00  0.00    +0.000 A 
BRANCH  18  24
ATOM     24  O   UNL     1      -4.275  11.490  17.214  0.00  0.00    +0.000 OA
BRANCH  24  26
ATOM     25  C   UNL     1      -6.218  12.858  17.007  0.00  0.00    +0.000 C 
ATOM     26  C   UNL     1      -5.426  11.944  17.939  0.00  0.00    +0.000 C 
ATOM     27  C   UNL     1      -6.287  10.755  18.357  0.00  0.00    +0.000 C 
ENDBRANCH  24  26
ENDBRANCH  18  24
ENDBRANCH  17  21
ENDBRANCH   1  17
TORSDOF 6
ENDMDL
MODEL 3
REMARK VINA RESULT:      -7.6      2.243      9.943
REMARK  Name = 
REMARK  10 active torsions:
REMARK  status: ('A' for Active; 'I' for Inactive)
REMARK    1  A    between atoms: C_1  and  C_2
REMARK    2  A    between atoms: C_2  and  C_3
REMARK    3  A    between atoms: C_2  and  O_4
REMARK    4  A    between atoms: O_4  and  C_5
REMARK    5  A    between atoms: C_8  and  C_9
REMARK    6  A    between atoms: C_9  and  N_10
REMARK    7  A    between atoms: C_11  and  C_13
REMARK    8  A    between atoms: C_18  and  C_19
REMARK    9  A    between atoms: C_19  and  C_20
REMARK   10  A    between atoms: C_19  and  C_21
REMARK                            x       y       z     vdW  Elec       q    Type
REMARK                         _______ _______ _______ _____ _____    ______ ____
ROOT
ATOM      1  N   UNL     1       0.699   9.505  17.644  0.00  0.00    +0.000 N 
ATOM      2  C   UNL     1      -0.106  10.190  18.531  0.00  0.00    +0.000 C 
ATOM      3  O   UNL     1       0.313  10.600  19.611  0.00  0.00    +0.000 OA
ATOM      4  H   UNL     1       0.405   9.387  16.686  0.00  0.00    +0.000 HD
ENDROOT
BRANCH   2   5
ATOM      5  C   UNL     1      -1.518  10.497  18.151  0.00  0.00    +0.000 A 
ATOM      6  C   UNL     1      -1.945   9.934  16.931  0.00  0.00    +0.000 A 
ATOM      7  C   UNL     1      -3.210  10.199  16.395  0.00  0.00    +0.000 A 
ATOM      8  C   UNL     1      -4.048  11.064  17.100  0.00  0.00    +0.000 A 
ATOM      9  N   UNL     1      -5.296  11.520  16.785  0.00  0.00    +0.000 NA
ATOM     10  C   UNL     1      -5.601  12.323  17.785  0.00  0.00    +0.000 A 
ATOM     11  O   UNL     1      -4.627  12.420  18.758  0.00  0.00    +0.000 OA
ATOM     12  C   UNL     1      -3.618  11.601  18.304  0.00  0.00    +0.000 A 
ATOM     13  C   UNL     1      -2.367  11.345  18.889  0.00  0.00    +0.000 A 
BRANCH  10  14
ATOM     14  C   UNL     1      -6.853  13.130  17.950  0.00  0.00    +0.000 C 
ATOM     15  C   UNL     1      -6.889  13.796  19.326  0.00  0.00    +0.000 C 
ATOM     16  C   UNL     1      -6.948  14.212  16.867  0.00  0.00    +0.000 C 
ENDBRANCH  10  14
ENDBRANCH   2   5
BRANCH   1  17
ATOM     17  C   UNL     1       2.123   9.411  17.929  0.00  0.00    +0.000 C 
BRANCH  17  21
ATOM     18  C   UNL     1       3.413   5.480  19.215  0.00  0.00    +0.000 A 
ATOM     19  C   UNL     1       3.914   6.041  18.041  0.00  0.00    +0.000 A 
ATOM     20  C   UNL     1       3.494   7.310  17.623  0.00  0.00    +0.000 A 
ATOM     21  C   UNL     1       2.548   8.032  18.361  0.00  0.00    +0.000 A 
ATOM     22  C   UNL     1       2.053   7.469  19.543  0.00  0.00    +0.000 A 
ATOM     23  C   UNL     1       2.480   6.204  19.961  0.00  0.00    +0.000 A 
BRANCH  18  24
ATOM     24  O   UNL     1       3.741   4.255  19.726  0.00  0.00    +0.000 OA
BRANCH  24  26
ATOM     25  C   UNL     1       3.150   2.078  18.951  0.00  0.00    +0.000 C 
ATOM     26  C   UNL     1       2.724   3.249  19.832  0.00  0.00    +0.000 C 
ATOM     27  C   UNL     1       2.591   2.788  21.282  0.00  0.00    +0.000 C 
ENDBRANCH  24  26
ENDBRANCH  18  24
ENDBRANCH  17  21
ENDBRANCH   1  17
TORSDOF 6
ENDMDL
MODEL 4
REMARK VINA RESULT:      -7.5      6.229      9.688
REMARK  Name = 
REMARK  10 active torsions:
REMARK  status: ('A' for Active; 'I' for Inactive)
REMARK    1  A    between atoms: C_1  and  C_2
REMARK    2  A    between atoms: C_2  and  C_3
REMARK    3  A    between atoms: C_2  and  O_4
REMARK    4  A    between atoms: O_4  and  C_5
REMARK    5  A    between atoms: C_8  and  C_9
REMARK    6  A    between atoms: C_9  and  N_10
REMARK    7  A    between atoms: C_11  and  C_13
REMARK    8  A    between atoms: C_18  and  C_19
REMARK    9  A    between atoms: C_19  and  C_20
REMARK   10  A    between atoms: C_19  and  C_21
REMARK                            x       y       z     vdW  Elec       q    Type
REMARK                         _______ _______ _______ _____ _____    ______ ____
ROOT
ATOM      1  N   UNL     1       7.212   8.083  17.178  0.00  0.00    +0.000 N 
ATOM      2  C   UNL     1       8.122   8.355  18.178  0.00  0.00    +0.000 C 
ATOM      3  O   UNL     1       8.576   7.476  18.906  0.00  0.00    +0.000 OA
ATOM      4  H   UNL     1       7.035   8.768  16.457  0.00  0.00    +0.000 HD
ENDROOT
BRANCH   2   5
ATOM      5  C   UNL     1       8.619   9.753  18.354  0.00  0.00    +0.000 A 
ATOM      6  C   UNL     1       9.476   9.950  19.456  0.00  0.00    +0.000 A 
ATOM      7  C   UNL     1       9.954  11.218  19.805  0.00  0.00    +0.000 A 
ATOM      8  C   UNL     1       9.542  12.305  19.033  0.00  0.00    +0.000 A 
ATOM      9  N   UNL     1       9.819  13.634  19.179  0.00  0.00    +0.000 NA
ATOM     10  C   UNL     1       9.154  14.206  18.195  0.00  0.00    +0.000 A 
ATOM     11  O   UNL     1       8.454  13.328  17.392  0.00  0.00    +0.000 OA
ATOM     12  C   UNL     1       8.708  12.094  17.946  0.00  0.00    +0.000 A 
ATOM     13  C   UNL     1       8.222  10.838  17.546  0.00  0.00    +0.000 A 
BRANCH  10  14
ATOM     14  C   UNL     1       9.070  15.671  17.889  0.00  0.00    +0.000 C 
ATOM     15  C   UNL     1       7.765  16.261  18.426  0.00  0.00    +0.000 C 
ATOM     16  C   UNL     1      10.254  16.424  18.507  0.00  0.00    +0.000 C 
ENDBRANCH  10  14
ENDBRANCH   2   5
BRANCH   1  17
ATOM     17  C   UNL     1       6.909   6.692  16.874  0.00  0.00    +0.000 C 
BRANCH  17  21
ATOM     18  C   UNL     1       3.398   5.163  18.900  0.00  0.00    +0.000 A 
ATOM     19  C   UNL     1       3.281   6.167  17.940  0.00  0.00    +0.000 A 
ATOM     20  C   UNL     1       4.416   6.665  17.289  0.00  0.00    +0.000 A 
ATOM     21  C   UNL     1       5.693   6.181  17.600  0.00  0.00    +0.000 A 
ATOM     22  C   UNL     1       5.806   5.167  18.558  0.00  0.00    +0.000 A 
ATOM     23  C   UNL     1       4.669   4.667  19.203  0.00  0.00    +0.000 A 
BRANCH  18  24
ATOM     24  O   UNL     1       2.372   4.598  19.605  0.00  0.00    +0.000 OA
BRANCH  24  26
ATOM     25  C   UNL     1       2.107   3.360  21.626  0.00  0.00    +0.000 C 
ATOM     26  C   UNL     1       2.548   3.290  20.166  0.00  0.00    +0.000 C 
ATOM     27  C   UNL     1       1.692   2.275  19.412  0.00  0.00    +0.000 C 
ENDBRANCH  24  26
ENDBRANCH  18  24
ENDBRANCH  17  21
ENDBRANCH   1  17
TORSDOF 6
ENDMDL
MODEL 5
REMARK VINA RESULT:      -7.5      6.091      9.419
REMARK  Name = 
REMARK  10 active torsions:
REMARK  status: ('A' for Active; 'I' for Inactive)
REMARK    1  A    between atoms: C_1  and  C_2
REMARK    2  A    between atoms: C_2  and  C_3
REMARK    3  A    between atoms: C_2  and  O_4
REMARK    4  A    between atoms: O_4  and  C_5
REMARK    5  A    between atoms: C_8  and  C_9
REMARK    6  A    between atoms: C_9  and  N_10
REMARK    7  A    between atoms: C_11  and  C_13
REMARK    8  A    between atoms: C_18  and  C_19
REMARK    9  A    between atoms: C_19  and  C_20
REMARK   10  A    between atoms: C_19  and  C_21
REMARK                            x       y       z     vdW  Elec       q    Type
REMARK                         _______ _______ _______ _____ _____    ______ ____
ROOT
ATOM      1  N   UNL     1       7.390   7.864  16.974  0.00  0.00    +0.000 N 
ATOM      2  C   UNL     1       8.131   8.188  18.092  0.00  0.00    +0.000 C 
ATOM      3  O   UNL     1       8.505   7.340  18.897  0.00  0.00    +0.000 OA
ATOM      4  H   UNL     1       7.296   8.529  16.221  0.00  0.00    +0.000 HD
ENDROOT
BRANCH   2   5
ATOM      5  C   UNL     1       8.540   9.609  18.310  0.00  0.00    +0.000 A 
ATOM      6  C   UNL     1       9.282   9.845  19.486  0.00  0.00    +0.000 A 
ATOM      7  C   UNL     1       9.663  11.133  19.875  0.00  0.00    +0.000 A 
ATOM      8  C   UNL     1       9.271  12.201  19.067  0.00  0.00    +0.000 A 
ATOM      9  N   UNL     1       9.468  13.542  19.235  0.00  0.00    +0.000 NA
ATOM     10  C   UNL     1       8.869  14.083  18.194  0.00  0.00    +0.000 A 
ATOM     11  O   UNL     1       8.290  13.174  17.331  0.00  0.00    +0.000 OA
ATOM     12  C   UNL     1       8.552  11.953  17.908  0.00  0.00    +0.000 A 
ATOM     13  C   UNL     1       8.166  10.675  17.468  0.00  0.00    +0.000 A 
BRANCH  10  14
ATOM     14  C   UNL     1       8.742  15.542  17.878  0.00  0.00    +0.000 C 
ATOM     15  C   UNL     1       7.456  16.115  18.475  0.00  0.00    +0.000 C 
ATOM     16  C   UNL     1       9.942  16.324  18.428  0.00  0.00    +0.000 C 
ENDBRANCH  10  14
ENDBRANCH   2   5
BRANCH   1  17
ATOM     17  C   UNL     1       7.192   6.457  16.658  0.00  0.00    +0.000 C 
BRANCH  17  21
ATOM     18  C   UNL     1       3.330   4.986  17.960  0.00  0.00    +0.000 A 
ATOM     19  C   UNL     1       4.392   4.106  17.759  0.00  0.00    +0.000 A 
ATOM     20  C   UNL     1       5.639   4.580  17.333  0.00  0.00    +0.000 A 
ATOM     21  C   UNL     1       5.841   5.943  17.081  0.00  0.00    +0.000 A 
ATOM     22  C   UNL     1       4.775   6.825  17.292  0.00  0.00    +0.000 A 
ATOM     23  C   UNL     1       3.532   6.348  17.724  0.00  0.00    +0.000 A 
BRANCH  18  24
ATOM     24  O   UNL     1       2.070   4.649  18.369  0.00  0.00    +0.000 OA
BRANCH  24  26
ATOM     25  C   UNL     1       1.554   5.013  20.669  0.00  0.00    +0.000 C 
ATOM     26  C   UNL     1       1.902   3.963  19.617  0.00  0.00    +0.000 C 
ATOM     27  C   UNL     1       0.772   2.942  19.508  0.00  0.00    +0.000 C 
ENDBRANCH  24  26
ENDBRANCH  18  24
ENDBRANCH  17  21
ENDBRANCH   1  17
TORSDOF 6
ENDMDL
MODEL 6
REMARK VINA RESULT:      -7.4      3.068      4.362
REMARK  Name = 
REMARK  10 active torsions:
REMARK  status: ('A' for Active; 'I' for Inactive)
REMARK    1  A    between atoms: C_1  and  C_2
REMARK    2  A    between atoms: C_2  and  C_3
REMARK    3  A    between atoms: C_2  and  O_4
REMARK    4  A    between atoms: O_4  and  C_5
REMARK    5  A    between atoms: C_8  and  C_9
REMARK    6  A    between atoms: C_9  and  N_10
REMARK    7  A    between atoms: C_11  and  C_13
REMARK    8  A    between atoms: C_18  and  C_19
REMARK    9  A    between atoms: C_19  and  C_20
REMARK   10  A    between atoms: C_19  and  C_21
REMARK                            x       y       z     vdW  Elec       q    Type
REMARK                         _______ _______ _______ _____ _____    ______ ____
ROOT
ATOM      1  N   UNL     1       2.854   6.494  19.778  0.00  0.00    +0.000 N 
ATOM      2  C   UNL     1       3.395   5.231  19.657  0.00  0.00    +0.000 C 
ATOM      3  O   UNL     1       3.031   4.293  20.361  0.00  0.00    +0.000 OA
ATOM      4  H   UNL     1       2.998   7.176  19.048  0.00  0.00    +0.000 HD
ENDROOT
BRANCH   2   5
ATOM      5  C   UNL     1       4.420   4.973  18.600  0.00  0.00    +0.000 A 
ATOM      6  C   UNL     1       5.746   5.287  18.962  0.00  0.00    +0.000 A 
ATOM      7  C   UNL     1       6.806   5.184  18.055  0.00  0.00    +0.000 A 
ATOM      8  C   UNL     1       6.512   4.774  16.754  0.00  0.00    +0.000 A 
ATOM      9  N   UNL     1       7.338   4.634  15.675  0.00  0.00    +0.000 NA
ATOM     10  C   UNL     1       6.532   4.247  14.707  0.00  0.00    +0.000 A 
ATOM     11  O   UNL     1       5.210   4.111  15.084  0.00  0.00    +0.000 OA
ATOM     12  C   UNL     1       5.205   4.458  16.415  0.00  0.00    +0.000 A 
ATOM     13  C   UNL     1       4.115   4.526  17.298  0.00  0.00    +0.000 A 
BRANCH  10  14
ATOM     14  C   UNL     1       6.896   3.972  13.280  0.00  0.00    +0.000 C 
ATOM     15  C   UNL     1       5.654   3.604  12.467  0.00  0.00    +0.000 C 
ATOM     16  C   UNL     1       7.566   5.196  12.644  0.00  0.00    +0.000 C 
ENDBRANCH  10  14
ENDBRANCH   2   5
BRANCH   1  17
ATOM     17  C   UNL     1       1.705   6.675  20.654  0.00  0.00    +0.000 C 
BRANCH  17  21
ATOM     18  C   UNL     1       0.483  10.822  20.932  0.00  0.00    +0.000 A 
ATOM     19  C   UNL     1       0.419   9.988  22.048  0.00  0.00    +0.000 A 
ATOM     20  C   UNL     1       0.809   8.646  21.957  0.00  0.00    +0.000 A 
ATOM     21  C   UNL     1       1.252   8.108  20.742  0.00  0.00    +0.000 A 
ATOM     22  C   UNL     1       1.323   8.950  19.626  0.00  0.00    +0.000 A 
ATOM     23  C   UNL     1       0.938  10.292  19.722  0.00  0.00    +0.000 A 
BRANCH  18  24
ATOM     24  O   UNL     1       0.130  12.142  20.892  0.00  0.00    +0.000 OA
BRANCH  24  26
ATOM     25  C   UNL     1      -2.212  12.513  21.149  0.00  0.00    +0.000 C 
ATOM     26  C   UNL     1      -1.045  12.528  20.165  0.00  0.00    +0.000 C 
ATOM     27  C   UNL     1      -0.869  13.931  19.589  0.00  0.00    +0.000 C 
ENDBRANCH  24  26
ENDBRANCH  18  24
ENDBRANCH  17  21
ENDBRANCH   1  17
TORSDOF 6
ENDMDL
MODEL 7
REMARK VINA RESULT:      -7.3      3.444      4.754
REMARK  Name = 
REMARK  10 active torsions:
REMARK  status: ('A' for Active; 'I' for Inactive)
REMARK    1  A    between atoms: C_1  and  C_2
REMARK    2  A    between atoms: C_2  and  C_3
REMARK    3  A    between atoms: C_2  and  O_4
REMARK    4  A    between atoms: O_4  and  C_5
REMARK    5  A    between atoms: C_8  and  C_9
REMARK    6  A    between atoms: C_9  and  N_10
REMARK    7  A    between atoms: C_11  and  C_13
REMARK    8  A    between atoms: C_18  and  C_19
REMARK    9  A    between atoms: C_19  and  C_20
REMARK   10  A    between atoms: C_19  and  C_21
REMARK                            x       y       z     vdW  Elec       q    Type
REMARK                         _______ _______ _______ _____ _____    ______ ____
ROOT
ATOM      1  N   UNL     1       3.201   6.146  19.829  0.00  0.00    +0.000 N 
ATOM      2  C   UNL     1       3.070   5.351  18.708  0.00  0.00    +0.000 C 
ATOM      3  O   UNL     1       2.026   4.760  18.444  0.00  0.00    +0.000 OA
ATOM      4  H   UNL     1       3.971   6.794  19.900  0.00  0.00    +0.000 HD
ENDROOT
BRANCH   2   5
ATOM      5  C   UNL     1       4.212   5.244  17.751  0.00  0.00    +0.000 A 
ATOM      6  C   UNL     1       5.353   5.999  18.093  0.00  0.00    +0.000 A 
ATOM      7  C   UNL     1       6.471   6.072  17.255  0.00  0.00    +0.000 A 
ATOM      8  C   UNL     1       6.423   5.384  16.043  0.00  0.00    +0.000 A 
ATOM      9  N   UNL     1       7.344   5.323  15.036  0.00  0.00    +0.000 NA
ATOM     10  C   UNL     1       6.772   4.557  14.129  0.00  0.00    +0.000 A 
ATOM     11  O   UNL     1       5.520   4.092  14.481  0.00  0.00    +0.000 OA
ATOM     12  C   UNL     1       5.299   4.637  15.725  0.00  0.00    +0.000 A 
ATOM     13  C   UNL     1       4.164   4.517  16.544  0.00  0.00    +0.000 A 
BRANCH  10  14
ATOM     14  C   UNL     1       7.322   4.172  12.789  0.00  0.00    +0.000 C 
ATOM     15  C   UNL     1       6.326   3.298  12.027  0.00  0.00    +0.000 C 
ATOM     16  C   UNL     1       7.637   5.419  11.953  0.00  0.00    +0.000 C 
ENDBRANCH  10  14
ENDBRANCH   2   5
BRANCH   1  17
ATOM     17  C   UNL     1       2.015   6.419  20.628  0.00  0.00    +0.000 C 
BRANCH  17  21
ATOM     18  C   UNL     1       0.438  10.399  19.966  0.00  0.00    +0.000 A 
ATOM     19  C   UNL     1       0.143   9.707  21.140  0.00  0.00    +0.000 A 
ATOM     20  C   UNL     1       0.649   8.418  21.352  0.00  0.00    +0.000 A 
ATOM     21  C   UNL     1       1.442   7.790  20.384  0.00  0.00    +0.000 A 
ATOM     22  C   UNL     1       1.743   8.491  19.210  0.00  0.00    +0.000 A 
ATOM     23  C   UNL     1       1.241   9.781  19.004  0.00  0.00    +0.000 A 
BRANCH  18  24
ATOM     24  O   UNL     1       0.004  11.654  19.641  0.00  0.00    +0.000 OA
BRANCH  24  26
ATOM     25  C   UNL     1       0.212  13.822  18.669  0.00  0.00    +0.000 C 
ATOM     26  C   UNL     1       0.970  12.660  19.307  0.00  0.00    +0.000 C 
ATOM     27  C   UNL     1       1.689  13.137  20.566  0.00  0.00    +0.000 C 
ENDBRANCH  24  26
ENDBRANCH  18  24
ENDBRANCH  17  21
ENDBRANCH   1  17
TORSDOF 6
ENDMDL
MODEL 8
REMARK VINA RESULT:      -7.3      3.279      4.579
REMARK  Name = 
REMARK  10 active torsions:
REMARK  status: ('A' for Active; 'I' for Inactive)
REMARK    1  A    between atoms: C_1  and  C_2
REMARK    2  A    between atoms: C_2  and  C_3
REMARK    3  A    between atoms: C_2  and  O_4
REMARK    4  A    between atoms: O_4  and  C_5
REMARK    5  A    between atoms: C_8  and  C_9
REMARK    6  A    between atoms: C_9  and  N_10
REMARK    7  A    between atoms: C_11  and  C_13
REMARK    8  A    between atoms: C_18  and  C_19
REMARK    9  A    between atoms: C_19  and  C_20
REMARK   10  A    between atoms: C_19  and  C_21
REMARK                            x       y       z     vdW  Elec       q    Type
REMARK                         _______ _______ _______ _____ _____    ______ ____
ROOT
ATOM      1  N   UNL     1       3.109   6.166  19.908  0.00  0.00    +0.000 N 
ATOM      2  C   UNL     1       3.000   5.313  18.829  0.00  0.00    +0.000 C 
ATOM      3  O   UNL     1       1.976   4.675  18.600  0.00  0.00    +0.000 OA
ATOM      4  H   UNL     1       3.857   6.842  19.943  0.00  0.00    +0.000 HD
ENDROOT
BRANCH   2   5
ATOM      5  C   UNL     1       4.142   5.197  17.871  0.00  0.00    +0.000 A 
ATOM      6  C   UNL     1       5.288   5.943  18.213  0.00  0.00    +0.000 A 
ATOM      7  C   UNL     1       6.406   6.008  17.375  0.00  0.00    +0.000 A 
ATOM      8  C   UNL     1       6.353   5.319  16.163  0.00  0.00    +0.000 A 
ATOM      9  N   UNL     1       7.273   5.251  15.156  0.00  0.00    +0.000 NA
ATOM     10  C   UNL     1       6.695   4.488  14.250  0.00  0.00    +0.000 A 
ATOM     11  O   UNL     1       5.440   4.032  14.602  0.00  0.00    +0.000 OA
ATOM     12  C   UNL     1       5.224   4.580  15.846  0.00  0.00    +0.000 A 
ATOM     13  C   UNL     1       4.088   4.469  16.665  0.00  0.00    +0.000 A 
BRANCH  10  14
ATOM     14  C   UNL     1       7.242   4.098  12.910  0.00  0.00    +0.000 C 
ATOM     15  C   UNL     1       6.189   3.348  12.094  0.00  0.00    +0.000 C 
ATOM     16  C   UNL     1       7.695   5.337  12.127  0.00  0.00    +0.000 C 
ENDBRANCH  10  14
ENDBRANCH   2   5
BRANCH   1  17
ATOM     17  C   UNL     1       1.918   6.438  20.700  0.00  0.00    +0.000 C 
BRANCH  17  21
ATOM     18  C   UNL     1       0.454  10.495  20.300  0.00  0.00    +0.000 A 
ATOM     19  C   UNL     1       1.054   9.850  19.221  0.00  0.00    +0.000 A 
ATOM     20  C   UNL     1       1.532   8.540  19.351  0.00  0.00    +0.000 A 
ATOM     21  C   UNL     1       1.436   7.859  20.570  0.00  0.00    +0.000 A 
ATOM     22  C   UNL     1       0.825   8.507  21.650  0.00  0.00    +0.000 A 
ATOM     23  C   UNL     1       0.343   9.814  21.515  0.00  0.00    +0.000 A 
BRANCH  18  24
ATOM     24  O   UNL     1      -0.047  11.768  20.301  0.00  0.00    +0.000 OA
BRANCH  24  26
ATOM     25  C   UNL     1       0.593  13.691  21.558  0.00  0.00    +0.000 C 
ATOM     26  C   UNL     1      -0.268  12.430  21.553  0.00  0.00    +0.000 C 
ATOM     27  C   UNL     1      -1.741  12.805  21.697  0.00  0.00    +0.000 C 
ENDBRANCH  24  26
ENDBRANCH  18  24
ENDBRANCH  17  21
ENDBRANCH   1  17
TORSDOF 6
ENDMDL
MODEL 9
REMARK VINA RESULT:      -7.3      2.539      4.411
REMARK  Name = 
REMARK  10 active torsions:
REMARK  status: ('A' for Active; 'I' for Inactive)
REMARK    1  A    between atoms: C_1  and  C_2
REMARK    2  A    between atoms: C_2  and  C_3
REMARK    3  A    between atoms: C_2  and  O_4
REMARK    4  A    between atoms: O_4  and  C_5
REMARK    5  A    between atoms: C_8  and  C_9
REMARK    6  A    between atoms: C_9  and  N_10
REMARK    7  A    between atoms: C_11  and  C_13
REMARK    8  A    between atoms: C_18  and  C_19
REMARK    9  A    between atoms: C_19  and  C_20
REMARK   10  A    between atoms: C_19  and  C_21
REMARK                            x       y       z     vdW  Elec       q    Type
REMARK                         _______ _______ _______ _____ _____    ______ ____
ROOT
ATOM      1  N   UNL     1       3.286   6.051  19.934  0.00  0.00    +0.000 N 
ATOM      2  C   UNL     1       3.160   5.254  18.815  0.00  0.00    +0.000 C 
ATOM      3  O   UNL     1       2.125   4.642  18.562  0.00  0.00    +0.000 OA
ATOM      4  H   UNL     1       4.045   6.714  19.997  0.00  0.00    +0.000 HD
ENDROOT
BRANCH   2   5
ATOM      5  C   UNL     1       4.295   5.168  17.846  0.00  0.00    +0.000 A 
ATOM      6  C   UNL     1       5.444   5.902  18.204  0.00  0.00    +0.000 A 
ATOM      7  C   UNL     1       6.557   5.993  17.361  0.00  0.00    +0.000 A 
ATOM      8  C   UNL     1       6.495   5.344  16.128  0.00  0.00    +0.000 A 
ATOM      9  N   UNL     1       7.407   5.308  15.112  0.00  0.00    +0.000 NA
ATOM     10  C   UNL     1       6.822   4.576  14.186  0.00  0.00    +0.000 A 
ATOM     11  O   UNL     1       5.569   4.111  14.531  0.00  0.00    +0.000 OA
ATOM     12  C   UNL     1       5.362   4.617  15.794  0.00  0.00    +0.000 A 
ATOM     13  C   UNL     1       4.232   4.481  16.617  0.00  0.00    +0.000 A 
BRANCH  10  14
ATOM     14  C   UNL     1       7.360   4.231  12.830  0.00  0.00    +0.000 C 
ATOM     15  C   UNL     1       6.358   3.376  12.053  0.00  0.00    +0.000 C 
ATOM     16  C   UNL     1       7.664   5.501  12.026  0.00  0.00    +0.000 C 
ENDBRANCH  10  14
ENDBRANCH   2   5
BRANCH   1  17
ATOM     17  C   UNL     1       2.104   6.301  20.745  0.00  0.00    +0.000 C 
BRANCH  17  21
ATOM     18  C   UNL     1       0.414  10.231  20.062  0.00  0.00    +0.000 A 
ATOM     19  C   UNL     1       0.134   9.534  21.237  0.00  0.00    +0.000 A 
ATOM     20  C   UNL     1       0.676   8.262  21.455  0.00  0.00    +0.000 A 
ATOM     21  C   UNL     1       1.492   7.654  20.494  0.00  0.00    +0.000 A 
ATOM     22  C   UNL     1       1.778   8.360  19.319  0.00  0.00    +0.000 A 
ATOM     23  C   UNL     1       1.240   9.634  19.107  0.00  0.00    +0.000 A 
BRANCH  18  24
ATOM     24  O   UNL     1      -0.054  11.472  19.731  0.00  0.00    +0.000 OA
BRANCH  24  26
ATOM     25  C   UNL     1      -1.282  13.179  20.856  0.00  0.00    +0.000 C 
ATOM     26  C   UNL     1      -1.382  11.844  20.122  0.00  0.00    +0.000 C 
ATOM     27  C   UNL     1      -2.271  11.994  18.889  0.00  0.00    +0.000 C 
ENDBRANCH  24  26
ENDBRANCH  18  24
ENDBRANCH  17  21
ENDBRANCH   1  17
TORSDOF 6
ENDMDL
