MODEL 1
REMARK VINA RESULT:      -6.8      0.000      0.000
REMARK  Name = 
REMARK  5 active torsions:
REMARK  status: ('A' for Active; 'I' for Inactive)
REMARK    1  A    between atoms: C_1  and  O_2
REMARK    2  A    between atoms: O_2  and  C_3
REMARK    3  A    between atoms: C_6  and  O_7
REMARK    4  A    between atoms: C_15  and  C_16
REMARK    5  A    between atoms: C_18  and  C_19
REMARK                            x       y       z     vdW  Elec       q    Type
REMARK                         _______ _______ _______ _____ _____    ______ ____
ROOT
ATOM      1  C   UNL     1       7.207  17.055  18.675  0.00  0.00    +0.000 A 
ATOM      2  C   UNL     1       5.838  16.952  18.871  0.00  0.00    +0.000 A 
ATOM      3  C   UNL     1       5.157  15.793  18.580  0.00  0.00    +0.000 A 
ATOM      4  C   UNL     1       5.786  14.675  18.076  0.00  0.00    +0.000 A 
ATOM      5  C   UNL     1       7.174  14.720  17.882  0.00  0.00    +0.000 A 
ATOM      6  C   UNL     1       7.878  15.912  18.173  0.00  0.00    +0.000 A 
ATOM      7  C   UNL     1       9.354  15.911  18.023  0.00  0.00    +0.000 C 
ATOM      8  O   UNL     1      10.019  16.934  17.911  0.00  0.00    +0.000 OA
ATOM      9  C   UNL     1      10.031  14.591  18.060  0.00  0.00    +0.000 C 
ATOM     10  C   UNL     1       9.365  13.472  17.757  0.00  0.00    +0.000 C 
ATOM     11  C   UNL     1      10.039  12.134  17.704  0.00  0.00    +0.000 C 
ATOM     12  C   UNL     1      11.513  12.146  18.147  0.00  0.00    +0.000 C 
ATOM     13  C   UNL     1      11.741  11.597  19.552  0.00  0.00    +0.000 C 
ATOM     14  O   UNL     1      12.158  13.405  17.958  0.00  0.00    +0.000 OA
ATOM     15  C   UNL     1      11.488  14.588  18.418  0.00  0.00    +0.000 C 
ATOM     16  C   UNL     1      11.673  14.802  19.921  0.00  0.00    +0.000 C 
ATOM     17  C   UNL     1       7.921  13.525  17.422  0.00  0.00    +0.000 C 
ATOM     18  O   UNL     1       7.398  12.591  16.831  0.00  0.00    +0.000 OA
ATOM     19  O   UNL     1       3.828  15.869  18.881  0.00  0.00    +0.000 OA
ATOM     20  C   UNL     1       3.777  17.156  19.524  0.00  0.00    +0.000 C 
ATOM     21  O   UNL     1       4.997  17.900  19.369  0.00  0.00    +0.000 OA
ENDROOT
BRANCH   1  23
ATOM     22  C   UNL     1       8.122  18.533  20.304  0.00  0.00    +0.000 C 
ATOM     23  O   UNL     1       7.942  18.174  18.941  0.00  0.00    +0.000 OA
ENDBRANCH   1  23
BRANCH   4  24
ATOM     24  O   UNL     1       5.047  13.556  17.849  0.00  0.00    +0.000 OA
ATOM     25  H   UNL     1       4.814  13.537  16.902  0.00  0.00    +0.000 HD
ENDBRANCH   4  24
TORSDOF 2
ENDMDL
MODEL 2
REMARK VINA RESULT:      -6.6      9.712     11.886
REMARK  Name = 
REMARK  5 active torsions:
REMARK  status: ('A' for Active; 'I' for Inactive)
REMARK    1  A    between atoms: C_1  and  O_2
REMARK    2  A    between atoms: O_2  and  C_3
REMARK    3  A    between atoms: C_6  and  O_7
REMARK    4  A    between atoms: C_15  and  C_16
REMARK    5  A    between atoms: C_18  and  C_19
REMARK                            x       y       z     vdW  Elec       q    Type
REMARK                         _______ _______ _______ _____ _____    ______ ____
ROOT
ATOM      1  C   UNL     1      -4.645  13.106  20.380  0.00  0.00    +0.000 A 
ATOM      2  C   UNL     1      -5.709  12.885  19.520  0.00  0.00    +0.000 A 
ATOM      3  C   UNL     1      -5.554  12.169  18.356  0.00  0.00    +0.000 A 
ATOM      4  C   UNL     1      -4.342  11.635  17.975  0.00  0.00    +0.000 A 
ATOM      5  C   UNL     1      -3.239  11.810  18.822  0.00  0.00    +0.000 A 
ATOM      6  C   UNL     1      -3.392  12.553  20.016  0.00  0.00    +0.000 A 
ATOM      7  C   UNL     1      -2.226  12.664  20.928  0.00  0.00    +0.000 C 
ATOM      8  O   UNL     1      -2.126  13.532  21.787  0.00  0.00    +0.000 OA
ATOM      9  C   UNL     1      -1.169  11.632  20.795  0.00  0.00    +0.000 C 
ATOM     10  C   UNL     1      -1.015  10.954  19.653  0.00  0.00    +0.000 C 
ATOM     11  C   UNL     1       0.095   9.964  19.459  0.00  0.00    +0.000 C 
ATOM     12  C   UNL     1       0.947   9.709  20.714  0.00  0.00    +0.000 C 
ATOM     13  C   UNL     1       0.631   8.394  21.420  0.00  0.00    +0.000 C 
ATOM     14  O   UNL     1       0.969  10.808  21.625  0.00  0.00    +0.000 OA
ATOM     15  C   UNL     1      -0.279  11.418  21.983  0.00  0.00    +0.000 C 
ATOM     16  C   UNL     1      -1.011  10.629  23.070  0.00  0.00    +0.000 C 
ATOM     17  C   UNL     1      -1.929  11.190  18.509  0.00  0.00    +0.000 C 
ATOM     18  O   UNL     1      -1.601  10.841  17.385  0.00  0.00    +0.000 OA
ATOM     19  O   UNL     1      -6.722  12.019  17.665  0.00  0.00    +0.000 OA
ATOM     20  C   UNL     1      -7.654  12.603  18.595  0.00  0.00    +0.000 C 
ATOM     21  O   UNL     1      -7.001  13.289  19.676  0.00  0.00    +0.000 OA
ENDROOT
BRANCH   1  23
ATOM     22  C   UNL     1      -5.447  13.213  22.621  0.00  0.00    +0.000 C 
ATOM     23  O   UNL     1      -4.730  13.808  21.548  0.00  0.00    +0.000 OA
ENDBRANCH   1  23
BRANCH   4  24
ATOM     24  O   UNL     1      -4.281  10.908  16.826  0.00  0.00    +0.000 OA
ATOM     25  H   UNL     1      -4.280  11.532  16.075  0.00  0.00    +0.000 HD
ENDBRANCH   4  24
TORSDOF 2
ENDMDL
MODEL 3
REMARK VINA RESULT:      -6.5      9.480     13.842
REMARK  Name = 
REMARK  5 active torsions:
REMARK  status: ('A' for Active; 'I' for Inactive)
REMARK    1  A    between atoms: C_1  and  O_2
REMARK    2  A    between atoms: O_2  and  C_3
REMARK    3  A    between atoms: C_6  and  O_7
REMARK    4  A    between atoms: C_15  and  C_16
REMARK    5  A    between atoms: C_18  and  C_19
REMARK                            x       y       z     vdW  Elec       q    Type
REMARK                         _______ _______ _______ _____ _____    ______ ____
ROOT
ATOM      1  C   UNL     1      -2.427  10.594  17.913  0.00  0.00    +0.000 A 
ATOM      2  C   UNL     1      -1.091  10.501  18.271  0.00  0.00    +0.000 A 
ATOM      3  C   UNL     1      -0.563  11.274  19.278  0.00  0.00    +0.000 A 
ATOM      4  C   UNL     1      -1.321  12.183  19.984  0.00  0.00    +0.000 A 
ATOM      5  C   UNL     1      -2.683  12.299  19.676  0.00  0.00    +0.000 A 
ATOM      6  C   UNL     1      -3.230  11.511  18.636  0.00  0.00    +0.000 A 
ATOM      7  C   UNL     1      -4.688  11.604  18.377  0.00  0.00    +0.000 C 
ATOM      8  O   UNL     1      -5.207  11.253  17.323  0.00  0.00    +0.000 OA
ATOM      9  C   UNL     1      -5.536  12.107  19.485  0.00  0.00    +0.000 C 
ATOM     10  C   UNL     1      -5.017  12.873  20.449  0.00  0.00    +0.000 C 
ATOM     11  C   UNL     1      -5.862  13.467  21.536  0.00  0.00    +0.000 C 
ATOM     12  C   UNL     1      -7.333  13.016  21.516  0.00  0.00    +0.000 C 
ATOM     13  C   UNL     1      -7.675  11.968  22.570  0.00  0.00    +0.000 C 
ATOM     14  O   UNL     1      -7.798  12.636  20.221  0.00  0.00    +0.000 OA
ATOM     15  C   UNL     1      -6.990  11.740  19.444  0.00  0.00    +0.000 C 
ATOM     16  C   UNL     1      -7.189  10.283  19.861  0.00  0.00    +0.000 C 
ATOM     17  C   UNL     1      -3.569  13.198  20.454  0.00  0.00    +0.000 C 
ATOM     18  O   UNL     1      -3.159  14.143  21.111  0.00  0.00    +0.000 OA
ATOM     19  O   UNL     1       0.755  11.009  19.515  0.00  0.00    +0.000 OA
ATOM     20  C   UNL     1       0.958   9.885  18.638  0.00  0.00    +0.000 C 
ATOM     21  O   UNL     1      -0.145   9.674  17.743  0.00  0.00    +0.000 OA
ENDROOT
BRANCH   1  23
ATOM     22  C   UNL     1      -2.704  10.199  15.579  0.00  0.00    +0.000 C 
ATOM     23  O   UNL     1      -3.014   9.858  16.923  0.00  0.00    +0.000 OA
ENDBRANCH   1  23
BRANCH   4  24
ATOM     24  O   UNL     1      -0.731  12.884  20.990  0.00  0.00    +0.000 OA
ATOM     25  H   UNL     1      -1.150  13.765  21.029  0.00  0.00    +0.000 HD
ENDBRANCH   4  24
TORSDOF 2
ENDMDL
MODEL 4
REMARK VINA RESULT:      -6.5      8.744     10.460
REMARK  Name = 
REMARK  5 active torsions:
REMARK  status: ('A' for Active; 'I' for Inactive)
REMARK    1  A    between atoms: C_1  and  O_2
REMARK    2  A    between atoms: O_2  and  C_3
REMARK    3  A    between atoms: C_6  and  O_7
REMARK    4  A    between atoms: C_15  and  C_16
REMARK    5  A    between atoms: C_18  and  C_19
REMARK                            x       y       z     vdW  Elec       q    Type
REMARK                         _______ _______ _______ _____ _____    ______ ____
ROOT
ATOM      1  C   UNL     1       0.362   8.980  20.735  0.00  0.00    +0.000 A 
ATOM      2  C   UNL     1      -0.017  10.154  20.104  0.00  0.00    +0.000 A 
ATOM      3  C   UNL     1       0.563  10.554  18.923  0.00  0.00    +0.000 A 
ATOM      4  C   UNL     1       1.550   9.821  18.302  0.00  0.00    +0.000 A 
ATOM      5  C   UNL     1       1.953   8.612  18.886  0.00  0.00    +0.000 A 
ATOM      6  C   UNL     1       1.365   8.200  20.105  0.00  0.00    +0.000 A 
ATOM      7  C   UNL     1       1.760   6.885  20.667  0.00  0.00    +0.000 C 
ATOM      8  O   UNL     1       1.594   6.579  21.841  0.00  0.00    +0.000 OA
ATOM      9  C   UNL     1       2.338   5.898  19.722  0.00  0.00    +0.000 C 
ATOM     10  C   UNL     1       2.917   6.299  18.585  0.00  0.00    +0.000 C 
ATOM     11  C   UNL     1       3.584   5.336  17.649  0.00  0.00    +0.000 C 
ATOM     12  C   UNL     1       3.434   3.856  18.045  0.00  0.00    +0.000 C 
ATOM     13  C   UNL     1       2.400   3.096  17.220  0.00  0.00    +0.000 C 
ATOM     14  O   UNL     1       3.247   3.654  19.446  0.00  0.00    +0.000 OA
ATOM     15  C   UNL     1       2.268   4.455  20.123  0.00  0.00    +0.000 C 
ATOM     16  C   UNL     1       0.852   3.911  19.932  0.00  0.00    +0.000 C 
ATOM     17  C   UNL     1       2.949   7.737  18.224  0.00  0.00    +0.000 C 
ATOM     18  O   UNL     1       3.746   8.138  17.388  0.00  0.00    +0.000 OA
ATOM     19  O   UNL     1       0.028  11.711  18.434  0.00  0.00    +0.000 OA
ATOM     20  C   UNL     1      -1.049  11.918  19.368  0.00  0.00    +0.000 C 
ATOM     21  O   UNL     1      -0.973  11.040  20.502  0.00  0.00    +0.000 OA
ENDROOT
BRANCH   1  23
ATOM     22  C   UNL     1      -0.021   9.346  23.058  0.00  0.00    +0.000 C 
ATOM     23  O   UNL     1      -0.171   8.526  21.907  0.00  0.00    +0.000 OA
ENDBRANCH   1  23
BRANCH   4  24
ATOM     24  O   UNL     1       2.046  10.267  17.116  0.00  0.00    +0.000 OA
ATOM     25  H   UNL     1       2.557   9.539  16.711  0.00  0.00    +0.000 HD
ENDBRANCH   4  24
TORSDOF 2
ENDMDL
MODEL 5
REMARK VINA RESULT:      -6.4      8.610     11.444
REMARK  Name = 
REMARK  5 active torsions:
REMARK  status: ('A' for Active; 'I' for Inactive)
REMARK    1  A    between atoms: C_1  and  O_2
REMARK    2  A    between atoms: O_2  and  C_3
REMARK    3  A    between atoms: C_6  and  O_7
REMARK    4  A    between atoms: C_15  and  C_16
REMARK    5  A    between atoms: C_18  and  C_19
REMARK                            x       y       z     vdW  Elec       q    Type
REMARK                         _______ _______ _______ _____ _____    ______ ____
ROOT
ATOM      1  C   UNL     1       3.523   5.263  19.825  0.00  0.00    +0.000 A 
ATOM      2  C   UNL     1       4.617   4.971  19.025  0.00  0.00    +0.000 A 
ATOM      3  C   UNL     1       4.917   5.727  17.917  0.00  0.00    +0.000 A 
ATOM      4  C   UNL     1       4.155   6.810  17.535  0.00  0.00    +0.000 A 
ATOM      5  C   UNL     1       3.051   7.161  18.324  0.00  0.00    +0.000 A 
ATOM      6  C   UNL     1       2.733   6.382  19.461  0.00  0.00    +0.000 A 
ATOM      7  C   UNL     1       1.601   6.816  20.317  0.00  0.00    +0.000 C 
ATOM      8  O   UNL     1       1.027   6.070  21.100  0.00  0.00    +0.000 OA
ATOM      9  C   UNL     1       1.201   8.242  20.228  0.00  0.00    +0.000 C 
ATOM     10  C   UNL     1       1.482   8.964  19.138  0.00  0.00    +0.000 C 
ATOM     11  C   UNL     1       1.019  10.381  18.982  0.00  0.00    +0.000 C 
ATOM     12  C   UNL     1       0.316  10.961  20.222  0.00  0.00    +0.000 C 
ATOM     13  C   UNL     1       1.186  11.909  21.041  0.00  0.00    +0.000 C 
ATOM     14  O   UNL     1      -0.309   9.973  21.041  0.00  0.00    +0.000 OA
ATOM     15  C   UNL     1       0.449   8.807  21.395  0.00  0.00    +0.000 C 
ATOM     16  C   UNL     1       1.395   9.074  22.567  0.00  0.00    +0.000 C 
ATOM     17  C   UNL     1       2.241   8.364  18.014  0.00  0.00    +0.000 C 
ATOM     18  O   UNL     1       2.208   8.886  16.909  0.00  0.00    +0.000 OA
ATOM     19  O   UNL     1       6.054   5.314  17.284  0.00  0.00    +0.000 OA
ATOM     20  C   UNL     1       6.510   4.299  18.199  0.00  0.00    +0.000 C 
ATOM     21  O   UNL     1       5.529   3.973  19.197  0.00  0.00    +0.000 OA
ENDROOT
BRANCH   1  23
ATOM     22  C   UNL     1       2.730   3.214  20.749  0.00  0.00    +0.000 C 
ATOM     23  O   UNL     1       3.168   4.553  20.936  0.00  0.00    +0.000 OA
ENDBRANCH   1  23
BRANCH   4  24
ATOM     24  O   UNL     1       4.541   7.529  16.447  0.00  0.00    +0.000 OA
ATOM     25  H   UNL     1       4.255   7.044  15.649  0.00  0.00    +0.000 HD
ENDBRANCH   4  24
TORSDOF 2
ENDMDL
MODEL 6
REMARK VINA RESULT:      -6.2      7.707      9.381
REMARK  Name = 
REMARK  5 active torsions:
REMARK  status: ('A' for Active; 'I' for Inactive)
REMARK    1  A    between atoms: C_1  and  O_2
REMARK    2  A    between atoms: O_2  and  C_3
REMARK    3  A    between atoms: C_6  and  O_7
REMARK    4  A    between atoms: C_15  and  C_16
REMARK    5  A    between atoms: C_18  and  C_19
REMARK                            x       y       z     vdW  Elec       q    Type
REMARK                         _______ _______ _______ _____ _____    ______ ____
ROOT
ATOM      1  C   UNL     1       1.969   8.829  18.500  0.00  0.00    +0.000 A 
ATOM      2  C   UNL     1       1.130   9.016  19.587  0.00  0.00    +0.000 A 
ATOM      3  C   UNL     1       1.013   8.067  20.574  0.00  0.00    +0.000 A 
ATOM      4  C   UNL     1       1.714   6.880  20.543  0.00  0.00    +0.000 A 
ATOM      5  C   UNL     1       2.595   6.653  19.477  0.00  0.00    +0.000 A 
ATOM      6  C   UNL     1       2.713   7.623  18.454  0.00  0.00    +0.000 A 
ATOM      7  C   UNL     1       3.702   7.388  17.373  0.00  0.00    +0.000 C 
ATOM      8  O   UNL     1       3.659   7.956  16.288  0.00  0.00    +0.000 OA
ATOM      9  C   UNL     1       4.811   6.448  17.671  0.00  0.00    +0.000 C 
ATOM     10  C   UNL     1       4.681   5.517  18.621  0.00  0.00    +0.000 C 
ATOM     11  C   UNL     1       5.749   4.499  18.889  0.00  0.00    +0.000 C 
ATOM     12  C   UNL     1       7.039   4.701  18.075  0.00  0.00    +0.000 C 
ATOM     13  C   UNL     1       8.185   5.315  18.873  0.00  0.00    +0.000 C 
ATOM     14  O   UNL     1       6.833   5.377  16.835  0.00  0.00    +0.000 OA
ATOM     15  C   UNL     1       6.051   6.579  16.838  0.00  0.00    +0.000 C 
ATOM     16  C   UNL     1       6.870   7.794  17.279  0.00  0.00    +0.000 C 
ATOM     17  C   UNL     1       3.439   5.435  19.429  0.00  0.00    +0.000 C 
ATOM     18  O   UNL     1       3.178   4.411  20.043  0.00  0.00    +0.000 OA
ATOM     19  O   UNL     1       0.176   8.449  21.582  0.00  0.00    +0.000 OA
ATOM     20  C   UNL     1      -0.112   9.803  21.184  0.00  0.00    +0.000 C 
ATOM     21  O   UNL     1       0.350  10.100  19.857  0.00  0.00    +0.000 OA
ENDROOT
BRANCH   1  23
ATOM     22  C   UNL     1       2.455  11.066  17.839  0.00  0.00    +0.000 C 
ATOM     23  O   UNL     1       2.131   9.729  17.485  0.00  0.00    +0.000 OA
ENDBRANCH   1  23
BRANCH   4  24
ATOM     24  O   UNL     1       1.571   6.009  21.578  0.00  0.00    +0.000 OA
ATOM     25  H   UNL     1       2.279   5.341  21.509  0.00  0.00    +0.000 HD
ENDBRANCH   4  24
TORSDOF 2
ENDMDL
MODEL 7
REMARK VINA RESULT:      -6.1      9.843     12.580
REMARK  Name = 
REMARK  5 active torsions:
REMARK  status: ('A' for Active; 'I' for Inactive)
REMARK    1  A    between atoms: C_1  and  O_2
REMARK    2  A    between atoms: O_2  and  C_3
REMARK    3  A    between atoms: C_6  and  O_7
REMARK    4  A    between atoms: C_15  and  C_16
REMARK    5  A    between atoms: C_18  and  C_19
REMARK                            x       y       z     vdW  Elec       q    Type
REMARK                         _______ _______ _______ _____ _____    ______ ____
ROOT
ATOM      1  C   UNL     1      -0.319  10.551  19.466  0.00  0.00    +0.000 A 
ATOM      2  C   UNL     1       0.515   9.596  20.024  0.00  0.00    +0.000 A 
ATOM      3  C   UNL     1       0.637   9.458  21.387  0.00  0.00    +0.000 A 
ATOM      4  C   UNL     1      -0.053  10.256  22.273  0.00  0.00    +0.000 A 
ATOM      5  C   UNL     1      -0.929  11.222  21.759  0.00  0.00    +0.000 A 
ATOM      6  C   UNL     1      -1.052  11.373  20.357  0.00  0.00    +0.000 A 
ATOM      7  C   UNL     1      -2.036  12.356  19.840  0.00  0.00    +0.000 C 
ATOM      8  O   UNL     1      -1.995  12.814  18.705  0.00  0.00    +0.000 OA
ATOM      9  C   UNL     1      -3.138  12.747  20.754  0.00  0.00    +0.000 C 
ATOM     10  C   UNL     1      -3.002  12.627  22.079  0.00  0.00    +0.000 C 
ATOM     11  C   UNL     1      -4.063  13.090  23.032  0.00  0.00    +0.000 C 
ATOM     12  C   UNL     1      -5.352  13.589  22.357  0.00  0.00    +0.000 C 
ATOM     13  C   UNL     1      -6.505  12.593  22.412  0.00  0.00    +0.000 C 
ATOM     14  O   UNL     1      -5.149  14.094  21.037  0.00  0.00    +0.000 OA
ATOM     15  C   UNL     1      -4.377  13.306  20.120  0.00  0.00    +0.000 C 
ATOM     16  C   UNL     1      -5.207  12.189  19.485  0.00  0.00    +0.000 C 
ATOM     17  C   UNL     1      -1.762  12.055  22.659  0.00  0.00    +0.000 C 
ATOM     18  O   UNL     1      -1.494  12.249  23.835  0.00  0.00    +0.000 OA
ATOM     19  O   UNL     1       1.469   8.437  21.745  0.00  0.00    +0.000 OA
ATOM     20  C   UNL     1       1.747   7.860  20.455  0.00  0.00    +0.000 C 
ATOM     21  O   UNL     1       1.286   8.681  19.370  0.00  0.00    +0.000 OA
ENDROOT
BRANCH   1  23
ATOM     22  C   UNL     1      -1.337   9.838  17.432  0.00  0.00    +0.000 C 
ATOM     23  O   UNL     1      -0.485  10.741  18.124  0.00  0.00    +0.000 OA
ENDBRANCH   1  23
BRANCH   4  24
ATOM     24  O   UNL     1       0.094  10.032  23.607  0.00  0.00    +0.000 OA
ATOM     25  H   UNL     1       0.176  10.898  24.050  0.00  0.00    +0.000 HD
ENDBRANCH   4  24
TORSDOF 2
ENDMDL
MODEL 8
REMARK VINA RESULT:      -6.1      7.254     11.241
REMARK  Name = 
REMARK  5 active torsions:
REMARK  status: ('A' for Active; 'I' for Inactive)
REMARK    1  A    between atoms: C_1  and  O_2
REMARK    2  A    between atoms: O_2  and  C_3
REMARK    3  A    between atoms: C_6  and  O_7
REMARK    4  A    between atoms: C_15  and  C_16
REMARK    5  A    between atoms: C_18  and  C_19
REMARK                            x       y       z     vdW  Elec       q    Type
REMARK                         _______ _______ _______ _____ _____    ______ ____
ROOT
ATOM      1  C   UNL     1       0.863  11.931  19.299  0.00  0.00    +0.000 A 
ATOM      2  C   UNL     1       1.325  10.679  18.924  0.00  0.00    +0.000 A 
ATOM      3  C   UNL     1       1.126   9.574  19.718  0.00  0.00    +0.000 A 
ATOM      4  C   UNL     1       0.464   9.643  20.925  0.00  0.00    +0.000 A 
ATOM      5  C   UNL     1      -0.044  10.882  21.338  0.00  0.00    +0.000 A 
ATOM      6  C   UNL     1       0.165  12.024  20.529  0.00  0.00    +0.000 A 
ATOM      7  C   UNL     1      -0.443  13.308  20.956  0.00  0.00    +0.000 C 
ATOM      8  O   UNL     1      -0.063  14.399  20.547  0.00  0.00    +0.000 OA
ATOM      9  C   UNL     1      -1.593  13.230  21.890  0.00  0.00    +0.000 C 
ATOM     10  C   UNL     1      -1.767  12.158  22.671  0.00  0.00    +0.000 C 
ATOM     11  C   UNL     1      -2.870  12.083  23.683  0.00  0.00    +0.000 C 
ATOM     12  C   UNL     1      -3.844  13.274  23.653  0.00  0.00    +0.000 C 
ATOM     13  C   UNL     1      -5.178  12.967  22.981  0.00  0.00    +0.000 C 
ATOM     14  O   UNL     1      -3.261  14.478  23.153  0.00  0.00    +0.000 OA
ATOM     15  C   UNL     1      -2.513  14.413  21.930  0.00  0.00    +0.000 C 
ATOM     16  C   UNL     1      -3.423  14.429  20.701  0.00  0.00    +0.000 C 
ATOM     17  C   UNL     1      -0.837  11.006  22.585  0.00  0.00    +0.000 C 
ATOM     18  O   UNL     1      -0.783  10.197  23.499  0.00  0.00    +0.000 OA
ATOM     19  O   UNL     1       1.612   8.426  19.162  0.00  0.00    +0.000 OA
ATOM     20  C   UNL     1       2.015   8.912  17.867  0.00  0.00    +0.000 C 
ATOM     21  O   UNL     1       1.988  10.346  17.781  0.00  0.00    +0.000 OA
ENDROOT
BRANCH   1  23
ATOM     22  C   UNL     1       2.355  13.533  18.358  0.00  0.00    +0.000 C 
ATOM     23  O   UNL     1       1.028  13.067  18.560  0.00  0.00    +0.000 OA
ENDBRANCH   1  23
BRANCH   4  24
ATOM     24  O   UNL     1       0.276   8.497  21.633  0.00  0.00    +0.000 OA
ATOM     25  H   UNL     1       0.300   7.749  21.006  0.00  0.00    +0.000 HD
ENDBRANCH   4  24
TORSDOF 2
ENDMDL
MODEL 9
REMARK VINA RESULT:      -6.0      9.666     11.873
REMARK  Name = 
REMARK  5 active torsions:
REMARK  status: ('A' for Active; 'I' for Inactive)
REMARK    1  A    between atoms: C_1  and  O_2
REMARK    2  A    between atoms: O_2  and  C_3
REMARK    3  A    between atoms: C_6  and  O_7
REMARK    4  A    between atoms: C_15  and  C_16
REMARK    5  A    between atoms: C_18  and  C_19
REMARK                            x       y       z     vdW  Elec       q    Type
REMARK                         _______ _______ _______ _____ _____    ______ ____
ROOT
ATOM      1  C   UNL     1      -4.240  13.148  22.347  0.00  0.00    +0.000 A 
ATOM      2  C   UNL     1      -5.464  13.270  21.709  0.00  0.00    +0.000 A 
ATOM      3  C   UNL     1      -5.603  13.003  20.367  0.00  0.00    +0.000 A 
ATOM      4  C   UNL     1      -4.543  12.604  19.581  0.00  0.00    +0.000 A 
ATOM      5  C   UNL     1      -3.288  12.442  20.184  0.00  0.00    +0.000 A 
ATOM      6  C   UNL     1      -3.138  12.723  21.563  0.00  0.00    +0.000 A 
ATOM      7  C   UNL     1      -1.816  12.477  22.190  0.00  0.00    +0.000 C 
ATOM      8  O   UNL     1      -1.471  12.986  23.250  0.00  0.00    +0.000 OA
ATOM      9  C   UNL     1      -0.911  11.528  21.497  0.00  0.00    +0.000 C 
ATOM     10  C   UNL     1      -1.042  11.289  20.188  0.00  0.00    +0.000 C 
ATOM     11  C   UNL     1      -0.092  10.401  19.442  0.00  0.00    +0.000 C 
ATOM     12  C   UNL     1       0.952   9.700  20.328  0.00  0.00    +0.000 C 
ATOM     13  C   UNL     1       0.647   8.230  20.599  0.00  0.00    +0.000 C 
ATOM     14  O   UNL     1       1.254  10.409  21.529  0.00  0.00    +0.000 OA
ATOM     15  C   UNL     1       0.162  10.889  22.327  0.00  0.00    +0.000 C 
ATOM     16  C   UNL     1      -0.426   9.789  23.213  0.00  0.00    +0.000 C 
ATOM     17  C   UNL     1      -2.129  11.936  19.412  0.00  0.00    +0.000 C 
ATOM     18  O   UNL     1      -2.055  11.994  18.193  0.00  0.00    +0.000 OA
ATOM     19  O   UNL     1      -6.889  13.136  19.930  0.00  0.00    +0.000 OA
ATOM     20  C   UNL     1      -7.566  13.381  21.177  0.00  0.00    +0.000 C 
ATOM     21  O   UNL     1      -6.657  13.628  22.261  0.00  0.00    +0.000 OA
ENDROOT
BRANCH   1  23
ATOM     22  C   UNL     1      -4.608  12.498  24.610  0.00  0.00    +0.000 C 
ATOM     23  O   UNL     1      -4.033  13.398  23.674  0.00  0.00    +0.000 OA
ENDBRANCH   1  23
BRANCH   4  24
ATOM     24  O   UNL     1      -4.772  12.324  18.270  0.00  0.00    +0.000 OA
ATOM     25  H   UNL     1      -4.498  13.100  17.744  0.00  0.00    +0.000 HD
ENDBRANCH   4  24
TORSDOF 2
ENDMDL
