MODEL 1
REMARK VINA RESULT:      -7.5      0.000      0.000
REMARK  Name = 
REMARK  4 active torsions:
REMARK  status: ('A' for Active; 'I' for Inactive)
REMARK    1  A    between atoms: C_1  and  C_2
REMARK    2  A    between atoms: C_2  and  N_3
REMARK    3  A    between atoms: C_15  and  C_16
REMARK    4  A    between atoms: C_16  and  O_18
REMARK                            x       y       z     vdW  Elec       q    Type
REMARK                         _______ _______ _______ _____ _____    ______ ____
ROOT
ATOM      1  N   UNL     1       3.863   4.088  18.248  0.00  0.00    +0.000 N 
ATOM      2  C   UNL     1       3.126   5.027  19.018  0.00  0.00    +0.000 A 
ATOM      3  C   UNL     1       2.363   4.678  20.144  0.00  0.00    +0.000 A 
ATOM      4  C   UNL     1       1.631   5.636  20.860  0.00  0.00    +0.000 A 
ATOM      5  C   UNL     1       1.651   6.973  20.470  0.00  0.00    +0.000 A 
ATOM      6 CL   UNL     1       0.743   8.134  21.353  0.00  0.00    +0.000 Cl
ATOM      7  C   UNL     1       2.403   7.368  19.374  0.00  0.00    +0.000 A 
ATOM      8  C   UNL     1       3.130   6.401  18.665  0.00  0.00    +0.000 A 
ATOM      9  C   UNL     1       3.941   6.813  17.496  0.00  0.00    +0.000 A 
ATOM     10  O   UNL     1       4.001   7.980  17.122  0.00  0.00    +0.000 OA
ATOM     11  N   UNL     1       4.652   5.823  16.813  0.00  0.00    +0.000 N 
ATOM     12  N   UNL     1       5.434   6.068  15.724  0.00  0.00    +0.000 NA
ATOM     13  C   UNL     1       5.907   4.851  15.393  0.00  0.00    +0.000 A 
ATOM     14  C   UNL     1       5.429   3.844  16.270  0.00  0.00    +0.000 A 
ATOM     15  C   UNL     1       4.620   4.491  17.175  0.00  0.00    +0.000 A 
ENDROOT
BRANCH   1  17
ATOM     16  C   UNL     1       2.630   1.980  17.824  0.00  0.00    +0.000 C 
ATOM     17  C   UNL     1       3.783   2.648  18.561  0.00  0.00    +0.000 C 
ENDBRANCH   1  17
BRANCH  13  18
ATOM     18  C   UNL     1       6.801   4.691  14.245  0.00  0.00    +0.000 C 
ATOM     19  O   UNL     1       7.723   5.448  13.983  0.00  0.00    +0.000 OA
BRANCH  18  20
ATOM     20  O   UNL     1       6.496   3.598  13.494  0.00  0.00    +0.000 OA
ATOM     21  H   UNL     1       6.757   2.805  14.022  0.00  0.00    +0.000 HD
ENDBRANCH  18  20
ENDBRANCH  13  18
TORSDOF 3
ENDMDL
MODEL 2
REMARK VINA RESULT:      -7.4      2.090      3.237
REMARK  Name = 
REMARK  4 active torsions:
REMARK  status: ('A' for Active; 'I' for Inactive)
REMARK    1  A    between atoms: C_1  and  C_2
REMARK    2  A    between atoms: C_2  and  N_3
REMARK    3  A    between atoms: C_15  and  C_16
REMARK    4  A    between atoms: C_16  and  O_18
REMARK                            x       y       z     vdW  Elec       q    Type
REMARK                         _______ _______ _______ _____ _____    ______ ____
ROOT
ATOM      1  N   UNL     1       3.833   6.008  17.929  0.00  0.00    +0.000 N 
ATOM      2  C   UNL     1       3.147   5.226  18.897  0.00  0.00    +0.000 A 
ATOM      3  C   UNL     1       2.354   5.776  19.917  0.00  0.00    +0.000 A 
ATOM      4  C   UNL     1       1.714   4.965  20.865  0.00  0.00    +0.000 A 
ATOM      5  C   UNL     1       1.847   3.580  20.812  0.00  0.00    +0.000 A 
ATOM      6 CL   UNL     1       1.063   2.600  21.987  0.00  0.00    +0.000 Cl
ATOM      7  C   UNL     1       2.608   2.991  19.813  0.00  0.00    +0.000 A 
ATOM      8  C   UNL     1       3.243   3.810  18.871  0.00  0.00    +0.000 A 
ATOM      9  C   UNL     1       4.053   3.192  17.797  0.00  0.00    +0.000 A 
ATOM     10  O   UNL     1       4.189   1.976  17.700  0.00  0.00    +0.000 OA
ATOM     11  N   UNL     1       4.673   4.040  16.875  0.00  0.00    +0.000 N 
ATOM     12  N   UNL     1       5.444   3.599  15.841  0.00  0.00    +0.000 NA
ATOM     13  C   UNL     1       5.835   4.734  15.231  0.00  0.00    +0.000 A 
ATOM     14  C   UNL     1       5.312   5.885  15.874  0.00  0.00    +0.000 A 
ATOM     15  C   UNL     1       4.569   5.415  16.933  0.00  0.00    +0.000 A 
ENDROOT
BRANCH   1  17
ATOM     16  C   UNL     1       2.487   8.045  17.507  0.00  0.00    +0.000 C 
ATOM     17  C   UNL     1       3.808   7.481  18.013  0.00  0.00    +0.000 C 
ENDBRANCH   1  17
BRANCH  13  18
ATOM     18  C   UNL     1       6.701   4.681  14.052  0.00  0.00    +0.000 C 
ATOM     19  O   UNL     1       6.495   3.971  13.080  0.00  0.00    +0.000 OA
BRANCH  18  20
ATOM     20  O   UNL     1       7.771   5.517  14.151  0.00  0.00    +0.000 OA
ATOM     21  H   UNL     1       7.711   6.150  13.395  0.00  0.00    +0.000 HD
ENDBRANCH  18  20
ENDBRANCH  13  18
TORSDOF 3
ENDMDL
MODEL 3
REMARK VINA RESULT:      -6.9      3.004      4.409
REMARK  Name = 
REMARK  4 active torsions:
REMARK  status: ('A' for Active; 'I' for Inactive)
REMARK    1  A    between atoms: C_1  and  C_2
REMARK    2  A    between atoms: C_2  and  N_3
REMARK    3  A    between atoms: C_15  and  C_16
REMARK    4  A    between atoms: C_16  and  O_18
REMARK                            x       y       z     vdW  Elec       q    Type
REMARK                         _______ _______ _______ _____ _____    ______ ____
ROOT
ATOM      1  N   UNL     1       3.871   6.192  17.789  0.00  0.00    +0.000 N 
ATOM      2  C   UNL     1       3.015   7.241  18.219  0.00  0.00    +0.000 A 
ATOM      3  C   UNL     1       2.896   8.468  17.547  0.00  0.00    +0.000 A 
ATOM      4  C   UNL     1       2.056   9.485  18.023  0.00  0.00    +0.000 A 
ATOM      5  C   UNL     1       1.306   9.295  19.180  0.00  0.00    +0.000 A 
ATOM      6 CL   UNL     1       0.286  10.555  19.753  0.00  0.00    +0.000 Cl
ATOM      7  C   UNL     1       1.378   8.094  19.868  0.00  0.00    +0.000 A 
ATOM      8  C   UNL     1       2.222   7.085  19.385  0.00  0.00    +0.000 A 
ATOM      9  C   UNL     1       2.303   5.795  20.109  0.00  0.00    +0.000 A 
ATOM     10  O   UNL     1       1.651   5.576  21.125  0.00  0.00    +0.000 OA
ATOM     11  N   UNL     1       3.155   4.812  19.599  0.00  0.00    +0.000 N 
ATOM     12  N   UNL     1       3.320   3.585  20.168  0.00  0.00    +0.000 NA
ATOM     13  C   UNL     1       4.220   2.983  19.367  0.00  0.00    +0.000 A 
ATOM     14  C   UNL     1       4.618   3.823  18.297  0.00  0.00    +0.000 A 
ATOM     15  C   UNL     1       3.922   4.998  18.466  0.00  0.00    +0.000 A 
ENDROOT
BRANCH   1  17
ATOM     16  C   UNL     1       6.142   6.870  17.064  0.00  0.00    +0.000 C 
ATOM     17  C   UNL     1       4.763   6.390  16.631  0.00  0.00    +0.000 C 
ENDBRANCH   1  17
BRANCH  13  18
ATOM     18  C   UNL     1       4.673   1.620  19.654  0.00  0.00    +0.000 C 
ATOM     19  O   UNL     1       5.264   1.294  20.672  0.00  0.00    +0.000 OA
BRANCH  18  20
ATOM     20  O   UNL     1       4.361   0.745  18.660  0.00  0.00    +0.000 OA
ATOM     21  H   UNL     1       4.960   0.949  17.901  0.00  0.00    +0.000 HD
ENDBRANCH  18  20
ENDBRANCH  13  18
TORSDOF 3
ENDMDL
MODEL 4
REMARK VINA RESULT:      -6.7      1.910      2.777
REMARK  Name = 
REMARK  4 active torsions:
REMARK  status: ('A' for Active; 'I' for Inactive)
REMARK    1  A    between atoms: C_1  and  C_2
REMARK    2  A    between atoms: C_2  and  N_3
REMARK    3  A    between atoms: C_15  and  C_16
REMARK    4  A    between atoms: C_16  and  O_18
REMARK                            x       y       z     vdW  Elec       q    Type
REMARK                         _______ _______ _______ _____ _____    ______ ____
ROOT
ATOM      1  N   UNL     1       2.481   5.962  20.000  0.00  0.00    +0.000 N 
ATOM      2  C   UNL     1       1.781   7.187  20.165  0.00  0.00    +0.000 A 
ATOM      3  C   UNL     1       0.965   7.471  21.272  0.00  0.00    +0.000 A 
ATOM      4  C   UNL     1       0.273   8.686  21.380  0.00  0.00    +0.000 A 
ATOM      5  C   UNL     1       0.387   9.652  20.384  0.00  0.00    +0.000 A 
ATOM      6 CL   UNL     1      -0.473  11.133  20.529  0.00  0.00    +0.000 Cl
ATOM      7  C   UNL     1       1.195   9.424  19.280  0.00  0.00    +0.000 A 
ATOM      8  C   UNL     1       1.880   8.205  19.181  0.00  0.00    +0.000 A 
ATOM      9  C   UNL     1       2.750   7.953  18.009  0.00  0.00    +0.000 A 
ATOM     10  O   UNL     1       2.893   8.779  17.113  0.00  0.00    +0.000 OA
ATOM     11  N   UNL     1       3.418   6.727  17.944  0.00  0.00    +0.000 N 
ATOM     12  N   UNL     1       4.246   6.371  16.922  0.00  0.00    +0.000 NA
ATOM     13  C   UNL     1       4.652   5.132  17.260  0.00  0.00    +0.000 A 
ATOM     14  C   UNL     1       4.087   4.710  18.490  0.00  0.00    +0.000 A 
ATOM     15  C   UNL     1       3.293   5.751  18.912  0.00  0.00    +0.000 A 
ENDROOT
BRANCH   1  17
ATOM     16  C   UNL     1       1.170   3.938  20.569  0.00  0.00    +0.000 C 
ATOM     17  C   UNL     1       2.303   4.870  20.976  0.00  0.00    +0.000 C 
ENDBRANCH   1  17
BRANCH  13  18
ATOM     18  C   UNL     1       5.568   4.390  16.392  0.00  0.00    +0.000 C 
ATOM     19  O   UNL     1       5.336   4.116  15.224  0.00  0.00    +0.000 OA
BRANCH  18  20
ATOM     20  O   UNL     1       6.718   4.035  17.027  0.00  0.00    +0.000 OA
ATOM     21  H   UNL     1       6.877   4.710  17.731  0.00  0.00    +0.000 HD
ENDBRANCH  18  20
ENDBRANCH  13  18
TORSDOF 3
ENDMDL
MODEL 5
REMARK VINA RESULT:      -6.7      3.412      6.182
REMARK  Name = 
REMARK  4 active torsions:
REMARK  status: ('A' for Active; 'I' for Inactive)
REMARK    1  A    between atoms: C_1  and  C_2
REMARK    2  A    between atoms: C_2  and  N_3
REMARK    3  A    between atoms: C_15  and  C_16
REMARK    4  A    between atoms: C_16  and  O_18
REMARK                            x       y       z     vdW  Elec       q    Type
REMARK                         _______ _______ _______ _____ _____    ______ ____
ROOT
ATOM      1  N   UNL     1       2.867   4.791  19.432  0.00  0.00    +0.000 N 
ATOM      2  C   UNL     1       3.663   4.781  18.255  0.00  0.00    +0.000 A 
ATOM      3  C   UNL     1       4.248   3.620  17.724  0.00  0.00    +0.000 A 
ATOM      4  C   UNL     1       5.047   3.663  16.573  0.00  0.00    +0.000 A 
ATOM      5  C   UNL     1       5.274   4.870  15.917  0.00  0.00    +0.000 A 
ATOM      6 CL   UNL     1       6.262   4.906  14.511  0.00  0.00    +0.000 Cl
ATOM      7  C   UNL     1       4.704   6.040  16.395  0.00  0.00    +0.000 A 
ATOM      8  C   UNL     1       3.908   5.987  17.548  0.00  0.00    +0.000 A 
ATOM      9  C   UNL     1       3.289   7.229  18.063  0.00  0.00    +0.000 A 
ATOM     10  O   UNL     1       3.449   8.314  17.513  0.00  0.00    +0.000 OA
ATOM     11  N   UNL     1       2.502   7.138  19.215  0.00  0.00    +0.000 N 
ATOM     12  N   UNL     1       1.878   8.204  19.790  0.00  0.00    +0.000 NA
ATOM     13  C   UNL     1       1.256   7.668  20.858  0.00  0.00    +0.000 A 
ATOM     14  C   UNL     1       1.483   6.271  20.954  0.00  0.00    +0.000 A 
ATOM     15  C   UNL     1       2.291   5.951  19.887  0.00  0.00    +0.000 A 
ENDROOT
BRANCH   1  17
ATOM     16  C   UNL     1       1.377   2.861  19.877  0.00  0.00    +0.000 C 
ATOM     17  C   UNL     1       2.690   3.554  20.217  0.00  0.00    +0.000 C 
ENDBRANCH   1  17
BRANCH  13  18
ATOM     18  C   UNL     1       0.464   8.512  21.754  0.00  0.00    +0.000 C 
ATOM     19  O   UNL     1      -0.729   8.360  21.965  0.00  0.00    +0.000 OA
BRANCH  18  20
ATOM     20  O   UNL     1       1.205   9.494  22.338  0.00  0.00    +0.000 OA
ATOM     21  H   UNL     1       0.718   9.775  23.150  0.00  0.00    +0.000 HD
ENDBRANCH  18  20
ENDBRANCH  13  18
TORSDOF 3
ENDMDL
MODEL 6
REMARK VINA RESULT:      -6.7      3.593      6.449
REMARK  Name = 
REMARK  4 active torsions:
REMARK  status: ('A' for Active; 'I' for Inactive)
REMARK    1  A    between atoms: C_1  and  C_2
REMARK    2  A    between atoms: C_2  and  N_3
REMARK    3  A    between atoms: C_15  and  C_16
REMARK    4  A    between atoms: C_16  and  O_18
REMARK                            x       y       z     vdW  Elec       q    Type
REMARK                         _______ _______ _______ _____ _____    ______ ____
ROOT
ATOM      1  N   UNL     1       2.542   5.660  19.981  0.00  0.00    +0.000 N 
ATOM      2  C   UNL     1       3.331   5.503  18.810  0.00  0.00    +0.000 A 
ATOM      3  C   UNL     1       3.988   4.309  18.472  0.00  0.00    +0.000 A 
ATOM      4  C   UNL     1       4.777   4.208  17.317  0.00  0.00    +0.000 A 
ATOM      5  C   UNL     1       4.923   5.300  16.466  0.00  0.00    +0.000 A 
ATOM      6 CL   UNL     1       5.900   5.162  15.059  0.00  0.00    +0.000 Cl
ATOM      7  C   UNL     1       4.280   6.496  16.750  0.00  0.00    +0.000 A 
ATOM      8  C   UNL     1       3.495   6.586  17.908  0.00  0.00    +0.000 A 
ATOM      9  C   UNL     1       2.800   7.856  18.218  0.00  0.00    +0.000 A 
ATOM     10  O   UNL     1       2.886   8.841  17.492  0.00  0.00    +0.000 OA
ATOM     11  N   UNL     1       2.026   7.910  19.380  0.00  0.00    +0.000 N 
ATOM     12  N   UNL     1       1.337   9.016  19.780  0.00  0.00    +0.000 NA
ATOM     13  C   UNL     1       0.755   8.628  20.931  0.00  0.00    +0.000 A 
ATOM     14  C   UNL     1       1.072   7.285  21.255  0.00  0.00    +0.000 A 
ATOM     15  C   UNL     1       1.894   6.842  20.245  0.00  0.00    +0.000 A 
ENDROOT
BRANCH   1  17
ATOM     16  C   UNL     1       1.216   3.703  20.725  0.00  0.00    +0.000 C 
ATOM     17  C   UNL     1       2.449   4.564  20.964  0.00  0.00    +0.000 C 
ENDBRANCH   1  17
BRANCH  13  18
ATOM     18  C   UNL     1      -0.085   9.559  21.686  0.00  0.00    +0.000 C 
ATOM     19  O   UNL     1      -0.200  10.747  21.425  0.00  0.00    +0.000 OA
BRANCH  18  20
ATOM     20  O   UNL     1      -0.734   8.957  22.720  0.00  0.00    +0.000 OA
ATOM     21  H   UNL     1      -0.096   8.912  23.472  0.00  0.00    +0.000 HD
ENDBRANCH  18  20
ENDBRANCH  13  18
TORSDOF 3
ENDMDL
MODEL 7
REMARK VINA RESULT:      -6.3      3.682      6.501
REMARK  Name = 
REMARK  4 active torsions:
REMARK  status: ('A' for Active; 'I' for Inactive)
REMARK    1  A    between atoms: C_1  and  C_2
REMARK    2  A    between atoms: C_2  and  N_3
REMARK    3  A    between atoms: C_15  and  C_16
REMARK    4  A    between atoms: C_16  and  O_18
REMARK                            x       y       z     vdW  Elec       q    Type
REMARK                         _______ _______ _______ _____ _____    ______ ____
ROOT
ATOM      1  N   UNL     1       5.899   5.525  17.614  0.00  0.00    +0.000 N 
ATOM      2  C   UNL     1       6.057   5.010  16.300  0.00  0.00    +0.000 A 
ATOM      3  C   UNL     1       7.173   5.279  15.490  0.00  0.00    +0.000 A 
ATOM      4  C   UNL     1       7.274   4.768  14.188  0.00  0.00    +0.000 A 
ATOM      5  C   UNL     1       6.262   3.966  13.666  0.00  0.00    +0.000 A 
ATOM      6 CL   UNL     1       6.398   3.353  12.066  0.00  0.00    +0.000 Cl
ATOM      7  C   UNL     1       5.149   3.660  14.434  0.00  0.00    +0.000 A 
ATOM      8  C   UNL     1       5.057   4.177  15.733  0.00  0.00    +0.000 A 
ATOM      9  C   UNL     1       3.876   3.852  16.564  0.00  0.00    +0.000 A 
ATOM     10  O   UNL     1       2.965   3.140  16.153  0.00  0.00    +0.000 OA
ATOM     11  N   UNL     1       3.818   4.385  17.855  0.00  0.00    +0.000 N 
ATOM     12  N   UNL     1       2.788   4.164  18.719  0.00  0.00    +0.000 NA
ATOM     13  C   UNL     1       3.138   4.863  19.815  0.00  0.00    +0.000 A 
ATOM     14  C   UNL     1       4.383   5.521  19.646  0.00  0.00    +0.000 A 
ATOM     15  C   UNL     1       4.802   5.202  18.374  0.00  0.00    +0.000 A 
ENDROOT
BRANCH   1  17
ATOM     16  C   UNL     1       7.880   5.756  19.085  0.00  0.00    +0.000 C 
ATOM     17  C   UNL     1       6.894   6.465  18.166  0.00  0.00    +0.000 C 
ENDBRANCH   1  17
BRANCH  13  18
ATOM     18  C   UNL     1       2.267   4.883  20.992  0.00  0.00    +0.000 C 
ATOM     19  O   UNL     1       2.035   3.908  21.690  0.00  0.00    +0.000 OA
BRANCH  18  20
ATOM     20  O   UNL     1       1.738   6.114  21.231  0.00  0.00    +0.000 OA
ATOM     21  H   UNL     1       1.265   6.387  20.408  0.00  0.00    +0.000 HD
ENDBRANCH  18  20
ENDBRANCH  13  18
TORSDOF 3
ENDMDL
MODEL 8
REMARK VINA RESULT:      -6.2      3.757      6.450
REMARK  Name = 
REMARK  4 active torsions:
REMARK  status: ('A' for Active; 'I' for Inactive)
REMARK    1  A    between atoms: C_1  and  C_2
REMARK    2  A    between atoms: C_2  and  N_3
REMARK    3  A    between atoms: C_15  and  C_16
REMARK    4  A    between atoms: C_16  and  O_18
REMARK                            x       y       z     vdW  Elec       q    Type
REMARK                         _______ _______ _______ _____ _____    ______ ____
ROOT
ATOM      1  N   UNL     1       3.971   5.880  17.876  0.00  0.00    +0.000 N 
ATOM      2  C   UNL     1       4.669   5.474  16.707  0.00  0.00    +0.000 A 
ATOM      3  C   UNL     1       5.251   6.373  15.799  0.00  0.00    +0.000 A 
ATOM      4  C   UNL     1       5.909   5.926  14.645  0.00  0.00    +0.000 A 
ATOM      5  C   UNL     1       6.009   4.564  14.373  0.00  0.00    +0.000 A 
ATOM      6 CL   UNL     1       6.813   4.033  12.950  0.00  0.00    +0.000 Cl
ATOM      7  C   UNL     1       5.463   3.637  15.249  0.00  0.00    +0.000 A 
ATOM      8  C   UNL     1       4.806   4.095  16.399  0.00  0.00    +0.000 A 
ATOM      9  C   UNL     1       4.225   3.114  17.344  0.00  0.00    +0.000 A 
ATOM     10  O   UNL     1       4.299   1.904  17.155  0.00  0.00    +0.000 OA
ATOM     11  N   UNL     1       3.577   3.606  18.480  0.00  0.00    +0.000 N 
ATOM     12  N   UNL     1       3.001   2.812  19.425  0.00  0.00    +0.000 NA
ATOM     13  C   UNL     1       2.497   3.690  20.313  0.00  0.00    +0.000 A 
ATOM     14  C   UNL     1       2.756   5.031  19.932  0.00  0.00    +0.000 A 
ATOM     15  C   UNL     1       3.450   4.954  18.747  0.00  0.00    +0.000 A 
ENDROOT
BRANCH   1  17
ATOM     16  C   UNL     1       2.347   7.747  17.738  0.00  0.00    +0.000 C 
ATOM     17  C   UNL     1       3.749   7.313  18.145  0.00  0.00    +0.000 C 
ENDBRANCH   1  17
BRANCH  13  18
ATOM     18  C   UNL     1       1.780   3.217  21.499  0.00  0.00    +0.000 C 
ATOM     19  O   UNL     1       2.246   3.217  22.628  0.00  0.00    +0.000 OA
BRANCH  18  20
ATOM     20  O   UNL     1       0.526   2.774  21.210  0.00  0.00    +0.000 OA
ATOM     21  H   UNL     1       0.292   3.137  20.321  0.00  0.00    +0.000 HD
ENDBRANCH  18  20
ENDBRANCH  13  18
TORSDOF 3
ENDMDL
MODEL 9
REMARK VINA RESULT:      -6.1      6.481      9.787
REMARK  Name = 
REMARK  4 active torsions:
REMARK  status: ('A' for Active; 'I' for Inactive)
REMARK    1  A    between atoms: C_1  and  C_2
REMARK    2  A    between atoms: C_2  and  N_3
REMARK    3  A    between atoms: C_15  and  C_16
REMARK    4  A    between atoms: C_16  and  O_18
REMARK                            x       y       z     vdW  Elec       q    Type
REMARK                         _______ _______ _______ _____ _____    ______ ____
ROOT
ATOM      1  N   UNL     1      -0.560  11.092  19.481  0.00  0.00    +0.000 N 
ATOM      2  C   UNL     1       0.370  10.034  19.291  0.00  0.00    +0.000 A 
ATOM      3  C   UNL     1       0.936   9.714  18.047  0.00  0.00    +0.000 A 
ATOM      4  C   UNL     1       1.832   8.644  17.903  0.00  0.00    +0.000 A 
ATOM      5  C   UNL     1       2.189   7.872  19.005  0.00  0.00    +0.000 A 
ATOM      6 CL   UNL     1       3.282   6.560  18.810  0.00  0.00    +0.000 Cl
ATOM      7  C   UNL     1       1.668   8.160  20.257  0.00  0.00    +0.000 A 
ATOM      8  C   UNL     1       0.773   9.230  20.389  0.00  0.00    +0.000 A 
ATOM      9  C   UNL     1       0.214   9.551  21.723  0.00  0.00    +0.000 A 
ATOM     10  O   UNL     1       0.509   8.908  22.725  0.00  0.00    +0.000 OA
ATOM     11  N   UNL     1      -0.675  10.625  21.818  0.00  0.00    +0.000 N 
ATOM     12  N   UNL     1      -1.259  11.023  22.983  0.00  0.00    +0.000 NA
ATOM     13  C   UNL     1      -2.030  12.063  22.612  0.00  0.00    +0.000 A 
ATOM     14  C   UNL     1      -1.932  12.322  21.221  0.00  0.00    +0.000 A 
ATOM     15  C   UNL     1      -1.056  11.382  20.728  0.00  0.00    +0.000 A 
ENDROOT
BRANCH   1  17
ATOM     16  C   UNL     1      -2.314  11.256  17.739  0.00  0.00    +0.000 C 
ATOM     17  C   UNL     1      -1.048  11.866  18.324  0.00  0.00    +0.000 C 
ENDBRANCH   1  17
BRANCH  13  18
ATOM     18  C   UNL     1      -2.840  12.775  23.602  0.00  0.00    +0.000 C 
ATOM     19  O   UNL     1      -2.627  13.921  23.968  0.00  0.00    +0.000 OA
BRANCH  18  20
ATOM     20  O   UNL     1      -3.868  12.020  24.077  0.00  0.00    +0.000 OA
ATOM     21  H   UNL     1      -4.703  12.445  23.766  0.00  0.00    +0.000 HD
ENDBRANCH  18  20
ENDBRANCH  13  18
TORSDOF 3
ENDMDL
