MODEL 1
REMARK VINA RESULT:      -8.1      0.000      0.000
REMARK  Name = 
REMARK  4 active torsions:
REMARK  status: ('A' for Active; 'I' for Inactive)
REMARK    1  A    between atoms: O_1  and  C_2
REMARK    2  A    between atoms: C_4  and  C_5
REMARK    3  A    between atoms: C_13  and  O_14
REMARK    4  A    between atoms: O_14  and  C_15
REMARK                            x       y       z     vdW  Elec       q    Type
REMARK                         _______ _______ _______ _____ _____    ______ ____
ROOT
ATOM      1  C   UNL     1       6.598   4.804  17.457  0.00  0.00    +0.000 A 
ATOM      2  C   UNL     1       5.744   4.455  18.505  0.00  0.00    +0.000 A 
ATOM      3  C   UNL     1       4.414   4.918  18.532  0.00  0.00    +0.000 A 
ATOM      4  C   UNL     1       4.028   5.839  17.542  0.00  0.00    +0.000 A 
ATOM      5  C   UNL     1       4.892   6.208  16.507  0.00  0.00    +0.000 A 
ATOM      6  C   UNL     1       6.149   5.612  16.410  0.00  0.00    +0.000 A 
ENDROOT
BRANCH   3   7
ATOM      7  C   UNL     1       3.440   4.416  19.529  0.00  0.00    +0.000 A 
ATOM      8  C   UNL     1       3.609   3.178  20.170  0.00  0.00    +0.000 A 
ATOM      9  C   UNL     1       2.664   2.697  21.082  0.00  0.00    +0.000 A 
ATOM     10  C   UNL     1       1.531   3.451  21.375  0.00  0.00    +0.000 A 
ATOM     11  C   UNL     1       1.338   4.677  20.751  0.00  0.00    +0.000 A 
ATOM     12  C   UNL     1       2.277   5.150  19.832  0.00  0.00    +0.000 A 
ENDBRANCH   3   7
BRANCH   1  13
ATOM     13  O   UNL     1       7.881   4.325  17.428  0.00  0.00    +0.000 OA
ATOM     14  H   UNL     1       8.460   4.943  17.902  0.00  0.00    +0.000 HD
ENDBRANCH   1  13
BRANCH   6  15
ATOM     15  O   UNL     1       6.987   5.767  15.331  0.00  0.00    +0.000 OA
BRANCH  15  16
ATOM     16  C   UNL     1       6.852   4.950  14.227  0.00  0.00    +0.000 A 
ATOM     17  C   UNL     1       5.742   4.097  14.295  0.00  0.00    +0.000 A 
ATOM     18  C   UNL     1       5.451   3.219  13.250  0.00  0.00    +0.000 A 
ATOM     19  C   UNL     1       6.278   3.184  12.131  0.00  0.00    +0.000 A 
ATOM     20 CL   UNL     1       5.930   2.095  10.847  0.00  0.00    +0.000 Cl
ATOM     21  C   UNL     1       7.368   4.043  12.033  0.00  0.00    +0.000 A 
ATOM     22  C   UNL     1       7.637   4.955  13.060  0.00  0.00    +0.000 A 
ATOM     23 CL   UNL     1       8.910   6.086  12.752  0.00  0.00    +0.000 Cl
ENDBRANCH  15  16
ENDBRANCH   6  15
TORSDOF 4
ENDMDL
MODEL 2
REMARK VINA RESULT:      -8.0      0.084      1.028
REMARK  Name = 
REMARK  4 active torsions:
REMARK  status: ('A' for Active; 'I' for Inactive)
REMARK    1  A    between atoms: O_1  and  C_2
REMARK    2  A    between atoms: C_4  and  C_5
REMARK    3  A    between atoms: C_13  and  O_14
REMARK    4  A    between atoms: O_14  and  C_15
REMARK                            x       y       z     vdW  Elec       q    Type
REMARK                         _______ _______ _______ _____ _____    ______ ____
ROOT
ATOM      1  C   UNL     1       6.551   4.792  17.381  0.00  0.00    +0.000 A 
ATOM      2  C   UNL     1       5.715   4.420  18.436  0.00  0.00    +0.000 A 
ATOM      3  C   UNL     1       4.393   4.902  18.509  0.00  0.00    +0.000 A 
ATOM      4  C   UNL     1       4.000   5.863  17.560  0.00  0.00    +0.000 A 
ATOM      5  C   UNL     1       4.847   6.254  16.519  0.00  0.00    +0.000 A 
ATOM      6  C   UNL     1       6.092   5.643  16.373  0.00  0.00    +0.000 A 
ENDROOT
BRANCH   3   7
ATOM      7  C   UNL     1       3.433   4.381  19.510  0.00  0.00    +0.000 A 
ATOM      8  C   UNL     1       2.300   5.113  19.898  0.00  0.00    +0.000 A 
ATOM      9  C   UNL     1       1.419   4.628  20.870  0.00  0.00    +0.000 A 
ATOM     10  C   UNL     1       1.654   3.395  21.471  0.00  0.00    +0.000 A 
ATOM     11  C   UNL     1       2.771   2.652  21.107  0.00  0.00    +0.000 A 
ATOM     12  C   UNL     1       3.655   3.143  20.144  0.00  0.00    +0.000 A 
ENDBRANCH   3   7
BRANCH   1  13
ATOM     13  O   UNL     1       7.825   4.295  17.308  0.00  0.00    +0.000 OA
ATOM     14  H   UNL     1       7.823   3.373  17.609  0.00  0.00    +0.000 HD
ENDBRANCH   1  13
BRANCH   6  15
ATOM     15  O   UNL     1       6.908   5.822  15.281  0.00  0.00    +0.000 OA
BRANCH  15  16
ATOM     16  C   UNL     1       6.805   4.979  14.194  0.00  0.00    +0.000 A 
ATOM     17  C   UNL     1       5.689   4.132  14.247  0.00  0.00    +0.000 A 
ATOM     18  C   UNL     1       5.428   3.229  13.215  0.00  0.00    +0.000 A 
ATOM     19  C   UNL     1       6.291   3.163  12.125  0.00  0.00    +0.000 A 
ATOM     20 CL   UNL     1       5.979   2.043  10.858  0.00  0.00    +0.000 Cl
ATOM     21  C   UNL     1       7.389   4.014  12.042  0.00  0.00    +0.000 A 
ATOM     22  C   UNL     1       7.628   4.950  13.054  0.00  0.00    +0.000 A 
ATOM     23 CL   UNL     1       8.917   6.067  12.760  0.00  0.00    +0.000 Cl
ENDBRANCH  15  16
ENDBRANCH   6  15
TORSDOF 4
ENDMDL
MODEL 3
REMARK VINA RESULT:      -7.9      4.509      6.819
REMARK  Name = 
REMARK  4 active torsions:
REMARK  status: ('A' for Active; 'I' for Inactive)
REMARK    1  A    between atoms: O_1  and  C_2
REMARK    2  A    between atoms: C_4  and  C_5
REMARK    3  A    between atoms: C_13  and  O_14
REMARK    4  A    between atoms: O_14  and  C_15
REMARK                            x       y       z     vdW  Elec       q    Type
REMARK                         _______ _______ _______ _____ _____    ______ ____
ROOT
ATOM      1  C   UNL     1       8.174   6.079  19.215  0.00  0.00    +0.000 A 
ATOM      2  C   UNL     1       8.615   7.402  19.299  0.00  0.00    +0.000 A 
ATOM      3  C   UNL     1       8.291   8.331  18.291  0.00  0.00    +0.000 A 
ATOM      4  C   UNL     1       7.627   7.847  17.150  0.00  0.00    +0.000 A 
ATOM      5  C   UNL     1       7.210   6.516  17.055  0.00  0.00    +0.000 A 
ATOM      6  C   UNL     1       7.399   5.653  18.134  0.00  0.00    +0.000 A 
ENDROOT
BRANCH   3   7
ATOM      7  C   UNL     1       8.586   9.775  18.446  0.00  0.00    +0.000 A 
ATOM      8  C   UNL     1       8.117  10.728  17.528  0.00  0.00    +0.000 A 
ATOM      9  C   UNL     1       8.432  12.084  17.663  0.00  0.00    +0.000 A 
ATOM     10  C   UNL     1       9.221  12.514  18.726  0.00  0.00    +0.000 A 
ATOM     11  C   UNL     1       9.702  11.590  19.646  0.00  0.00    +0.000 A 
ATOM     12  C   UNL     1       9.395  10.235  19.503  0.00  0.00    +0.000 A 
ENDBRANCH   3   7
BRANCH   1  13
ATOM     13  O   UNL     1       8.473   5.192  20.214  0.00  0.00    +0.000 OA
ATOM     14  H   UNL     1       9.308   4.744  20.002  0.00  0.00    +0.000 HD
ENDBRANCH   1  13
BRANCH   6  15
ATOM     15  O   UNL     1       6.857   4.392  18.208  0.00  0.00    +0.000 OA
BRANCH  15  16
ATOM     16  C   UNL     1       5.493   4.216  18.098  0.00  0.00    +0.000 A 
ATOM     17  C   UNL     1       4.807   4.393  19.309  0.00  0.00    +0.000 A 
ATOM     18  C   UNL     1       3.418   4.269  19.367  0.00  0.00    +0.000 A 
ATOM     19  C   UNL     1       2.706   3.957  18.213  0.00  0.00    +0.000 A 
ATOM     20 CL   UNL     1       0.996   3.791  18.284  0.00  0.00    +0.000 Cl
ATOM     21  C   UNL     1       3.366   3.804  16.997  0.00  0.00    +0.000 A 
ATOM     22  C   UNL     1       4.754   3.972  16.927  0.00  0.00    +0.000 A 
ATOM     23 CL   UNL     1       5.441   3.929  15.339  0.00  0.00    +0.000 Cl
ENDBRANCH  15  16
ENDBRANCH   6  15
TORSDOF 4
ENDMDL
MODEL 4
REMARK VINA RESULT:      -7.9      6.727      8.848
REMARK  Name = 
REMARK  4 active torsions:
REMARK  status: ('A' for Active; 'I' for Inactive)
REMARK    1  A    between atoms: O_1  and  C_2
REMARK    2  A    between atoms: C_4  and  C_5
REMARK    3  A    between atoms: C_13  and  O_14
REMARK    4  A    between atoms: O_14  and  C_15
REMARK                            x       y       z     vdW  Elec       q    Type
REMARK                         _______ _______ _______ _____ _____    ______ ____
ROOT
ATOM      1  C   UNL     1       1.927   8.961  18.374  0.00  0.00    +0.000 A 
ATOM      2  C   UNL     1       2.354   7.656  18.632  0.00  0.00    +0.000 A 
ATOM      3  C   UNL     1       1.996   7.007  19.829  0.00  0.00    +0.000 A 
ATOM      4  C   UNL     1       1.310   7.763  20.797  0.00  0.00    +0.000 A 
ATOM      5  C   UNL     1       0.905   9.078  20.548  0.00  0.00    +0.000 A 
ATOM      6  C   UNL     1       1.129   9.645  19.294  0.00  0.00    +0.000 A 
ENDROOT
BRANCH   3   7
ATOM      7  C   UNL     1       2.279   5.569  20.045  0.00  0.00    +0.000 A 
ATOM      8  C   UNL     1       3.472   4.976  19.603  0.00  0.00    +0.000 A 
ATOM      9  C   UNL     1       3.713   3.610  19.779  0.00  0.00    +0.000 A 
ATOM     10  C   UNL     1       2.764   2.809  20.408  0.00  0.00    +0.000 A 
ATOM     11  C   UNL     1       1.573   3.371  20.851  0.00  0.00    +0.000 A 
ATOM     12  C   UNL     1       1.329   4.733  20.664  0.00  0.00    +0.000 A 
ENDBRANCH   3   7
BRANCH   1  13
ATOM     13  O   UNL     1       2.260   9.571  17.194  0.00  0.00    +0.000 OA
ATOM     14  H   UNL     1       1.559   9.408  16.544  0.00  0.00    +0.000 HD
ENDBRANCH   1  13
BRANCH   6  15
ATOM     15  O   UNL     1       0.604  10.851  18.896  0.00  0.00    +0.000 OA
BRANCH  15  16
ATOM     16  C   UNL     1      -0.755  10.981  18.691  0.00  0.00    +0.000 A 
ATOM     17  C   UNL     1      -1.258  10.110  17.715  0.00  0.00    +0.000 A 
ATOM     18  C   UNL     1      -2.618  10.100  17.400  0.00  0.00    +0.000 A 
ATOM     19  C   UNL     1      -3.482  10.972  18.055  0.00  0.00    +0.000 A 
ATOM     20 CL   UNL     1      -5.156  10.972  17.660  0.00  0.00    +0.000 Cl
ATOM     21  C   UNL     1      -3.005  11.825  19.045  0.00  0.00    +0.000 A 
ATOM     22  C   UNL     1      -1.650  11.806  19.395  0.00  0.00    +0.000 A 
ATOM     23 CL   UNL     1      -1.206  12.783  20.753  0.00  0.00    +0.000 Cl
ENDBRANCH  15  16
ENDBRANCH   6  15
TORSDOF 4
ENDMDL
MODEL 5
REMARK VINA RESULT:      -7.9      6.868      9.019
REMARK  Name = 
REMARK  4 active torsions:
REMARK  status: ('A' for Active; 'I' for Inactive)
REMARK    1  A    between atoms: O_1  and  C_2
REMARK    2  A    between atoms: C_4  and  C_5
REMARK    3  A    between atoms: C_13  and  O_14
REMARK    4  A    between atoms: O_14  and  C_15
REMARK                            x       y       z     vdW  Elec       q    Type
REMARK                         _______ _______ _______ _____ _____    ______ ____
ROOT
ATOM      1  C   UNL     1       1.838   9.202  18.401  0.00  0.00    +0.000 A 
ATOM      2  C   UNL     1       2.304   7.905  18.630  0.00  0.00    +0.000 A 
ATOM      3  C   UNL     1       1.971   7.222  19.816  0.00  0.00    +0.000 A 
ATOM      4  C   UNL     1       1.270   7.939  20.803  0.00  0.00    +0.000 A 
ATOM      5  C   UNL     1       0.827   9.246  20.583  0.00  0.00    +0.000 A 
ATOM      6  C   UNL     1       1.028   9.845  19.340  0.00  0.00    +0.000 A 
ENDROOT
BRANCH   3   7
ATOM      7  C   UNL     1       2.296   5.789  20.001  0.00  0.00    +0.000 A 
ATOM      8  C   UNL     1       1.455   4.927  20.723  0.00  0.00    +0.000 A 
ATOM      9  C   UNL     1       1.789   3.584  20.923  0.00  0.00    +0.000 A 
ATOM     10  C   UNL     1       2.973   3.074  20.397  0.00  0.00    +0.000 A 
ATOM     11  C   UNL     1       3.824   3.907  19.682  0.00  0.00    +0.000 A 
ATOM     12  C   UNL     1       3.494   5.250  19.493  0.00  0.00    +0.000 A 
ENDBRANCH   3   7
BRANCH   1  13
ATOM     13  O   UNL     1       2.146   9.845  17.232  0.00  0.00    +0.000 OA
ATOM     14  H   UNL     1       1.335   9.970  16.716  0.00  0.00    +0.000 HD
ENDBRANCH   1  13
BRANCH   6  15
ATOM     15  O   UNL     1       0.465  11.043  18.969  0.00  0.00    +0.000 OA
BRANCH  15  16
ATOM     16  C   UNL     1      -0.894  11.134  18.754  0.00  0.00    +0.000 A 
ATOM     17  C   UNL     1      -1.365  10.248  17.775  0.00  0.00    +0.000 A 
ATOM     18  C   UNL     1      -2.722  10.198  17.449  0.00  0.00    +0.000 A 
ATOM     19  C   UNL     1      -3.616  11.045  18.097  0.00  0.00    +0.000 A 
ATOM     20 CL   UNL     1      -5.285  10.996  17.690  0.00  0.00    +0.000 Cl
ATOM     21  C   UNL     1      -3.171  11.912  19.091  0.00  0.00    +0.000 A 
ATOM     22  C   UNL     1      -1.819  11.932  19.450  0.00  0.00    +0.000 A 
ATOM     23 CL   UNL     1      -1.413  12.922  20.811  0.00  0.00    +0.000 Cl
ENDBRANCH  15  16
ENDBRANCH   6  15
TORSDOF 4
ENDMDL
MODEL 6
REMARK VINA RESULT:      -7.9      4.509      6.769
REMARK  Name = 
REMARK  4 active torsions:
REMARK  status: ('A' for Active; 'I' for Inactive)
REMARK    1  A    between atoms: O_1  and  C_2
REMARK    2  A    between atoms: C_4  and  C_5
REMARK    3  A    between atoms: C_13  and  O_14
REMARK    4  A    between atoms: O_14  and  C_15
REMARK                            x       y       z     vdW  Elec       q    Type
REMARK                         _______ _______ _______ _____ _____    ______ ____
ROOT
ATOM      1  C   UNL     1       8.175   6.084  19.237  0.00  0.00    +0.000 A 
ATOM      2  C   UNL     1       8.626   7.404  19.313  0.00  0.00    +0.000 A 
ATOM      3  C   UNL     1       8.311   8.330  18.300  0.00  0.00    +0.000 A 
ATOM      4  C   UNL     1       7.644   7.844  17.161  0.00  0.00    +0.000 A 
ATOM      5  C   UNL     1       7.215   6.516  17.075  0.00  0.00    +0.000 A 
ATOM      6  C   UNL     1       7.396   5.658  18.159  0.00  0.00    +0.000 A 
ENDROOT
BRANCH   3   7
ATOM      7  C   UNL     1       8.618   9.772  18.446  0.00  0.00    +0.000 A 
ATOM      8  C   UNL     1       9.368  10.263  19.527  0.00  0.00    +0.000 A 
ATOM      9  C   UNL     1       9.622  11.630  19.674  0.00  0.00    +0.000 A 
ATOM     10  C   UNL     1       9.132  12.535  18.737  0.00  0.00    +0.000 A 
ATOM     11  C   UNL     1       8.383  12.076  17.661  0.00  0.00    +0.000 A 
ATOM     12  C   UNL     1       8.122  10.711  17.521  0.00  0.00    +0.000 A 
ENDBRANCH   3   7
BRANCH   1  13
ATOM     13  O   UNL     1       8.466   5.201  20.242  0.00  0.00    +0.000 OA
ATOM     14  H   UNL     1       8.135   4.322  19.997  0.00  0.00    +0.000 HD
ENDBRANCH   1  13
BRANCH   6  15
ATOM     15  O   UNL     1       6.844   4.402  18.240  0.00  0.00    +0.000 OA
BRANCH  15  16
ATOM     16  C   UNL     1       5.480   4.235  18.111  0.00  0.00    +0.000 A 
ATOM     17  C   UNL     1       4.775   4.454  19.303  0.00  0.00    +0.000 A 
ATOM     18  C   UNL     1       3.384   4.343  19.341  0.00  0.00    +0.000 A 
ATOM     19  C   UNL     1       2.690   4.004  18.183  0.00  0.00    +0.000 A 
ATOM     20 CL   UNL     1       0.978   3.855  18.229  0.00  0.00    +0.000 Cl
ATOM     21  C   UNL     1       3.370   3.809  16.985  0.00  0.00    +0.000 A 
ATOM     22  C   UNL     1       4.760   3.962  16.935  0.00  0.00    +0.000 A 
ATOM     23 CL   UNL     1       5.474   3.866  15.361  0.00  0.00    +0.000 Cl
ENDBRANCH  15  16
ENDBRANCH   6  15
TORSDOF 4
ENDMDL
MODEL 7
REMARK VINA RESULT:      -7.8      5.051      6.764
REMARK  Name = 
REMARK  4 active torsions:
REMARK  status: ('A' for Active; 'I' for Inactive)
REMARK    1  A    between atoms: O_1  and  C_2
REMARK    2  A    between atoms: C_4  and  C_5
REMARK    3  A    between atoms: C_13  and  O_14
REMARK    4  A    between atoms: O_14  and  C_15
REMARK                            x       y       z     vdW  Elec       q    Type
REMARK                         _______ _______ _______ _____ _____    ______ ____
ROOT
ATOM      1  C   UNL     1       1.942   8.735  18.353  0.00  0.00    +0.000 A 
ATOM      2  C   UNL     1       1.117   9.572  19.109  0.00  0.00    +0.000 A 
ATOM      3  C   UNL     1       0.822   9.267  20.452  0.00  0.00    +0.000 A 
ATOM      4  C   UNL     1       1.280   8.035  20.953  0.00  0.00    +0.000 A 
ATOM      5  C   UNL     1       2.084   7.186  20.187  0.00  0.00    +0.000 A 
ATOM      6  C   UNL     1       2.497   7.583  18.916  0.00  0.00    +0.000 A 
ENDROOT
BRANCH   3   7
ATOM      7  C   UNL     1       0.106  10.226  21.324  0.00  0.00    +0.000 A 
ATOM      8  C   UNL     1      -0.535   9.817  22.504  0.00  0.00    +0.000 A 
ATOM      9  C   UNL     1      -1.239  10.724  23.302  0.00  0.00    +0.000 A 
ATOM     10  C   UNL     1      -1.312  12.065  22.935  0.00  0.00    +0.000 A 
ATOM     11  C   UNL     1      -0.690  12.495  21.769  0.00  0.00    +0.000 A 
ATOM     12  C   UNL     1       0.003  11.585  20.968  0.00  0.00    +0.000 A 
ENDBRANCH   3   7
BRANCH   1  13
ATOM     13  O   UNL     1       2.243   9.057  17.057  0.00  0.00    +0.000 OA
ATOM     14  H   UNL     1       2.770   8.342  16.667  0.00  0.00    +0.000 HD
ENDBRANCH   1  13
BRANCH   6  15
ATOM     15  O   UNL     1       3.435   6.909  18.171  0.00  0.00    +0.000 OA
BRANCH  15  16
ATOM     16  C   UNL     1       3.581   5.544  18.311  0.00  0.00    +0.000 A 
ATOM     17  C   UNL     1       2.514   4.810  17.773  0.00  0.00    +0.000 A 
ATOM     18  C   UNL     1       2.514   3.415  17.816  0.00  0.00    +0.000 A 
ATOM     19  C   UNL     1       3.581   2.745  18.406  0.00  0.00    +0.000 A 
ATOM     20 CL   UNL     1       3.579   1.027  18.471  0.00  0.00    +0.000 Cl
ATOM     21  C   UNL     1       4.661   3.455  18.921  0.00  0.00    +0.000 A 
ATOM     22  C   UNL     1       4.685   4.852  18.841  0.00  0.00    +0.000 A 
ATOM     23 CL   UNL     1       6.151   5.614  19.356  0.00  0.00    +0.000 Cl
ENDBRANCH  15  16
ENDBRANCH   6  15
TORSDOF 4
ENDMDL
MODEL 8
REMARK VINA RESULT:      -7.7      5.039      6.796
REMARK  Name = 
REMARK  4 active torsions:
REMARK  status: ('A' for Active; 'I' for Inactive)
REMARK    1  A    between atoms: O_1  and  C_2
REMARK    2  A    between atoms: C_4  and  C_5
REMARK    3  A    between atoms: C_13  and  O_14
REMARK    4  A    between atoms: O_14  and  C_15
REMARK                            x       y       z     vdW  Elec       q    Type
REMARK                         _______ _______ _______ _____ _____    ______ ____
ROOT
ATOM      1  C   UNL     1       1.961   8.724  18.333  0.00  0.00    +0.000 A 
ATOM      2  C   UNL     1       1.114   9.557  19.067  0.00  0.00    +0.000 A 
ATOM      3  C   UNL     1       0.798   9.259  20.407  0.00  0.00    +0.000 A 
ATOM      4  C   UNL     1       1.258   8.034  20.925  0.00  0.00    +0.000 A 
ATOM      5  C   UNL     1       2.084   7.188  20.180  0.00  0.00    +0.000 A 
ATOM      6  C   UNL     1       2.516   7.581  18.914  0.00  0.00    +0.000 A 
ENDROOT
BRANCH   3   7
ATOM      7  C   UNL     1       0.057  10.217  21.260  0.00  0.00    +0.000 A 
ATOM      8  C   UNL     1      -0.068  11.572  20.913  0.00  0.00    +0.000 A 
ATOM      9  C   UNL     1      -0.739  12.475  21.743  0.00  0.00    +0.000 A 
ATOM     10  C   UNL     1      -1.304  12.038  22.938  0.00  0.00    +0.000 A 
ATOM     11  C   UNL     1      -1.191  10.703  23.306  0.00  0.00    +0.000 A 
ATOM     12  C   UNL     1      -0.511   9.805  22.481  0.00  0.00    +0.000 A 
ENDBRANCH   3   7
BRANCH   1  13
ATOM     13  O   UNL     1       2.282   9.039  17.040  0.00  0.00    +0.000 OA
ATOM     14  H   UNL     1       1.720   8.525  16.439  0.00  0.00    +0.000 HD
ENDBRANCH   1  13
BRANCH   6  15
ATOM     15  O   UNL     1       3.474   6.910  18.190  0.00  0.00    +0.000 OA
BRANCH  15  16
ATOM     16  C   UNL     1       3.613   5.544  18.324  0.00  0.00    +0.000 A 
ATOM     17  C   UNL     1       2.545   4.818  17.778  0.00  0.00    +0.000 A 
ATOM     18  C   UNL     1       2.539   3.423  17.813  0.00  0.00    +0.000 A 
ATOM     19  C   UNL     1       3.600   2.745  18.403  0.00  0.00    +0.000 A 
ATOM     20 CL   UNL     1       3.590   1.026  18.459  0.00  0.00    +0.000 Cl
ATOM     21  C   UNL     1       4.682   3.447  18.926  0.00  0.00    +0.000 A 
ATOM     22  C   UNL     1       4.712   4.845  18.853  0.00  0.00    +0.000 A 
ATOM     23 CL   UNL     1       6.180   5.598  19.377  0.00  0.00    +0.000 Cl
ENDBRANCH  15  16
ENDBRANCH   6  15
TORSDOF 4
ENDMDL
MODEL 9
REMARK VINA RESULT:      -7.7      6.676      8.679
REMARK  Name = 
REMARK  4 active torsions:
REMARK  status: ('A' for Active; 'I' for Inactive)
REMARK    1  A    between atoms: O_1  and  C_2
REMARK    2  A    between atoms: C_4  and  C_5
REMARK    3  A    between atoms: C_13  and  O_14
REMARK    4  A    between atoms: O_14  and  C_15
REMARK                            x       y       z     vdW  Elec       q    Type
REMARK                         _______ _______ _______ _____ _____    ______ ____
ROOT
ATOM      1  C   UNL     1       2.073   8.419  18.412  0.00  0.00    +0.000 A 
ATOM      2  C   UNL     1       2.272   7.056  18.643  0.00  0.00    +0.000 A 
ATOM      3  C   UNL     1       1.861   6.466  19.854  0.00  0.00    +0.000 A 
ATOM      4  C   UNL     1       1.368   7.319  20.857  0.00  0.00    +0.000 A 
ATOM      5  C   UNL     1       1.193   8.688  20.634  0.00  0.00    +0.000 A 
ATOM      6  C   UNL     1       1.455   9.223  19.373  0.00  0.00    +0.000 A 
ENDROOT
BRANCH   3   7
ATOM      7  C   UNL     1       1.892   4.997  20.049  0.00  0.00    +0.000 A 
ATOM      8  C   UNL     1       1.563   4.107  19.015  0.00  0.00    +0.000 A 
ATOM      9  C   UNL     1       1.560   2.724  19.221  0.00  0.00    +0.000 A 
ATOM     10  C   UNL     1       1.894   2.203  20.468  0.00  0.00    +0.000 A 
ATOM     11  C   UNL     1       2.220   3.064  21.509  0.00  0.00    +0.000 A 
ATOM     12  C   UNL     1       2.211   4.445  21.305  0.00  0.00    +0.000 A 
ENDBRANCH   3   7
BRANCH   1  13
ATOM     13  O   UNL     1       2.452   8.975  17.219  0.00  0.00    +0.000 OA
ATOM     14  H   UNL     1       3.059   9.712  17.393  0.00  0.00    +0.000 HD
ENDBRANCH   1  13
BRANCH   6  15
ATOM     15  O   UNL     1       1.135  10.508  19.006  0.00  0.00    +0.000 OA
BRANCH  15  16
ATOM     16  C   UNL     1      -0.187  10.887  18.891  0.00  0.00    +0.000 A 
ATOM     17  C   UNL     1      -0.895  10.160  17.924  0.00  0.00    +0.000 A 
ATOM     18  C   UNL     1      -2.250  10.406  17.695  0.00  0.00    +0.000 A 
ATOM     19  C   UNL     1      -2.903  11.391  18.429  0.00  0.00    +0.000 A 
ATOM     20 CL   UNL     1      -4.569  11.706  18.141  0.00  0.00    +0.000 Cl
ATOM     21  C   UNL     1      -2.224  12.105  19.412  0.00  0.00    +0.000 A 
ATOM     22  C   UNL     1      -0.877  11.829  19.674  0.00  0.00    +0.000 A 
ATOM     23 CL   UNL     1      -0.187  12.655  21.030  0.00  0.00    +0.000 Cl
ENDBRANCH  15  16
ENDBRANCH   6  15
TORSDOF 4
ENDMDL
