MODEL 1
REMARK VINA RESULT:      -7.8      0.000      0.000
REMARK  Name = 
REMARK  5 active torsions:
REMARK  status: ('A' for Active; 'I' for Inactive)
REMARK    1  A    between atoms: C_1  and  O_2
REMARK    2  A    between atoms: O_2  and  C_3
REMARK    3  A    between atoms: C_6  and  C_7
REMARK    4  A    between atoms: C_17  and  O_18
REMARK    5  A    between atoms: O_18  and  C_19
REMARK                            x       y       z     vdW  Elec       q    Type
REMARK                         _______ _______ _______ _____ _____    ______ ____
ROOT
ATOM      1  C   UNL     1       4.100   4.541  18.383  0.00  0.00    +0.000 A 
ATOM      2  N   UNL     1       3.931   5.497  19.367  0.00  0.00    +0.000 N 
ATOM      3  N   UNL     1       2.855   5.320  20.153  0.00  0.00    +0.000 NA
ATOM      4  C   UNL     1       2.313   4.206  19.668  0.00  0.00    +0.000 A 
ATOM      5  C   UNL     1       3.048   3.657  18.589  0.00  0.00    +0.000 A 
ATOM      6  C   UNL     1       2.619   2.426  17.869  0.00  0.00    +0.000 C 
ATOM      7  N   UNL     1       1.637   1.670  18.673  0.00  0.00    +0.000 NA
ATOM      8  C   UNL     1       0.558   2.551  19.171  0.00  0.00    +0.000 C 
ATOM      9  C   UNL     1       1.063   3.598  20.185  0.00  0.00    +0.000 C 
ATOM     10  H   UNL     1       4.495   6.325  19.519  0.00  0.00    +0.000 HD
ATOM     11  H   UNL     1       2.130   1.276  19.474  0.00  0.00    +0.000 HD
ENDROOT
BRANCH   1  15
ATOM     12  C   UNL     1       6.930   5.068  15.211  0.00  0.00    +0.000 A 
ATOM     13  C   UNL     1       6.062   3.969  15.218  0.00  0.00    +0.000 A 
ATOM     14  C   UNL     1       5.160   3.775  16.266  0.00  0.00    +0.000 A 
ATOM     15  C   UNL     1       5.139   4.643  17.358  0.00  0.00    +0.000 A 
ATOM     16  C   UNL     1       6.099   5.660  17.403  0.00  0.00    +0.000 A 
ATOM     17  C   UNL     1       6.995   5.888  16.344  0.00  0.00    +0.000 A 
BRANCH  12  19
ATOM     18  C   UNL     1       7.271   4.738  12.899  0.00  0.00    +0.000 C 
ATOM     19  O   UNL     1       7.718   5.325  14.123  0.00  0.00    +0.000 OA
ENDBRANCH  12  19
BRANCH  17  20
ATOM     20  O   UNL     1       7.809   6.963  16.587  0.00  0.00    +0.000 OA
ATOM     21  C   UNL     1       7.580   7.750  17.744  0.00  0.00    +0.000 C 
ENDBRANCH  17  20
ENDBRANCH   1  15
TORSDOF 3
ENDMDL
MODEL 2
REMARK VINA RESULT:      -7.8      1.079      2.049
REMARK  Name = 
REMARK  5 active torsions:
REMARK  status: ('A' for Active; 'I' for Inactive)
REMARK    1  A    between atoms: C_1  and  O_2
REMARK    2  A    between atoms: O_2  and  C_3
REMARK    3  A    between atoms: C_6  and  C_7
REMARK    4  A    between atoms: C_17  and  O_18
REMARK    5  A    between atoms: O_18  and  C_19
REMARK                            x       y       z     vdW  Elec       q    Type
REMARK                         _______ _______ _______ _____ _____    ______ ____
ROOT
ATOM      1  C   UNL     1       3.595   4.115  17.376  0.00  0.00    +0.000 A 
ATOM      2  N   UNL     1       2.653   3.186  16.975  0.00  0.00    +0.000 N 
ATOM      3  N   UNL     1       1.640   2.994  17.838  0.00  0.00    +0.000 NA
ATOM      4  C   UNL     1       1.930   3.834  18.828  0.00  0.00    +0.000 A 
ATOM      5  C   UNL     1       3.112   4.578  18.594  0.00  0.00    +0.000 A 
ATOM      6  C   UNL     1       3.649   5.562  19.575  0.00  0.00    +0.000 C 
ATOM      7  N   UNL     1       2.608   5.945  20.549  0.00  0.00    +0.000 NA
ATOM      8  C   UNL     1       1.934   4.754  21.113  0.00  0.00    +0.000 C 
ATOM      9  C   UNL     1       1.117   3.977  20.059  0.00  0.00    +0.000 C 
ATOM     10  H   UNL     1       2.677   2.613  16.139  0.00  0.00    +0.000 HD
ATOM     11  H   UNL     1       1.914   6.508  20.056  0.00  0.00    +0.000 HD
ENDROOT
BRANCH   1  15
ATOM     12  C   UNL     1       7.030   5.083  15.008  0.00  0.00    +0.000 A 
ATOM     13  C   UNL     1       6.204   4.007  14.661  0.00  0.00    +0.000 A 
ATOM     14  C   UNL     1       5.102   3.667  15.447  0.00  0.00    +0.000 A 
ATOM     15  C   UNL     1       4.828   4.358  16.628  0.00  0.00    +0.000 A 
ATOM     16  C   UNL     1       5.735   5.345  17.033  0.00  0.00    +0.000 A 
ATOM     17  C   UNL     1       6.833   5.720  16.239  0.00  0.00    +0.000 A 
BRANCH  12  19
ATOM     18  C   UNL     1       7.811   5.209  12.784  0.00  0.00    +0.000 C 
ATOM     19  O   UNL     1       8.029   5.493  14.168  0.00  0.00    +0.000 OA
ENDBRANCH  12  19
BRANCH  17  20
ATOM     20  O   UNL     1       7.553   6.735  16.812  0.00  0.00    +0.000 OA
ATOM     21  C   UNL     1       7.733   6.740  18.219  0.00  0.00    +0.000 C 
ENDBRANCH  17  20
ENDBRANCH   1  15
TORSDOF 3
ENDMDL
MODEL 3
REMARK VINA RESULT:      -7.6      1.290      1.290
REMARK  Name = 
REMARK  5 active torsions:
REMARK  status: ('A' for Active; 'I' for Inactive)
REMARK    1  A    between atoms: C_1  and  O_2
REMARK    2  A    between atoms: O_2  and  C_3
REMARK    3  A    between atoms: C_6  and  C_7
REMARK    4  A    between atoms: C_17  and  O_18
REMARK    5  A    between atoms: O_18  and  C_19
REMARK                            x       y       z     vdW  Elec       q    Type
REMARK                         _______ _______ _______ _____ _____    ______ ____
ROOT
ATOM      1  C   UNL     1       4.034   4.978  18.659  0.00  0.00    +0.000 A 
ATOM      2  N   UNL     1       3.160   6.040  18.795  0.00  0.00    +0.000 N 
ATOM      3  N   UNL     1       2.207   5.875  19.729  0.00  0.00    +0.000 NA
ATOM      4  C   UNL     1       2.479   4.669  20.221  0.00  0.00    +0.000 A 
ATOM      5  C   UNL     1       3.613   4.070  19.622  0.00  0.00    +0.000 A 
ATOM      6  C   UNL     1       4.093   2.710  19.994  0.00  0.00    +0.000 C 
ATOM      7  N   UNL     1       3.525   2.296  21.293  0.00  0.00    +0.000 NA
ATOM      8  C   UNL     1       2.062   2.512  21.334  0.00  0.00    +0.000 C 
ATOM      9  C   UNL     1       1.678   4.005  21.278  0.00  0.00    +0.000 C 
ATOM     10  H   UNL     1       3.135   6.888  18.240  0.00  0.00    +0.000 HD
ATOM     11  H   UNL     1       3.958   2.869  22.017  0.00  0.00    +0.000 HD
ENDROOT
BRANCH   1  15
ATOM     12  C   UNL     1       6.808   5.052  15.396  0.00  0.00    +0.000 A 
ATOM     13  C   UNL     1       5.885   4.006  15.525  0.00  0.00    +0.000 A 
ATOM     14  C   UNL     1       5.001   3.960  16.604  0.00  0.00    +0.000 A 
ATOM     15  C   UNL     1       5.051   4.927  17.608  0.00  0.00    +0.000 A 
ATOM     16  C   UNL     1       6.063   5.892  17.537  0.00  0.00    +0.000 A 
ATOM     17  C   UNL     1       6.943   5.971  16.443  0.00  0.00    +0.000 A 
BRANCH  12  19
ATOM     18  C   UNL     1       7.060   4.511  13.111  0.00  0.00    +0.000 C 
ATOM     19  O   UNL     1       7.581   5.163  14.273  0.00  0.00    +0.000 OA
ENDBRANCH  12  19
BRANCH  17  20
ATOM     20  O   UNL     1       7.816   7.019  16.566  0.00  0.00    +0.000 OA
ATOM     21  C   UNL     1       7.684   7.897  17.672  0.00  0.00    +0.000 C 
ENDBRANCH  17  20
ENDBRANCH   1  15
TORSDOF 3
ENDMDL
MODEL 4
REMARK VINA RESULT:      -7.4      1.291      1.317
REMARK  Name = 
REMARK  5 active torsions:
REMARK  status: ('A' for Active; 'I' for Inactive)
REMARK    1  A    between atoms: C_1  and  O_2
REMARK    2  A    between atoms: O_2  and  C_3
REMARK    3  A    between atoms: C_6  and  C_7
REMARK    4  A    between atoms: C_17  and  O_18
REMARK    5  A    between atoms: O_18  and  C_19
REMARK                            x       y       z     vdW  Elec       q    Type
REMARK                         _______ _______ _______ _____ _____    ______ ____
ROOT
ATOM      1  C   UNL     1       4.653   3.375  18.294  0.00  0.00    +0.000 A 
ATOM      2  N   UNL     1       5.180   2.898  19.479  0.00  0.00    +0.000 N 
ATOM      3  N   UNL     1       4.275   2.614  20.431  0.00  0.00    +0.000 NA
ATOM      4  C   UNL     1       3.120   2.909  19.840  0.00  0.00    +0.000 A 
ATOM      5  C   UNL     1       3.280   3.359  18.507  0.00  0.00    +0.000 A 
ATOM      6  C   UNL     1       2.129   3.772  17.656  0.00  0.00    +0.000 C 
ATOM      7  N   UNL     1       0.861   3.256  18.210  0.00  0.00    +0.000 NA
ATOM      8  C   UNL     1       0.748   3.548  19.656  0.00  0.00    +0.000 C 
ATOM      9  C   UNL     1       1.798   2.795  20.500  0.00  0.00    +0.000 C 
ATOM     10  H   UNL     1       6.161   2.791  19.713  0.00  0.00    +0.000 HD
ATOM     11  H   UNL     1       0.857   2.244  18.082  0.00  0.00    +0.000 HD
ENDROOT
BRANCH   1  15
ATOM     12  C   UNL     1       6.843   4.999  14.990  0.00  0.00    +0.000 A 
ATOM     13  C   UNL     1       6.153   3.787  14.863  0.00  0.00    +0.000 A 
ATOM     14  C   UNL     1       5.465   3.237  15.945  0.00  0.00    +0.000 A 
ATOM     15  C   UNL     1       5.492   3.855  17.196  0.00  0.00    +0.000 A 
ATOM     16  C   UNL     1       6.292   4.994  17.344  0.00  0.00    +0.000 A 
ATOM     17  C   UNL     1       6.968   5.578  16.258  0.00  0.00    +0.000 A 
BRANCH  12  19
ATOM     18  C   UNL     1       7.412   4.804  12.707  0.00  0.00    +0.000 C 
ATOM     19  O   UNL     1       7.405   5.598  13.896  0.00  0.00    +0.000 OA
ENDBRANCH  12  19
BRANCH  17  20
ATOM     20  O   UNL     1       7.648   6.708  16.629  0.00  0.00    +0.000 OA
ATOM     21  C   UNL     1       7.724   7.043  18.005  0.00  0.00    +0.000 C 
ENDBRANCH  17  20
ENDBRANCH   1  15
TORSDOF 3
ENDMDL
MODEL 5
REMARK VINA RESULT:      -7.3      3.131      3.957
REMARK  Name = 
REMARK  5 active torsions:
REMARK  status: ('A' for Active; 'I' for Inactive)
REMARK    1  A    between atoms: C_1  and  O_2
REMARK    2  A    between atoms: O_2  and  C_3
REMARK    3  A    between atoms: C_6  and  C_7
REMARK    4  A    between atoms: C_17  and  O_18
REMARK    5  A    between atoms: O_18  and  C_19
REMARK                            x       y       z     vdW  Elec       q    Type
REMARK                         _______ _______ _______ _____ _____    ______ ____
ROOT
ATOM      1  C   UNL     1       2.776   6.695  18.979  0.00  0.00    +0.000 A 
ATOM      2  N   UNL     1       2.392   6.343  20.259  0.00  0.00    +0.000 N 
ATOM      3  N   UNL     1       1.629   7.250  20.893  0.00  0.00    +0.000 NA
ATOM      4  C   UNL     1       1.506   8.219  19.989  0.00  0.00    +0.000 A 
ATOM      5  C   UNL     1       2.169   7.927  18.772  0.00  0.00    +0.000 A 
ATOM      6  C   UNL     1       2.191   8.875  17.623  0.00  0.00    +0.000 C 
ATOM      7  N   UNL     1       1.127   9.889  17.766  0.00  0.00    +0.000 NA
ATOM      8  C   UNL     1       1.136  10.492  19.117  0.00  0.00    +0.000 C 
ATOM      9  C   UNL     1       0.766   9.482  20.223  0.00  0.00    +0.000 C 
ATOM     10  H   UNL     1       2.664   5.513  20.773  0.00  0.00    +0.000 HD
ATOM     11  H   UNL     1       0.232   9.420  17.625  0.00  0.00    +0.000 HD
ENDROOT
BRANCH   1  15
ATOM     12  C   UNL     1       5.362   4.485  16.376  0.00  0.00    +0.000 A 
ATOM     13  C   UNL     1       4.216   3.890  16.916  0.00  0.00    +0.000 A 
ATOM     14  C   UNL     1       3.387   4.595  17.791  0.00  0.00    +0.000 A 
ATOM     15  C   UNL     1       3.711   5.892  18.189  0.00  0.00    +0.000 A 
ATOM     16  C   UNL     1       4.926   6.427  17.747  0.00  0.00    +0.000 A 
ATOM     17  C   UNL     1       5.758   5.743  16.843  0.00  0.00    +0.000 A 
BRANCH  12  19
ATOM     18  C   UNL     1       5.761   4.165  14.071  0.00  0.00    +0.000 C 
ATOM     19  O   UNL     1       6.098   3.837  15.421  0.00  0.00    +0.000 OA
ENDBRANCH  12  19
BRANCH  17  20
ATOM     20  O   UNL     1       6.866   6.478  16.515  0.00  0.00    +0.000 OA
ATOM     21  C   UNL     1       7.478   7.281  17.511  0.00  0.00    +0.000 C 
ENDBRANCH  17  20
ENDBRANCH   1  15
TORSDOF 3
ENDMDL
MODEL 6
REMARK VINA RESULT:      -7.2      1.304      3.051
REMARK  Name = 
REMARK  5 active torsions:
REMARK  status: ('A' for Active; 'I' for Inactive)
REMARK    1  A    between atoms: C_1  and  O_2
REMARK    2  A    between atoms: O_2  and  C_3
REMARK    3  A    between atoms: C_6  and  C_7
REMARK    4  A    between atoms: C_17  and  O_18
REMARK    5  A    between atoms: O_18  and  C_19
REMARK                            x       y       z     vdW  Elec       q    Type
REMARK                         _______ _______ _______ _____ _____    ______ ____
ROOT
ATOM      1  C   UNL     1       3.335   4.176  17.692  0.00  0.00    +0.000 A 
ATOM      2  N   UNL     1       2.945   3.109  16.905  0.00  0.00    +0.000 N 
ATOM      3  N   UNL     1       2.019   2.305  17.455  0.00  0.00    +0.000 NA
ATOM      4  C   UNL     1       1.794   2.876  18.636  0.00  0.00    +0.000 A 
ATOM      5  C   UNL     1       2.556   4.053  18.835  0.00  0.00    +0.000 A 
ATOM      6  C   UNL     1       2.490   4.848  20.093  0.00  0.00    +0.000 C 
ATOM      7  N   UNL     1       1.276   4.506  20.861  0.00  0.00    +0.000 NA
ATOM      8  C   UNL     1       1.122   3.041  21.000  0.00  0.00    +0.000 C 
ATOM      9  C   UNL     1       0.857   2.339  19.652  0.00  0.00    +0.000 C 
ATOM     10  H   UNL     1       3.315   2.850  15.997  0.00  0.00    +0.000 HD
ATOM     11  H   UNL     1       0.473   4.870  20.348  0.00  0.00    +0.000 HD
ENDROOT
BRANCH   1  15
ATOM     12  C   UNL     1       6.707   6.677  16.841  0.00  0.00    +0.000 A 
ATOM     13  C   UNL     1       5.635   7.158  17.603  0.00  0.00    +0.000 A 
ATOM     14  C   UNL     1       4.519   6.359  17.856  0.00  0.00    +0.000 A 
ATOM     15  C   UNL     1       4.422   5.078  17.310  0.00  0.00    +0.000 A 
ATOM     16  C   UNL     1       5.438   4.658  16.444  0.00  0.00    +0.000 A 
ATOM     17  C   UNL     1       6.582   5.438  16.202  0.00  0.00    +0.000 A 
BRANCH  12  19
ATOM     18  C   UNL     1       8.042   8.424  17.700  0.00  0.00    +0.000 C 
ATOM     19  O   UNL     1       7.851   7.415  16.706  0.00  0.00    +0.000 OA
ENDBRANCH  12  19
BRANCH  17  20
ATOM     20  O   UNL     1       7.461   4.807  15.361  0.00  0.00    +0.000 OA
ATOM     21  C   UNL     1       7.131   4.688  13.987  0.00  0.00    +0.000 C 
ENDBRANCH  17  20
ENDBRANCH   1  15
TORSDOF 3
ENDMDL
MODEL 7
REMARK VINA RESULT:      -7.2      1.868      2.837
REMARK  Name = 
REMARK  5 active torsions:
REMARK  status: ('A' for Active; 'I' for Inactive)
REMARK    1  A    between atoms: C_1  and  O_2
REMARK    2  A    between atoms: O_2  and  C_3
REMARK    3  A    between atoms: C_6  and  C_7
REMARK    4  A    between atoms: C_17  and  O_18
REMARK    5  A    between atoms: O_18  and  C_19
REMARK                            x       y       z     vdW  Elec       q    Type
REMARK                         _______ _______ _______ _____ _____    ______ ____
ROOT
ATOM      1  C   UNL     1       3.463   3.999  17.839  0.00  0.00    +0.000 A 
ATOM      2  N   UNL     1       2.865   3.080  16.997  0.00  0.00    +0.000 N 
ATOM      3  N   UNL     1       1.854   2.383  17.542  0.00  0.00    +0.000 NA
ATOM      4  C   UNL     1       1.787   2.873  18.777  0.00  0.00    +0.000 A 
ATOM      5  C   UNL     1       2.736   3.896  19.019  0.00  0.00    +0.000 A 
ATOM      6  C   UNL     1       2.866   4.575  20.338  0.00  0.00    +0.000 C 
ATOM      7  N   UNL     1       1.655   4.357  21.156  0.00  0.00    +0.000 NA
ATOM      8  C   UNL     1       1.277   2.927  21.186  0.00  0.00    +0.000 C 
ATOM      9  C   UNL     1       0.832   2.399  19.807  0.00  0.00    +0.000 C 
ATOM     10  H   UNL     1       3.141   2.850  16.049  0.00  0.00    +0.000 HD
ATOM     11  H   UNL     1       0.894   4.886  20.728  0.00  0.00    +0.000 HD
ENDROOT
BRANCH   1  15
ATOM     12  C   UNL     1       6.880   6.437  16.988  0.00  0.00    +0.000 A 
ATOM     13  C   UNL     1       5.702   6.573  16.242  0.00  0.00    +0.000 A 
ATOM     14  C   UNL     1       4.597   5.759  16.494  0.00  0.00    +0.000 A 
ATOM     15  C   UNL     1       4.657   4.754  17.459  0.00  0.00    +0.000 A 
ATOM     16  C   UNL     1       5.880   4.540  18.105  0.00  0.00    +0.000 A 
ATOM     17  C   UNL     1       6.995   5.369  17.886  0.00  0.00    +0.000 A 
BRANCH  12  19
ATOM     18  C   UNL     1       7.888   8.447  17.708  0.00  0.00    +0.000 C 
ATOM     19  O   UNL     1       7.912   7.321  16.827  0.00  0.00    +0.000 OA
ENDBRANCH  12  19
BRANCH  17  20
ATOM     20  O   UNL     1       8.063   5.002  18.660  0.00  0.00    +0.000 OA
ATOM     21  C   UNL     1       8.153   5.497  19.986  0.00  0.00    +0.000 C 
ENDBRANCH  17  20
ENDBRANCH   1  15
TORSDOF 3
ENDMDL
MODEL 8
REMARK VINA RESULT:      -7.1      3.881      5.098
REMARK  Name = 
REMARK  5 active torsions:
REMARK  status: ('A' for Active; 'I' for Inactive)
REMARK    1  A    between atoms: C_1  and  O_2
REMARK    2  A    between atoms: O_2  and  C_3
REMARK    3  A    between atoms: C_6  and  C_7
REMARK    4  A    between atoms: C_17  and  O_18
REMARK    5  A    between atoms: O_18  and  C_19
REMARK                            x       y       z     vdW  Elec       q    Type
REMARK                         _______ _______ _______ _____ _____    ______ ____
ROOT
ATOM      1  C   UNL     1       2.307   7.257  19.063  0.00  0.00    +0.000 A 
ATOM      2  N   UNL     1       2.076   6.918  20.382  0.00  0.00    +0.000 N 
ATOM      3  N   UNL     1       1.469   7.867  21.115  0.00  0.00    +0.000 NA
ATOM      4  C   UNL     1       1.292   8.852  20.238  0.00  0.00    +0.000 A 
ATOM      5  C   UNL     1       1.763   8.529  18.942  0.00  0.00    +0.000 A 
ATOM      6  C   UNL     1       1.696   9.486  17.802  0.00  0.00    +0.000 C 
ATOM      7  N   UNL     1       0.732  10.568  18.089  0.00  0.00    +0.000 NA
ATOM      8  C   UNL     1       0.964  11.154  19.427  0.00  0.00    +0.000 C 
ATOM      9  C   UNL     1       0.679  10.159  20.571  0.00  0.00    +0.000 C 
ATOM     10  H   UNL     1       2.357   6.065  20.853  0.00  0.00    +0.000 HD
ATOM     11  H   UNL     1      -0.204  10.162  18.070  0.00  0.00    +0.000 HD
ENDROOT
BRANCH   1  15
ATOM     12  C   UNL     1       4.742   4.662  16.677  0.00  0.00    +0.000 A 
ATOM     13  C   UNL     1       4.978   6.043  16.699  0.00  0.00    +0.000 A 
ATOM     14  C   UNL     1       4.168   6.896  17.449  0.00  0.00    +0.000 A 
ATOM     15  C   UNL     1       3.069   6.401  18.153  0.00  0.00    +0.000 A 
ATOM     16  C   UNL     1       2.766   5.041  18.017  0.00  0.00    +0.000 A 
ATOM     17  C   UNL     1       3.588   4.162  17.290  0.00  0.00    +0.000 A 
BRANCH  12  19
ATOM     18  C   UNL     1       6.806   4.434  15.553  0.00  0.00    +0.000 C 
ATOM     19  O   UNL     1       5.615   3.817  16.048  0.00  0.00    +0.000 OA
ENDBRANCH  12  19
BRANCH  17  20
ATOM     20  O   UNL     1       3.121   2.875  17.334  0.00  0.00    +0.000 OA
ATOM     21  C   UNL     1       3.324   2.110  18.512  0.00  0.00    +0.000 C 
ENDBRANCH  17  20
ENDBRANCH   1  15
TORSDOF 3
ENDMDL
MODEL 9
REMARK VINA RESULT:      -7.1      3.877      5.092
REMARK  Name = 
REMARK  5 active torsions:
REMARK  status: ('A' for Active; 'I' for Inactive)
REMARK    1  A    between atoms: C_1  and  O_2
REMARK    2  A    between atoms: O_2  and  C_3
REMARK    3  A    between atoms: C_6  and  C_7
REMARK    4  A    between atoms: C_17  and  O_18
REMARK    5  A    between atoms: O_18  and  C_19
REMARK                            x       y       z     vdW  Elec       q    Type
REMARK                         _______ _______ _______ _____ _____    ______ ____
ROOT
ATOM      1  C   UNL     1       2.324   7.314  19.476  0.00  0.00    +0.000 A 
ATOM      2  N   UNL     1       1.966   7.122  20.797  0.00  0.00    +0.000 N 
ATOM      3  N   UNL     1       1.198   8.091  21.325  0.00  0.00    +0.000 NA
ATOM      4  C   UNL     1       1.043   8.935  20.308  0.00  0.00    +0.000 A 
ATOM      5  C   UNL     1       1.691   8.501  19.126  0.00  0.00    +0.000 A 
ATOM      6  C   UNL     1       1.679   9.295  17.866  0.00  0.00    +0.000 C 
ATOM      7  N   UNL     1       0.599  10.303  17.898  0.00  0.00    +0.000 NA
ATOM      8  C   UNL     1       0.619  11.073  19.161  0.00  0.00    +0.000 C 
ATOM      9  C   UNL     1       0.285  10.206  20.393  0.00  0.00    +0.000 C 
ATOM     10  H   UNL     1       2.261   6.368  21.407  0.00  0.00    +0.000 HD
ATOM     11  H   UNL     1      -0.290   9.806  17.834  0.00  0.00    +0.000 HD
ENDROOT
BRANCH   1  15
ATOM     12  C   UNL     1       5.325   4.902  17.600  0.00  0.00    +0.000 A 
ATOM     13  C   UNL     1       4.775   6.004  16.933  0.00  0.00    +0.000 A 
ATOM     14  C   UNL     1       3.773   6.774  17.527  0.00  0.00    +0.000 A 
ATOM     15  C   UNL     1       3.259   6.432  18.778  0.00  0.00    +0.000 A 
ATOM     16  C   UNL     1       3.723   5.255  19.376  0.00  0.00    +0.000 A 
ATOM     17  C   UNL     1       4.752   4.484  18.807  0.00  0.00    +0.000 A 
BRANCH  12  19
ATOM     18  C   UNL     1       7.667   4.601  17.606  0.00  0.00    +0.000 C 
ATOM     19  O   UNL     1       6.394   4.231  17.071  0.00  0.00    +0.000 OA
ENDBRANCH  12  19
BRANCH  17  20
ATOM     20  O   UNL     1       5.074   3.407  19.589  0.00  0.00    +0.000 OA
ATOM     21  C   UNL     1       4.159   2.327  19.682  0.00  0.00    +0.000 C 
ENDBRANCH  17  20
ENDBRANCH   1  15
TORSDOF 3
ENDMDL
