MODEL 1
REMARK VINA RESULT:      -7.9      0.000      0.000
REMARK  Name = 
REMARK  10 active torsions:
REMARK  status: ('A' for Active; 'I' for Inactive)
REMARK    1  A    between atoms: C_1  and  C_2
REMARK    2  A    between atoms: C_2  and  C_3
REMARK    3  A    between atoms: C_3  and  C_4
REMARK    4  A    between atoms: C_4  and  N_5
REMARK    5  A    between atoms: C_14  and  C_15
REMARK    6  A    between atoms: C_15  and  C_16
REMARK    7  A    between atoms: C_16  and  C_17
REMARK    8  A    between atoms: N_19  and  C_20
REMARK    9  A    between atoms: C_23  and  O_24
REMARK   10  A    between atoms: O_24  and  C_25
REMARK                            x       y       z     vdW  Elec       q    Type
REMARK                         _______ _______ _______ _____ _____    ______ ____
ROOT
ATOM      1  N   UNL     1      -0.542  11.211  18.954  0.00  0.00    +0.000 N 
ATOM      2  C   UNL     1      -1.016  11.508  20.253  0.00  0.00    +0.000 A 
ATOM      3  O   UNL     1      -1.814  12.419  20.462  0.00  0.00    +0.000 OA
ATOM      4  C   UNL     1      -0.497  10.651  21.320  0.00  0.00    +0.000 A 
ATOM      5  S   UNL     1      -0.948  10.820  22.951  0.00  0.00    +0.000 S 
ATOM      6  C   UNL     1       0.043   9.497  23.418  0.00  0.00    +0.000 A 
ATOM      7  C   UNL     1       0.712   8.939  22.346  0.00  0.00    +0.000 A 
ATOM      8  C   UNL     1       0.393   9.614  21.143  0.00  0.00    +0.000 A 
ATOM      9  N   UNL     1       0.837   9.388  19.825  0.00  0.00    +0.000 N 
ATOM     10  C   UNL     1       1.679   8.464  19.255  0.00  0.00    +0.000 A 
ATOM     11  N   UNL     1       1.753   8.696  17.960  0.00  0.00    +0.000 NA
ATOM     12  N   UNL     1       0.956   9.777  17.668  0.00  0.00    +0.000 NA
ATOM     13  C   UNL     1       0.389  10.178  18.784  0.00  0.00    +0.000 A 
ENDROOT
BRANCH   1  14
ATOM     14  C   UNL     1      -1.030  11.981  17.811  0.00  0.00    +0.000 C 
BRANCH  14  15
ATOM     15  C   UNL     1      -2.454  11.585  17.406  0.00  0.00    +0.000 C 
BRANCH  15  17
ATOM     16  C   UNL     1      -3.643   9.400  17.742  0.00  0.00    +0.000 C 
ATOM     17  C   UNL     1      -2.543  10.121  16.979  0.00  0.00    +0.000 C 
ENDBRANCH  15  17
ENDBRANCH  14  15
ENDBRANCH   1  14
BRANCH  10  18
ATOM     18  C   UNL     1       2.372   7.377  19.998  0.00  0.00    +0.000 C 
BRANCH  18  19
ATOM     19  C   UNL     1       1.741   6.009  19.770  0.00  0.00    +0.000 C 
BRANCH  19  20
ATOM     20  C   UNL     1       2.301   5.388  18.510  0.00  0.00    +0.000 C 
ATOM     21  O   UNL     1       1.549   4.855  17.700  0.00  0.00    +0.000 OA
ATOM     22  N   UNL     1       3.676   5.518  18.390  0.00  0.00    +0.000 N 
ATOM     23  H   UNL     1       4.189   5.804  19.215  0.00  0.00    +0.000 HD
BRANCH  22  24
ATOM     24  C   UNL     1       4.454   5.149  17.271  0.00  0.00    +0.000 A 
ATOM     25  C   UNL     1       4.867   3.840  17.024  0.00  0.00    +0.000 A 
ATOM     26  C   UNL     1       5.642   3.540  15.899  0.00  0.00    +0.000 A 
ATOM     27  C   UNL     1       6.006   4.536  14.993  0.00  0.00    +0.000 A 
ATOM     28  C   UNL     1       5.615   5.848  15.244  0.00  0.00    +0.000 A 
ATOM     29  C   UNL     1       4.820   6.148  16.361  0.00  0.00    +0.000 A 
BRANCH  27  30
ATOM     30  O   UNL     1       6.800   4.114  13.974  0.00  0.00    +0.000 OA
BRANCH  30  31
ATOM     31  C   UNL     1       6.215   3.716  12.744  0.00  0.00    +0.000 C 
ATOM     32  F   UNL     1       6.394   2.413  12.436  0.00  0.00    +0.000 F 
ATOM     33  F   UNL     1       4.889   3.970  12.782  0.00  0.00    +0.000 F 
ATOM     34  F   UNL     1       6.756   4.454  11.749  0.00  0.00    +0.000 F 
ENDBRANCH  30  31
ENDBRANCH  27  30
ENDBRANCH  22  24
ENDBRANCH  19  20
ENDBRANCH  18  19
ENDBRANCH  10  18
TORSDOF 9
ENDMDL
MODEL 2
REMARK VINA RESULT:      -7.8      6.088     10.447
REMARK  Name = 
REMARK  10 active torsions:
REMARK  status: ('A' for Active; 'I' for Inactive)
REMARK    1  A    between atoms: C_1  and  C_2
REMARK    2  A    between atoms: C_2  and  C_3
REMARK    3  A    between atoms: C_3  and  C_4
REMARK    4  A    between atoms: C_4  and  N_5
REMARK    5  A    between atoms: C_14  and  C_15
REMARK    6  A    between atoms: C_15  and  C_16
REMARK    7  A    between atoms: C_16  and  C_17
REMARK    8  A    between atoms: N_19  and  C_20
REMARK    9  A    between atoms: C_23  and  O_24
REMARK   10  A    between atoms: O_24  and  C_25
REMARK                            x       y       z     vdW  Elec       q    Type
REMARK                         _______ _______ _______ _____ _____    ______ ____
ROOT
ATOM      1  N   UNL     1       3.325   4.266  20.091  0.00  0.00    +0.000 N 
ATOM      2  C   UNL     1       4.339   3.806  19.221  0.00  0.00    +0.000 A 
ATOM      3  O   UNL     1       4.844   2.691  19.341  0.00  0.00    +0.000 OA
ATOM      4  C   UNL     1       4.736   4.743  18.169  0.00  0.00    +0.000 A 
ATOM      5  S   UNL     1       5.923   4.387  17.004  0.00  0.00    +0.000 S 
ATOM      6  C   UNL     1       5.715   5.914  16.247  0.00  0.00    +0.000 A 
ATOM      7  C   UNL     1       4.758   6.686  16.877  0.00  0.00    +0.000 A 
ATOM      8  C   UNL     1       4.202   6.000  17.984  0.00  0.00    +0.000 A 
ATOM      9  N   UNL     1       3.209   6.400  18.900  0.00  0.00    +0.000 N 
ATOM     10  C   UNL     1       2.443   7.533  19.031  0.00  0.00    +0.000 A 
ATOM     11  N   UNL     1       1.650   7.393  20.074  0.00  0.00    +0.000 NA
ATOM     12  N   UNL     1       1.890   6.163  20.639  0.00  0.00    +0.000 NA
ATOM     13  C   UNL     1       2.810   5.558  19.920  0.00  0.00    +0.000 A 
ENDROOT
BRANCH   1  14
ATOM     14  C   UNL     1       2.827   3.391  21.151  0.00  0.00    +0.000 C 
BRANCH  14  15
ATOM     15  C   UNL     1       1.403   2.893  20.876  0.00  0.00    +0.000 C 
BRANCH  15  17
ATOM     16  C   UNL     1       0.819   2.712  18.442  0.00  0.00    +0.000 C 
ATOM     17  C   UNL     1       1.343   1.970  19.661  0.00  0.00    +0.000 C 
ENDBRANCH  15  17
ENDBRANCH  14  15
ENDBRANCH   1  14
BRANCH  10  18
ATOM     18  C   UNL     1       2.504   8.707  18.120  0.00  0.00    +0.000 C 
BRANCH  18  19
ATOM     19  C   UNL     1       1.133   9.309  17.837  0.00  0.00    +0.000 C 
BRANCH  19  20
ATOM     20  C   UNL     1       0.811  10.364  18.871  0.00  0.00    +0.000 C 
ATOM     21  O   UNL     1       1.423  11.427  18.877  0.00  0.00    +0.000 OA
ATOM     22  N   UNL     1      -0.213  10.002  19.733  0.00  0.00    +0.000 N 
ATOM     23  H   UNL     1      -0.493   9.029  19.739  0.00  0.00    +0.000 HD
BRANCH  22  24
ATOM     24  C   UNL     1      -0.808  10.827  20.714  0.00  0.00    +0.000 A 
ATOM     25  C   UNL     1      -1.475  12.014  20.414  0.00  0.00    +0.000 A 
ATOM     26  C   UNL     1      -2.038  12.790  21.432  0.00  0.00    +0.000 A 
ATOM     27  C   UNL     1      -1.961  12.387  22.765  0.00  0.00    +0.000 A 
ATOM     28  C   UNL     1      -1.279  11.213  23.074  0.00  0.00    +0.000 A 
ATOM     29  C   UNL     1      -0.731  10.424  22.052  0.00  0.00    +0.000 A 
BRANCH  27  30
ATOM     30  O   UNL     1      -2.507  13.258  23.654  0.00  0.00    +0.000 OA
BRANCH  30  31
ATOM     31  C   UNL     1      -3.869  13.123  24.026  0.00  0.00    +0.000 C 
ATOM     32  F   UNL     1      -4.071  12.437  25.171  0.00  0.00    +0.000 F 
ATOM     33  F   UNL     1      -4.414  14.353  24.161  0.00  0.00    +0.000 F 
ATOM     34  F   UNL     1      -4.527  12.479  23.036  0.00  0.00    +0.000 F 
ENDBRANCH  30  31
ENDBRANCH  27  30
ENDBRANCH  22  24
ENDBRANCH  19  20
ENDBRANCH  18  19
ENDBRANCH  10  18
TORSDOF 9
ENDMDL
MODEL 3
REMARK VINA RESULT:      -7.7      5.940     10.505
REMARK  Name = 
REMARK  10 active torsions:
REMARK  status: ('A' for Active; 'I' for Inactive)
REMARK    1  A    between atoms: C_1  and  C_2
REMARK    2  A    between atoms: C_2  and  C_3
REMARK    3  A    between atoms: C_3  and  C_4
REMARK    4  A    between atoms: C_4  and  N_5
REMARK    5  A    between atoms: C_14  and  C_15
REMARK    6  A    between atoms: C_15  and  C_16
REMARK    7  A    between atoms: C_16  and  C_17
REMARK    8  A    between atoms: N_19  and  C_20
REMARK    9  A    between atoms: C_23  and  O_24
REMARK   10  A    between atoms: O_24  and  C_25
REMARK                            x       y       z     vdW  Elec       q    Type
REMARK                         _______ _______ _______ _____ _____    ______ ____
ROOT
ATOM      1  N   UNL     1       5.108   4.793  18.016  0.00  0.00    +0.000 N 
ATOM      2  C   UNL     1       4.702   3.777  18.912  0.00  0.00    +0.000 A 
ATOM      3  O   UNL     1       5.330   2.727  19.032  0.00  0.00    +0.000 OA
ATOM      4  C   UNL     1       3.495   4.069  19.686  0.00  0.00    +0.000 A 
ATOM      5  S   UNL     1       2.842   2.996  20.833  0.00  0.00    +0.000 S 
ATOM      6  C   UNL     1       1.575   4.091  21.215  0.00  0.00    +0.000 A 
ATOM      7  C   UNL     1       1.646   5.255  20.475  0.00  0.00    +0.000 A 
ATOM      8  C   UNL     1       2.757   5.229  19.597  0.00  0.00    +0.000 A 
ATOM      9  N   UNL     1       3.209   6.190  18.670  0.00  0.00    +0.000 N 
ATOM     10  C   UNL     1       2.772   7.444  18.316  0.00  0.00    +0.000 A 
ATOM     11  N   UNL     1       3.568   7.925  17.383  0.00  0.00    +0.000 NA
ATOM     12  N   UNL     1       4.537   6.988  17.115  0.00  0.00    +0.000 NA
ATOM     13  C   UNL     1       4.334   5.956  17.904  0.00  0.00    +0.000 A 
ENDROOT
BRANCH   1  14
ATOM     14  C   UNL     1       6.325   4.618  17.225  0.00  0.00    +0.000 C 
BRANCH  14  15
ATOM     15  C   UNL     1       7.595   4.746  18.073  0.00  0.00    +0.000 C 
BRANCH  15  17
ATOM     16  C   UNL     1       7.822   7.234  17.830  0.00  0.00    +0.000 C 
ATOM     17  C   UNL     1       7.661   6.082  18.810  0.00  0.00    +0.000 C 
ENDBRANCH  15  17
ENDBRANCH  14  15
ENDBRANCH   1  14
BRANCH  10  18
ATOM     18  C   UNL     1       1.598   8.133  18.916  0.00  0.00    +0.000 C 
BRANCH  18  19
ATOM     19  C   UNL     1       1.359   9.518  18.328  0.00  0.00    +0.000 C 
BRANCH  19  20
ATOM     20  C   UNL     1       0.232  10.202  19.067  0.00  0.00    +0.000 C 
ATOM     21  O   UNL     1      -0.913  10.147  18.630  0.00  0.00    +0.000 OA
ATOM     22  N   UNL     1       0.635  10.833  20.234  0.00  0.00    +0.000 N 
ATOM     23  H   UNL     1       1.630  10.965  20.371  0.00  0.00    +0.000 HD
BRANCH  22  24
ATOM     24  C   UNL     1      -0.211  11.444  21.187  0.00  0.00    +0.000 A 
ATOM     25  C   UNL     1      -0.720  10.775  22.299  0.00  0.00    +0.000 A 
ATOM     26  C   UNL     1      -1.558  11.435  23.203  0.00  0.00    +0.000 A 
ATOM     27  C   UNL     1      -1.890  12.778  23.023  0.00  0.00    +0.000 A 
ATOM     28  C   UNL     1      -1.402  13.446  21.904  0.00  0.00    +0.000 A 
ATOM     29  C   UNL     1      -0.545  12.791  21.006  0.00  0.00    +0.000 A 
BRANCH  27  30
ATOM     30  O   UNL     1      -2.750  13.279  23.948  0.00  0.00    +0.000 OA
BRANCH  30  31
ATOM     31  C   UNL     1      -4.128  12.951  23.879  0.00  0.00    +0.000 C 
ATOM     32  F   UNL     1      -4.536  12.498  22.675  0.00  0.00    +0.000 F 
ATOM     33  F   UNL     1      -4.405  12.011  24.809  0.00  0.00    +0.000 F 
ATOM     34  F   UNL     1      -4.851  14.056  24.171  0.00  0.00    +0.000 F 
ENDBRANCH  30  31
ENDBRANCH  27  30
ENDBRANCH  22  24
ENDBRANCH  19  20
ENDBRANCH  18  19
ENDBRANCH  10  18
TORSDOF 9
ENDMDL
MODEL 4
REMARK VINA RESULT:      -7.6      5.560     10.185
REMARK  Name = 
REMARK  10 active torsions:
REMARK  status: ('A' for Active; 'I' for Inactive)
REMARK    1  A    between atoms: C_1  and  C_2
REMARK    2  A    between atoms: C_2  and  C_3
REMARK    3  A    between atoms: C_3  and  C_4
REMARK    4  A    between atoms: C_4  and  N_5
REMARK    5  A    between atoms: C_14  and  C_15
REMARK    6  A    between atoms: C_15  and  C_16
REMARK    7  A    between atoms: C_16  and  C_17
REMARK    8  A    between atoms: N_19  and  C_20
REMARK    9  A    between atoms: C_23  and  O_24
REMARK   10  A    between atoms: O_24  and  C_25
REMARK                            x       y       z     vdW  Elec       q    Type
REMARK                         _______ _______ _______ _____ _____    ______ ____
ROOT
ATOM      1  N   UNL     1       4.627   4.148  16.989  0.00  0.00    +0.000 N 
ATOM      2  C   UNL     1       3.933   3.117  17.665  0.00  0.00    +0.000 A 
ATOM      3  O   UNL     1       4.225   1.932  17.517  0.00  0.00    +0.000 OA
ATOM      4  C   UNL     1       2.857   3.562  18.551  0.00  0.00    +0.000 A 
ATOM      5  S   UNL     1       1.908   2.492  19.471  0.00  0.00    +0.000 S 
ATOM      6  C   UNL     1       1.012   3.789  20.154  0.00  0.00    +0.000 A 
ATOM      7  C   UNL     1       1.427   5.019  19.681  0.00  0.00    +0.000 A 
ATOM      8  C   UNL     1       2.491   4.874  18.757  0.00  0.00    +0.000 A 
ATOM      9  N   UNL     1       3.212   5.847  18.038  0.00  0.00    +0.000 N 
ATOM     10  C   UNL     1       3.164   7.219  17.990  0.00  0.00    +0.000 A 
ATOM     11  N   UNL     1       4.075   7.649  17.141  0.00  0.00    +0.000 NA
ATOM     12  N   UNL     1       4.731   6.559  16.621  0.00  0.00    +0.000 NA
ATOM     13  C   UNL     1       4.227   5.478  17.177  0.00  0.00    +0.000 A 
ENDROOT
BRANCH   1  14
ATOM     14  C   UNL     1       5.747   3.814  16.112  0.00  0.00    +0.000 C 
BRANCH  14  15
ATOM     15  C   UNL     1       5.330   3.729  14.640  0.00  0.00    +0.000 C 
BRANCH  15  17
ATOM     16  C   UNL     1       6.411   3.645  12.375  0.00  0.00    +0.000 C 
ATOM     17  C   UNL     1       6.363   4.367  13.713  0.00  0.00    +0.000 C 
ENDBRANCH  15  17
ENDBRANCH  14  15
ENDBRANCH   1  14
BRANCH  10  18
ATOM     18  C   UNL     1       2.237   8.063  18.791  0.00  0.00    +0.000 C 
BRANCH  18  19
ATOM     19  C   UNL     1       1.648   9.219  17.992  0.00  0.00    +0.000 C 
BRANCH  19  20
ATOM     20  C   UNL     1       0.305   9.610  18.567  0.00  0.00    +0.000 C 
ATOM     21  O   UNL     1       0.116   9.559  19.778  0.00  0.00    +0.000 OA
ATOM     22  N   UNL     1      -0.607  10.029  17.611  0.00  0.00    +0.000 N 
ATOM     23  H   UNL     1      -0.385   9.838  16.641  0.00  0.00    +0.000 HD
BRANCH  22  24
ATOM     24  C   UNL     1      -1.889  10.566  17.861  0.00  0.00    +0.000 A 
ATOM     25  C   UNL     1      -3.051  10.090  17.254  0.00  0.00    +0.000 A 
ATOM     26  C   UNL     1      -4.291  10.670  17.540  0.00  0.00    +0.000 A 
ATOM     27  C   UNL     1      -4.397  11.723  18.448  0.00  0.00    +0.000 A 
ATOM     28  C   UNL     1      -3.239  12.218  19.042  0.00  0.00    +0.000 A 
ATOM     29  C   UNL     1      -1.997  11.624  18.772  0.00  0.00    +0.000 A 
BRANCH  27  30
ATOM     30  O   UNL     1      -5.653  12.223  18.594  0.00  0.00    +0.000 OA
BRANCH  30  31
ATOM     31  C   UNL     1      -6.499  11.715  19.613  0.00  0.00    +0.000 C 
ATOM     32  F   UNL     1      -7.678  12.361  19.734  0.00  0.00    +0.000 F 
ATOM     33  F   UNL     1      -6.747  10.409  19.371  0.00  0.00    +0.000 F 
ATOM     34  F   UNL     1      -5.853  11.808  20.797  0.00  0.00    +0.000 F 
ENDBRANCH  30  31
ENDBRANCH  27  30
ENDBRANCH  22  24
ENDBRANCH  19  20
ENDBRANCH  18  19
ENDBRANCH  10  18
TORSDOF 9
ENDMDL
MODEL 5
REMARK VINA RESULT:      -7.5      8.011      9.207
REMARK  Name = 
REMARK  10 active torsions:
REMARK  status: ('A' for Active; 'I' for Inactive)
REMARK    1  A    between atoms: C_1  and  C_2
REMARK    2  A    between atoms: C_2  and  C_3
REMARK    3  A    between atoms: C_3  and  C_4
REMARK    4  A    between atoms: C_4  and  N_5
REMARK    5  A    between atoms: C_14  and  C_15
REMARK    6  A    between atoms: C_15  and  C_16
REMARK    7  A    between atoms: C_16  and  C_17
REMARK    8  A    between atoms: N_19  and  C_20
REMARK    9  A    between atoms: C_23  and  O_24
REMARK   10  A    between atoms: O_24  and  C_25
REMARK                            x       y       z     vdW  Elec       q    Type
REMARK                         _______ _______ _______ _____ _____    ______ ____
ROOT
ATOM      1  N   UNL     1      11.077  14.208  19.518  0.00  0.00    +0.000 N 
ATOM      2  C   UNL     1      10.577  14.520  20.803  0.00  0.00    +0.000 A 
ATOM      3  O   UNL     1      10.845  15.579  21.365  0.00  0.00    +0.000 OA
ATOM      4  C   UNL     1       9.719  13.500  21.406  0.00  0.00    +0.000 A 
ATOM      5  S   UNL     1       8.998  13.677  22.937  0.00  0.00    +0.000 S 
ATOM      6  C   UNL     1       8.227  12.147  22.810  0.00  0.00    +0.000 A 
ATOM      7  C   UNL     1       8.520  11.509  21.621  0.00  0.00    +0.000 A 
ATOM      8  C   UNL     1       9.382  12.299  20.821  0.00  0.00    +0.000 A 
ATOM      9  N   UNL     1       9.930  12.047  19.548  0.00  0.00    +0.000 N 
ATOM     10  C   UNL     1       9.817  11.007  18.657  0.00  0.00    +0.000 A 
ATOM     11  N   UNL     1      10.546  11.275  17.593  0.00  0.00    +0.000 NA
ATOM     12  N   UNL     1      11.147  12.498  17.777  0.00  0.00    +0.000 NA
ATOM     13  C   UNL     1      10.759  12.970  18.942  0.00  0.00    +0.000 A 
ENDROOT
BRANCH   1  14
ATOM     14  C   UNL     1      11.911  15.177  18.809  0.00  0.00    +0.000 C 
BRANCH  14  15
ATOM     15  C   UNL     1      11.135  15.933  17.725  0.00  0.00    +0.000 C 
BRANCH  15  17
ATOM     16  C   UNL     1      10.469  18.352  17.664  0.00  0.00    +0.000 C 
ATOM     17  C   UNL     1      11.626  17.370  17.564  0.00  0.00    +0.000 C 
ENDBRANCH  15  17
ENDBRANCH  14  15
ENDBRANCH   1  14
BRANCH  10  18
ATOM     18  C   UNL     1       8.985   9.793  18.873  0.00  0.00    +0.000 C 
BRANCH  18  19
ATOM     19  C   UNL     1       8.402   9.236  17.579  0.00  0.00    +0.000 C 
BRANCH  19  20
ATOM     20  C   UNL     1       7.750   7.897  17.844  0.00  0.00    +0.000 C 
ATOM     21  O   UNL     1       8.157   7.185  18.756  0.00  0.00    +0.000 OA
ATOM     22  N   UNL     1       6.691   7.618  16.995  0.00  0.00    +0.000 N 
ATOM     23  H   UNL     1       6.589   8.200  16.172  0.00  0.00    +0.000 HD
BRANCH  22  24
ATOM     24  C   UNL     1       5.821   6.508  17.083  0.00  0.00    +0.000 A 
ATOM     25  C   UNL     1       6.208   5.206  16.769  0.00  0.00    +0.000 A 
ATOM     26  C   UNL     1       5.297   4.150  16.871  0.00  0.00    +0.000 A 
ATOM     27  C   UNL     1       3.990   4.371  17.304  0.00  0.00    +0.000 A 
ATOM     28  C   UNL     1       3.591   5.671  17.600  0.00  0.00    +0.000 A 
ATOM     29  C   UNL     1       4.509   6.729  17.517  0.00  0.00    +0.000 A 
BRANCH  27  30
ATOM     30  O   UNL     1       3.199   3.266  17.310  0.00  0.00    +0.000 OA
BRANCH  30  31
ATOM     31  C   UNL     1       2.569   2.856  18.514  0.00  0.00    +0.000 C 
ATOM     32  F   UNL     1       1.448   3.543  18.820  0.00  0.00    +0.000 F 
ATOM     33  F   UNL     1       2.258   1.544  18.424  0.00  0.00    +0.000 F 
ATOM     34  F   UNL     1       3.442   3.013  19.534  0.00  0.00    +0.000 F 
ENDBRANCH  30  31
ENDBRANCH  27  30
ENDBRANCH  22  24
ENDBRANCH  19  20
ENDBRANCH  18  19
ENDBRANCH  10  18
TORSDOF 9
ENDMDL
MODEL 6
REMARK VINA RESULT:      -7.5      5.986     10.626
REMARK  Name = 
REMARK  10 active torsions:
REMARK  status: ('A' for Active; 'I' for Inactive)
REMARK    1  A    between atoms: C_1  and  C_2
REMARK    2  A    between atoms: C_2  and  C_3
REMARK    3  A    between atoms: C_3  and  C_4
REMARK    4  A    between atoms: C_4  and  N_5
REMARK    5  A    between atoms: C_14  and  C_15
REMARK    6  A    between atoms: C_15  and  C_16
REMARK    7  A    between atoms: C_16  and  C_17
REMARK    8  A    between atoms: N_19  and  C_20
REMARK    9  A    between atoms: C_23  and  O_24
REMARK   10  A    between atoms: O_24  and  C_25
REMARK                            x       y       z     vdW  Elec       q    Type
REMARK                         _______ _______ _______ _____ _____    ______ ____
ROOT
ATOM      1  N   UNL     1       4.485   4.432  17.328  0.00  0.00    +0.000 N 
ATOM      2  C   UNL     1       3.880   3.369  18.037  0.00  0.00    +0.000 A 
ATOM      3  O   UNL     1       4.246   2.203  17.899  0.00  0.00    +0.000 OA
ATOM      4  C   UNL     1       2.801   3.755  18.946  0.00  0.00    +0.000 A 
ATOM      5  S   UNL     1       1.950   2.640  19.908  0.00  0.00    +0.000 S 
ATOM      6  C   UNL     1       0.988   3.886  20.596  0.00  0.00    +0.000 A 
ATOM      7  C   UNL     1       1.308   5.133  20.094  0.00  0.00    +0.000 A 
ATOM      8  C   UNL     1       2.353   5.044  19.144  0.00  0.00    +0.000 A 
ATOM      9  N   UNL     1       2.989   6.050  18.390  0.00  0.00    +0.000 N 
ATOM     10  C   UNL     1       2.848   7.416  18.324  0.00  0.00    +0.000 A 
ATOM     11  N   UNL     1       3.705   7.891  17.443  0.00  0.00    +0.000 NA
ATOM     12  N   UNL     1       4.418   6.838  16.922  0.00  0.00    +0.000 NA
ATOM     13  C   UNL     1       4.003   5.736  17.506  0.00  0.00    +0.000 A 
ENDROOT
BRANCH   1  14
ATOM     14  C   UNL     1       5.601   4.158  16.424  0.00  0.00    +0.000 C 
BRANCH  14  15
ATOM     15  C   UNL     1       5.151   4.020  14.966  0.00  0.00    +0.000 C 
BRANCH  15  17
ATOM     16  C   UNL     1       5.999   3.478  12.666  0.00  0.00    +0.000 C 
ATOM     17  C   UNL     1       6.319   4.154  13.990  0.00  0.00    +0.000 C 
ENDBRANCH  15  17
ENDBRANCH  14  15
ENDBRANCH   1  14
BRANCH  10  18
ATOM     18  C   UNL     1       1.889   8.209  19.138  0.00  0.00    +0.000 C 
BRANCH  18  19
ATOM     19  C   UNL     1       1.262   9.360  18.360  0.00  0.00    +0.000 C 
BRANCH  19  20
ATOM     20  C   UNL     1       0.867  10.468  19.311  0.00  0.00    +0.000 C 
ATOM     21  O   UNL     1       1.539  11.492  19.374  0.00  0.00    +0.000 OA
ATOM     22  N   UNL     1      -0.287  10.198  20.029  0.00  0.00    +0.000 N 
ATOM     23  H   UNL     1      -0.626   9.243  20.022  0.00  0.00    +0.000 HD
BRANCH  22  24
ATOM     24  C   UNL     1      -0.959  11.090  20.894  0.00  0.00    +0.000 A 
ATOM     25  C   UNL     1      -0.828  11.056  22.281  0.00  0.00    +0.000 A 
ATOM     26  C   UNL     1      -1.525  11.964  23.084  0.00  0.00    +0.000 A 
ATOM     27  C   UNL     1      -2.353  12.933  22.516  0.00  0.00    +0.000 A 
ATOM     28  C   UNL     1      -2.504  12.960  21.133  0.00  0.00    +0.000 A 
ATOM     29  C   UNL     1      -1.790  12.062  20.325  0.00  0.00    +0.000 A 
BRANCH  27  30
ATOM     30  O   UNL     1      -3.007  13.717  23.413  0.00  0.00    +0.000 OA
BRANCH  30  31
ATOM     31  C   UNL     1      -4.267  13.308  23.920  0.00  0.00    +0.000 C 
ATOM     32  F   UNL     1      -4.959  12.487  23.102  0.00  0.00    +0.000 F 
ATOM     33  F   UNL     1      -4.085  12.683  25.104  0.00  0.00    +0.000 F 
ATOM     34  F   UNL     1      -5.023  14.408  24.137  0.00  0.00    +0.000 F 
ENDBRANCH  30  31
ENDBRANCH  27  30
ENDBRANCH  22  24
ENDBRANCH  19  20
ENDBRANCH  18  19
ENDBRANCH  10  18
TORSDOF 9
ENDMDL
MODEL 7
REMARK VINA RESULT:      -7.5      3.616      5.434
REMARK  Name = 
REMARK  10 active torsions:
REMARK  status: ('A' for Active; 'I' for Inactive)
REMARK    1  A    between atoms: C_1  and  C_2
REMARK    2  A    between atoms: C_2  and  C_3
REMARK    3  A    between atoms: C_3  and  C_4
REMARK    4  A    between atoms: C_4  and  N_5
REMARK    5  A    between atoms: C_14  and  C_15
REMARK    6  A    between atoms: C_15  and  C_16
REMARK    7  A    between atoms: C_16  and  C_17
REMARK    8  A    between atoms: N_19  and  C_20
REMARK    9  A    between atoms: C_23  and  O_24
REMARK   10  A    between atoms: O_24  and  C_25
REMARK                            x       y       z     vdW  Elec       q    Type
REMARK                         _______ _______ _______ _____ _____    ______ ____
ROOT
ATOM      1  N   UNL     1      -3.919  12.769  20.394  0.00  0.00    +0.000 N 
ATOM      2  C   UNL     1      -4.207  12.212  19.127  0.00  0.00    +0.000 A 
ATOM      3  O   UNL     1      -5.282  12.402  18.562  0.00  0.00    +0.000 OA
ATOM      4  C   UNL     1      -3.138  11.405  18.538  0.00  0.00    +0.000 A 
ATOM      5  S   UNL     1      -3.266  10.657  17.016  0.00  0.00    +0.000 S 
ATOM      6  C   UNL     1      -1.677  10.017  17.137  0.00  0.00    +0.000 A 
ATOM      7  C   UNL     1      -1.060  10.363  18.324  0.00  0.00    +0.000 A 
ATOM      8  C   UNL     1      -1.914  11.163  19.123  0.00  0.00    +0.000 A 
ATOM      9  N   UNL     1      -1.702  11.734  20.394  0.00  0.00    +0.000 N 
ATOM     10  C   UNL     1      -0.638  11.741  21.263  0.00  0.00    +0.000 A 
ATOM     11  N   UNL     1      -0.966  12.438  22.333  0.00  0.00    +0.000 NA
ATOM     12  N   UNL     1      -2.252  12.895  22.173  0.00  0.00    +0.000 NA
ATOM     13  C   UNL     1      -2.686  12.491  20.999  0.00  0.00    +0.000 A 
ENDROOT
BRANCH   1  14
ATOM     14  C   UNL     1      -4.905  13.626  21.050  0.00  0.00    +0.000 C 
BRANCH  14  15
ATOM     15  C   UNL     1      -5.894  12.828  21.905  0.00  0.00    +0.000 C 
BRANCH  15  17
ATOM     16  C   UNL     1      -7.093  13.039  24.101  0.00  0.00    +0.000 C 
ATOM     17  C   UNL     1      -5.751  13.142  23.393  0.00  0.00    +0.000 C 
ENDBRANCH  15  17
ENDBRANCH  14  15
ENDBRANCH   1  14
BRANCH  10  18
ATOM     18  C   UNL     1       0.668  11.077  21.010  0.00  0.00    +0.000 C 
BRANCH  18  19
ATOM     19  C   UNL     1       0.978   9.975  22.017  0.00  0.00    +0.000 C 
BRANCH  19  20
ATOM     20  C   UNL     1       0.735   8.622  21.387  0.00  0.00    +0.000 C 
ATOM     21  O   UNL     1      -0.406   8.182  21.294  0.00  0.00    +0.000 OA
ATOM     22  N   UNL     1       1.892   8.003  20.939  0.00  0.00    +0.000 N 
ATOM     23  H   UNL     1       2.776   8.386  21.252  0.00  0.00    +0.000 HD
BRANCH  22  24
ATOM     24  C   UNL     1       1.962   6.798  20.205  0.00  0.00    +0.000 A 
ATOM     25  C   UNL     1       1.542   5.568  20.710  0.00  0.00    +0.000 A 
ATOM     26  C   UNL     1       1.644   4.409  19.935  0.00  0.00    +0.000 A 
ATOM     27  C   UNL     1       2.150   4.458  18.636  0.00  0.00    +0.000 A 
ATOM     28  C   UNL     1       2.590   5.678  18.132  0.00  0.00    +0.000 A 
ATOM     29  C   UNL     1       2.471   6.846  18.902  0.00  0.00    +0.000 A 
BRANCH  27  30
ATOM     30  O   UNL     1       2.238   3.252  18.015  0.00  0.00    +0.000 OA
BRANCH  30  31
ATOM     31  C   UNL     1       3.213   2.312  18.436  0.00  0.00    +0.000 C 
ATOM     32  F   UNL     1       3.701   1.531  17.448  0.00  0.00    +0.000 F 
ATOM     33  F   UNL     1       4.243   2.971  19.012  0.00  0.00    +0.000 F 
ATOM     34  F   UNL     1       2.659   1.502  19.367  0.00  0.00    +0.000 F 
ENDBRANCH  30  31
ENDBRANCH  27  30
ENDBRANCH  22  24
ENDBRANCH  19  20
ENDBRANCH  18  19
ENDBRANCH  10  18
TORSDOF 9
ENDMDL
MODEL 8
REMARK VINA RESULT:      -7.5      5.071      9.186
REMARK  Name = 
REMARK  10 active torsions:
REMARK  status: ('A' for Active; 'I' for Inactive)
REMARK    1  A    between atoms: C_1  and  C_2
REMARK    2  A    between atoms: C_2  and  C_3
REMARK    3  A    between atoms: C_3  and  C_4
REMARK    4  A    between atoms: C_4  and  N_5
REMARK    5  A    between atoms: C_14  and  C_15
REMARK    6  A    between atoms: C_15  and  C_16
REMARK    7  A    between atoms: C_16  and  C_17
REMARK    8  A    between atoms: N_19  and  C_20
REMARK    9  A    between atoms: C_23  and  O_24
REMARK   10  A    between atoms: O_24  and  C_25
REMARK                            x       y       z     vdW  Elec       q    Type
REMARK                         _______ _______ _______ _____ _____    ______ ____
ROOT
ATOM      1  N   UNL     1       3.892   5.197  17.421  0.00  0.00    +0.000 N 
ATOM      2  C   UNL     1       3.832   3.954  18.092  0.00  0.00    +0.000 A 
ATOM      3  O   UNL     1       4.326   2.934  17.616  0.00  0.00    +0.000 OA
ATOM      4  C   UNL     1       3.153   3.973  19.387  0.00  0.00    +0.000 A 
ATOM      5  S   UNL     1       2.983   2.594  20.370  0.00  0.00    +0.000 S 
ATOM      6  C   UNL     1       2.158   3.492  21.579  0.00  0.00    +0.000 A 
ATOM      7  C   UNL     1       2.010   4.822  21.236  0.00  0.00    +0.000 A 
ATOM      8  C   UNL     1       2.587   5.086  19.970  0.00  0.00    +0.000 A 
ATOM      9  N   UNL     1       2.667   6.286  19.237  0.00  0.00    +0.000 N 
ATOM     10  C   UNL     1       2.256   7.575  19.481  0.00  0.00    +0.000 A 
ATOM     11  N   UNL     1       2.585   8.329  18.452  0.00  0.00    +0.000 NA
ATOM     12  N   UNL     1       3.216   7.540  17.521  0.00  0.00    +0.000 NA
ATOM     13  C   UNL     1       3.285   6.318  18.002  0.00  0.00    +0.000 A 
ENDROOT
BRANCH   1  14
ATOM     14  C   UNL     1       4.586   5.296  16.138  0.00  0.00    +0.000 C 
BRANCH  14  15
ATOM     15  C   UNL     1       6.051   5.716  16.298  0.00  0.00    +0.000 C 
BRANCH  15  17
ATOM     16  C   UNL     1       6.231   4.043  14.435  0.00  0.00    +0.000 C 
ATOM     17  C   UNL     1       6.995   4.827  15.491  0.00  0.00    +0.000 C 
ENDBRANCH  15  17
ENDBRANCH  14  15
ENDBRANCH   1  14
BRANCH  10  18
ATOM     18  C   UNL     1       1.569   8.024  20.721  0.00  0.00    +0.000 C 
BRANCH  18  19
ATOM     19  C   UNL     1       0.330   8.865  20.440  0.00  0.00    +0.000 C 
BRANCH  19  20
ATOM     20  C   UNL     1       0.668  10.334  20.559  0.00  0.00    +0.000 C 
ATOM     21  O   UNL     1       0.977  10.808  21.647  0.00  0.00    +0.000 OA
ATOM     22  N   UNL     1       0.611  11.017  19.354  0.00  0.00    +0.000 N 
ATOM     23  H   UNL     1       0.156  10.551  18.577  0.00  0.00    +0.000 HD
BRANCH  22  24
ATOM     24  C   UNL     1       0.992  12.359  19.136  0.00  0.00    +0.000 A 
ATOM     25  C   UNL     1       0.080  13.382  18.881  0.00  0.00    +0.000 A 
ATOM     26  C   UNL     1       0.521  14.692  18.668  0.00  0.00    +0.000 A 
ATOM     27  C   UNL     1       1.879  15.007  18.722  0.00  0.00    +0.000 A 
ATOM     28  C   UNL     1       2.797  13.988  18.957  0.00  0.00    +0.000 A 
ATOM     29  C   UNL     1       2.354  12.677  19.190  0.00  0.00    +0.000 A 
BRANCH  27  30
ATOM     30  O   UNL     1       2.171  16.306  18.449  0.00  0.00    +0.000 OA
BRANCH  30  31
ATOM     31  C   UNL     1       3.104  16.618  17.426  0.00  0.00    +0.000 C 
ATOM     32  F   UNL     1       2.731  17.636  16.621  0.00  0.00    +0.000 F 
ATOM     33  F   UNL     1       4.291  16.930  17.992  0.00  0.00    +0.000 F 
ATOM     34  F   UNL     1       3.281  15.523  16.654  0.00  0.00    +0.000 F 
ENDBRANCH  30  31
ENDBRANCH  27  30
ENDBRANCH  22  24
ENDBRANCH  19  20
ENDBRANCH  18  19
ENDBRANCH  10  18
TORSDOF 9
ENDMDL
MODEL 9
REMARK VINA RESULT:      -7.4      3.303      4.479
REMARK  Name = 
REMARK  10 active torsions:
REMARK  status: ('A' for Active; 'I' for Inactive)
REMARK    1  A    between atoms: C_1  and  C_2
REMARK    2  A    between atoms: C_2  and  C_3
REMARK    3  A    between atoms: C_3  and  C_4
REMARK    4  A    between atoms: C_4  and  N_5
REMARK    5  A    between atoms: C_14  and  C_15
REMARK    6  A    between atoms: C_15  and  C_16
REMARK    7  A    between atoms: C_16  and  C_17
REMARK    8  A    between atoms: N_19  and  C_20
REMARK    9  A    between atoms: C_23  and  O_24
REMARK   10  A    between atoms: O_24  and  C_25
REMARK                            x       y       z     vdW  Elec       q    Type
REMARK                         _______ _______ _______ _____ _____    ______ ____
ROOT
ATOM      1  N   UNL     1      -2.934  10.722  17.843  0.00  0.00    +0.000 N 
ATOM      2  C   UNL     1      -3.834  11.550  18.552  0.00  0.00    +0.000 A 
ATOM      3  O   UNL     1      -4.969  11.780  18.138  0.00  0.00    +0.000 OA
ATOM      4  C   UNL     1      -3.323  12.102  19.806  0.00  0.00    +0.000 A 
ATOM      5  S   UNL     1      -4.244  13.108  20.824  0.00  0.00    +0.000 S 
ATOM      6  C   UNL     1      -2.958  13.229  21.956  0.00  0.00    +0.000 A 
ATOM      7  C   UNL     1      -1.841  12.518  21.560  0.00  0.00    +0.000 A 
ATOM      8  C   UNL     1      -2.065  11.874  20.319  0.00  0.00    +0.000 A 
ATOM      9  N   UNL     1      -1.214  11.054  19.551  0.00  0.00    +0.000 N 
ATOM     10  C   UNL     1       0.066  10.588  19.729  0.00  0.00    +0.000 A 
ATOM     11  N   UNL     1       0.395   9.841  18.695  0.00  0.00    +0.000 NA
ATOM     12  N   UNL     1      -0.669   9.810  17.827  0.00  0.00    +0.000 NA
ATOM     13  C   UNL     1      -1.644  10.521  18.352  0.00  0.00    +0.000 A 
ENDROOT
BRANCH   1  14
ATOM     14  C   UNL     1      -3.360  10.086  16.597  0.00  0.00    +0.000 C 
BRANCH  14  15
ATOM     15  C   UNL     1      -2.868  10.842  15.358  0.00  0.00    +0.000 C 
BRANCH  15  17
ATOM     16  C   UNL     1      -4.422   9.737  13.726  0.00  0.00    +0.000 C 
ATOM     17  C   UNL     1      -2.968   9.995  14.092  0.00  0.00    +0.000 C 
ENDBRANCH  15  17
ENDBRANCH  14  15
ENDBRANCH   1  14
BRANCH  10  18
ATOM     18  C   UNL     1       0.917  10.879  20.914  0.00  0.00    +0.000 C 
BRANCH  18  19
ATOM     19  C   UNL     1       0.677   9.912  22.068  0.00  0.00    +0.000 C 
BRANCH  19  20
ATOM     20  C   UNL     1       0.559   8.500  21.538  0.00  0.00    +0.000 C 
ATOM     21  O   UNL     1      -0.519   7.917  21.576  0.00  0.00    +0.000 OA
ATOM     22  N   UNL     1       1.743   8.002  21.017  0.00  0.00    +0.000 N 
ATOM     23  H   UNL     1       2.594   8.512  21.226  0.00  0.00    +0.000 HD
BRANCH  22  24
ATOM     24  C   UNL     1       1.906   6.769  20.347  0.00  0.00    +0.000 A 
ATOM     25  C   UNL     1       1.635   5.535  20.937  0.00  0.00    +0.000 A 
ATOM     26  C   UNL     1       1.822   4.349  20.221  0.00  0.00    +0.000 A 
ATOM     27  C   UNL     1       2.267   4.373  18.899  0.00  0.00    +0.000 A 
ATOM     28  C   UNL     1       2.560   5.600  18.311  0.00  0.00    +0.000 A 
ATOM     29  C   UNL     1       2.353   6.792  19.021  0.00  0.00    +0.000 A 
BRANCH  27  30
ATOM     30  O   UNL     1       2.452   3.148  18.340  0.00  0.00    +0.000 OA
BRANCH  30  31
ATOM     31  C   UNL     1       3.650   2.431  18.593  0.00  0.00    +0.000 C 
ATOM     32  F   UNL     1       3.757   1.946  19.848  0.00  0.00    +0.000 F 
ATOM     33  F   UNL     1       3.739   1.400  17.724  0.00  0.00    +0.000 F 
ATOM     34  F   UNL     1       4.701   3.255  18.377  0.00  0.00    +0.000 F 
ENDBRANCH  30  31
ENDBRANCH  27  30
ENDBRANCH  22  24
ENDBRANCH  19  20
ENDBRANCH  18  19
ENDBRANCH  10  18
TORSDOF 9
ENDMDL
