MODEL 1
REMARK VINA RESULT:      -7.2      0.000      0.000
REMARK  Name = 
REMARK  9 active torsions:
REMARK  status: ('A' for Active; 'I' for Inactive)
REMARK    1  A    between atoms: C_1  and  C_2
REMARK    2  A    between atoms: C_2  and  C_3
REMARK    3  A    between atoms: C_3  and  C_4
REMARK    4  A    between atoms: C_4  and  N_5
REMARK    5  A    between atoms: N_5  and  S_6
REMARK    6  A    between atoms: S_6  and  C_9
REMARK    7  A    between atoms: C_12  and  N_13
REMARK    8  A    between atoms: N_16  and  C_17
REMARK    9  A    between atoms: C_17  and  C_18
REMARK                            x       y       z     vdW  Elec       q    Type
REMARK                         _______ _______ _______ _____ _____    ______ ____
ROOT
ATOM      1  C   UNL     1      -0.060  11.033  19.238  0.00  0.00    +0.000 A 
ATOM      2  C   UNL     1       0.965  10.617  18.394  0.00  0.00    +0.000 A 
ATOM      3  C   UNL     1       1.712   9.485  18.731  0.00  0.00    +0.000 A 
ATOM      4  C   UNL     1       1.449   8.762  19.903  0.00  0.00    +0.000 A 
ATOM      5  C   UNL     1       0.400   9.181  20.732  0.00  0.00    +0.000 A 
ATOM      6  C   UNL     1      -0.339  10.328  20.414  0.00  0.00    +0.000 A 
ENDROOT
BRANCH   4   7
ATOM      7  N   UNL     1       2.195   7.620  20.283  0.00  0.00    +0.000 N 
ATOM      8  C   UNL     1       2.509   6.571  19.446  0.00  0.00    +0.000 C 
ATOM      9  O   UNL     1       2.263   6.519  18.248  0.00  0.00    +0.000 OA
ATOM     10  N   UNL     1       3.134   5.528  20.095  0.00  0.00    +0.000 N 
ATOM     11  H   UNL     1       2.661   7.648  21.177  0.00  0.00    +0.000 HD
ATOM     12  H   UNL     1       3.642   5.728  20.942  0.00  0.00    +0.000 HD
BRANCH  10  13
ATOM     13  C   UNL     1       3.602   4.417  19.289  0.00  0.00    +0.000 C 
BRANCH  13  14
ATOM     14  C   UNL     1       4.918   4.681  18.624  0.00  0.00    +0.000 A 
ATOM     15  C   UNL     1       5.971   5.301  19.303  0.00  0.00    +0.000 A 
ATOM     16  C   UNL     1       7.215   5.420  18.692  0.00  0.00    +0.000 A 
ATOM     17  C   UNL     1       7.366   4.914  17.411  0.00  0.00    +0.000 A 
ATOM     18  N   UNL     1       6.374   4.316  16.720  0.00  0.00    +0.000 NA
ATOM     19  C   UNL     1       5.179   4.206  17.343  0.00  0.00    +0.000 A 
ENDBRANCH  13  14
ENDBRANCH  10  13
ENDBRANCH   4   7
BRANCH   1  20
ATOM     20  S   UNL     1      -0.992  12.501  18.858  0.00  0.00    +0.000 S 
ATOM     21  O   UNL     1      -0.069  13.603  18.704  0.00  0.00    +0.000 OA
ATOM     22  O   UNL     1      -2.095  12.536  19.790  0.00  0.00    +0.000 OA
BRANCH  20  23
ATOM     23  N   UNL     1      -1.633  12.123  17.333  0.00  0.00    +0.000 NA
ATOM     24  H   UNL     1      -1.653  12.948  16.737  0.00  0.00    +0.000 HD
BRANCH  23  25
ATOM     25  C   UNL     1      -2.888  11.350  17.324  0.00  0.00    +0.000 C 
BRANCH  25  26
ATOM     26  C   UNL     1      -2.573   9.879  17.051  0.00  0.00    +0.000 C 
BRANCH  26  28
ATOM     27  C   UNL     1      -3.667  10.553  14.872  0.00  0.00    +0.000 C 
ATOM     28  C   UNL     1      -2.752   9.558  15.567  0.00  0.00    +0.000 C 
ENDBRANCH  26  28
ENDBRANCH  25  26
ENDBRANCH  23  25
ENDBRANCH  20  23
ENDBRANCH   1  20
TORSDOF 8
ENDMDL
MODEL 2
REMARK VINA RESULT:      -7.2      3.231      8.894
REMARK  Name = 
REMARK  9 active torsions:
REMARK  status: ('A' for Active; 'I' for Inactive)
REMARK    1  A    between atoms: C_1  and  C_2
REMARK    2  A    between atoms: C_2  and  C_3
REMARK    3  A    between atoms: C_3  and  C_4
REMARK    4  A    between atoms: C_4  and  N_5
REMARK    5  A    between atoms: N_5  and  S_6
REMARK    6  A    between atoms: S_6  and  C_9
REMARK    7  A    between atoms: C_12  and  N_13
REMARK    8  A    between atoms: N_16  and  C_17
REMARK    9  A    between atoms: C_17  and  C_18
REMARK                            x       y       z     vdW  Elec       q    Type
REMARK                         _______ _______ _______ _____ _____    ______ ____
ROOT
ATOM      1  C   UNL     1       4.240   5.460  18.526  0.00  0.00    +0.000 A 
ATOM      2  C   UNL     1       3.235   5.828  19.416  0.00  0.00    +0.000 A 
ATOM      3  C   UNL     1       2.502   6.994  19.177  0.00  0.00    +0.000 A 
ATOM      4  C   UNL     1       2.762   7.801  18.060  0.00  0.00    +0.000 A 
ATOM      5  C   UNL     1       3.762   7.407  17.163  0.00  0.00    +0.000 A 
ATOM      6  C   UNL     1       4.517   6.252  17.406  0.00  0.00    +0.000 A 
ENDROOT
BRANCH   4   7
ATOM      7  N   UNL     1       2.050   8.995  17.795  0.00  0.00    +0.000 N 
ATOM      8  C   UNL     1       1.157   9.588  18.662  0.00  0.00    +0.000 C 
ATOM      9  O   UNL     1       0.922   9.217  19.805  0.00  0.00    +0.000 OA
ATOM     10  N   UNL     1       0.507  10.672  18.113  0.00  0.00    +0.000 N 
ATOM     11  H   UNL     1       2.329   9.531  16.989  0.00  0.00    +0.000 HD
ATOM     12  H   UNL     1       0.956  11.169  17.361  0.00  0.00    +0.000 HD
BRANCH  10  13
ATOM     13  C   UNL     1      -0.377  11.434  18.974  0.00  0.00    +0.000 C 
BRANCH  13  14
ATOM     14  C   UNL     1      -1.828  11.228  18.666  0.00  0.00    +0.000 A 
ATOM     15  C   UNL     1      -2.819  12.039  19.228  0.00  0.00    +0.000 A 
ATOM     16  C   UNL     1      -4.142  11.895  18.825  0.00  0.00    +0.000 A 
ATOM     17  C   UNL     1      -4.435  10.937  17.868  0.00  0.00    +0.000 A 
ATOM     18  N   UNL     1      -3.510  10.131  17.307  0.00  0.00    +0.000 NA
ATOM     19  C   UNL     1      -2.231  10.300  17.710  0.00  0.00    +0.000 A 
ENDBRANCH  13  14
ENDBRANCH  10  13
ENDBRANCH   4   7
BRANCH   1  20
ATOM     20  S   UNL     1       5.222   4.009  18.836  0.00  0.00    +0.000 S 
ATOM     21  O   UNL     1       4.901   3.510  20.154  0.00  0.00    +0.000 OA
ATOM     22  O   UNL     1       6.571   4.337  18.437  0.00  0.00    +0.000 OA
BRANCH  20  23
ATOM     23  N   UNL     1       4.608   2.921  17.687  0.00  0.00    +0.000 NA
ATOM     24  H   UNL     1       4.441   3.391  16.799  0.00  0.00    +0.000 HD
BRANCH  23  25
ATOM     25  C   UNL     1       3.492   2.065  18.128  0.00  0.00    +0.000 C 
BRANCH  25  26
ATOM     26  C   UNL     1       2.167   2.727  17.747  0.00  0.00    +0.000 C 
BRANCH  26  28
ATOM     27  C   UNL     1       1.184   2.986  20.063  0.00  0.00    +0.000 C 
ATOM     28  C   UNL     1       1.060   2.303  18.711  0.00  0.00    +0.000 C 
ENDBRANCH  26  28
ENDBRANCH  25  26
ENDBRANCH  23  25
ENDBRANCH  20  23
ENDBRANCH   1  20
TORSDOF 8
ENDMDL
MODEL 3
REMARK VINA RESULT:      -7.1      3.814      9.169
REMARK  Name = 
REMARK  9 active torsions:
REMARK  status: ('A' for Active; 'I' for Inactive)
REMARK    1  A    between atoms: C_1  and  C_2
REMARK    2  A    between atoms: C_2  and  C_3
REMARK    3  A    between atoms: C_3  and  C_4
REMARK    4  A    between atoms: C_4  and  N_5
REMARK    5  A    between atoms: N_5  and  S_6
REMARK    6  A    between atoms: S_6  and  C_9
REMARK    7  A    between atoms: C_12  and  N_13
REMARK    8  A    between atoms: N_16  and  C_17
REMARK    9  A    between atoms: C_17  and  C_18
REMARK                            x       y       z     vdW  Elec       q    Type
REMARK                         _______ _______ _______ _____ _____    ______ ____
ROOT
ATOM      1  C   UNL     1       4.995   5.327  16.740  0.00  0.00    +0.000 A 
ATOM      2  C   UNL     1       5.090   6.712  16.645  0.00  0.00    +0.000 A 
ATOM      3  C   UNL     1       4.148   7.508  17.301  0.00  0.00    +0.000 A 
ATOM      4  C   UNL     1       3.108   6.940  18.051  0.00  0.00    +0.000 A 
ATOM      5  C   UNL     1       3.038   5.544  18.154  0.00  0.00    +0.000 A 
ATOM      6  C   UNL     1       3.964   4.737  17.481  0.00  0.00    +0.000 A 
ENDROOT
BRANCH   4   7
ATOM      7  N   UNL     1       2.129   7.716  18.716  0.00  0.00    +0.000 N 
ATOM      8  C   UNL     1       1.776   9.003  18.370  0.00  0.00    +0.000 C 
ATOM      9  O   UNL     1       2.193   9.617  17.396  0.00  0.00    +0.000 OA
ATOM     10  N   UNL     1       0.889   9.577  19.253  0.00  0.00    +0.000 N 
ATOM     11  H   UNL     1       1.541   7.244  19.385  0.00  0.00    +0.000 HD
ATOM     12  H   UNL     1       0.296   8.972  19.799  0.00  0.00    +0.000 HD
BRANCH  10  13
ATOM     13  C   UNL     1       0.370  10.892  18.927  0.00  0.00    +0.000 C 
BRANCH  13  14
ATOM     14  C   UNL     1      -1.033  10.862  18.403  0.00  0.00    +0.000 A 
ATOM     15  C   UNL     1      -1.438   9.925  17.447  0.00  0.00    +0.000 A 
ATOM     16  C   UNL     1      -2.776   9.851  17.074  0.00  0.00    +0.000 A 
ATOM     17  C   UNL     1      -3.672  10.722  17.671  0.00  0.00    +0.000 A 
ATOM     18  N   UNL     1      -3.320  11.644  18.592  0.00  0.00    +0.000 NA
ATOM     19  C   UNL     1      -2.015  11.687  18.942  0.00  0.00    +0.000 A 
ENDBRANCH  13  14
ENDBRANCH  10  13
ENDBRANCH   4   7
BRANCH   1  20
ATOM     20  S   UNL     1       6.151   4.289  15.871  0.00  0.00    +0.000 S 
ATOM     21  O   UNL     1       5.654   2.931  15.891  0.00  0.00    +0.000 OA
ATOM     22  O   UNL     1       7.463   4.643  16.359  0.00  0.00    +0.000 OA
BRANCH  20  23
ATOM     23  N   UNL     1       6.027   4.881  14.285  0.00  0.00    +0.000 NA
ATOM     24  H   UNL     1       5.069   4.808  13.948  0.00  0.00    +0.000 HD
BRANCH  23  25
ATOM     25  C   UNL     1       7.035   4.396  13.326  0.00  0.00    +0.000 C 
BRANCH  25  26
ATOM     26  C   UNL     1       6.364   3.462  12.318  0.00  0.00    +0.000 C 
BRANCH  26  28
ATOM     27  C   UNL     1       4.148   3.114  11.148  0.00  0.00    +0.000 C 
ATOM     28  C   UNL     1       4.843   3.561  12.424  0.00  0.00    +0.000 C 
ENDBRANCH  26  28
ENDBRANCH  25  26
ENDBRANCH  23  25
ENDBRANCH  20  23
ENDBRANCH   1  20
TORSDOF 8
ENDMDL
MODEL 4
REMARK VINA RESULT:      -7.0      0.957      1.381
REMARK  Name = 
REMARK  9 active torsions:
REMARK  status: ('A' for Active; 'I' for Inactive)
REMARK    1  A    between atoms: C_1  and  C_2
REMARK    2  A    between atoms: C_2  and  C_3
REMARK    3  A    between atoms: C_3  and  C_4
REMARK    4  A    between atoms: C_4  and  N_5
REMARK    5  A    between atoms: N_5  and  S_6
REMARK    6  A    between atoms: S_6  and  C_9
REMARK    7  A    between atoms: C_12  and  N_13
REMARK    8  A    between atoms: N_16  and  C_17
REMARK    9  A    between atoms: C_17  and  C_18
REMARK                            x       y       z     vdW  Elec       q    Type
REMARK                         _______ _______ _______ _____ _____    ______ ____
ROOT
ATOM      1  C   UNL     1       0.220  10.337  19.265  0.00  0.00    +0.000 A 
ATOM      2  C   UNL     1       1.049   9.881  18.244  0.00  0.00    +0.000 A 
ATOM      3  C   UNL     1       1.874   8.777  18.475  0.00  0.00    +0.000 A 
ATOM      4  C   UNL     1       1.884   8.121  19.714  0.00  0.00    +0.000 A 
ATOM      5  C   UNL     1       1.029   8.579  20.725  0.00  0.00    +0.000 A 
ATOM      6  C   UNL     1       0.215   9.699  20.510  0.00  0.00    +0.000 A 
ENDROOT
BRANCH   4   7
ATOM      7  N   UNL     1       2.717   7.010  19.986  0.00  0.00    +0.000 N 
ATOM      8  C   UNL     1       2.836   5.899  19.180  0.00  0.00    +0.000 C 
ATOM      9  O   UNL     1       2.310   5.755  18.084  0.00  0.00    +0.000 OA
ATOM     10  N   UNL     1       3.615   4.907  19.735  0.00  0.00    +0.000 N 
ATOM     11  H   UNL     1       3.384   7.105  20.736  0.00  0.00    +0.000 HD
ATOM     12  H   UNL     1       4.310   5.170  20.417  0.00  0.00    +0.000 HD
BRANCH  10  13
ATOM     13  C   UNL     1       3.893   3.736  18.925  0.00  0.00    +0.000 C 
BRANCH  13  14
ATOM     14  C   UNL     1       4.985   3.953  17.924  0.00  0.00    +0.000 A 
ATOM     15  C   UNL     1       4.777   3.747  16.557  0.00  0.00    +0.000 A 
ATOM     16  C   UNL     1       5.778   4.074  15.647  0.00  0.00    +0.000 A 
ATOM     17  C   UNL     1       6.963   4.598  16.137  0.00  0.00    +0.000 A 
ATOM     18  N   UNL     1       7.205   4.806  17.448  0.00  0.00    +0.000 NA
ATOM     19  C   UNL     1       6.211   4.488  18.308  0.00  0.00    +0.000 A 
ENDBRANCH  13  14
ENDBRANCH  10  13
ENDBRANCH   4   7
BRANCH   1  20
ATOM     20  S   UNL     1      -0.801  11.773  19.014  0.00  0.00    +0.000 S 
ATOM     21  O   UNL     1       0.057  12.910  18.766  0.00  0.00    +0.000 OA
ATOM     22  O   UNL     1      -1.788  11.760  20.068  0.00  0.00    +0.000 OA
BRANCH  20  23
ATOM     23  N   UNL     1      -1.602  11.383  17.569  0.00  0.00    +0.000 NA
ATOM     24  H   UNL     1      -2.001  12.218  17.143  0.00  0.00    +0.000 HD
BRANCH  23  25
ATOM     25  C   UNL     1      -2.531  10.241  17.623  0.00  0.00    +0.000 C 
BRANCH  25  26
ATOM     26  C   UNL     1      -3.752  10.540  16.753  0.00  0.00    +0.000 C 
BRANCH  26  28
ATOM     27  C   UNL     1      -3.024   9.947  14.404  0.00  0.00    +0.000 C 
ATOM     28  C   UNL     1      -3.320  11.069  15.386  0.00  0.00    +0.000 C 
ENDBRANCH  26  28
ENDBRANCH  25  26
ENDBRANCH  23  25
ENDBRANCH  20  23
ENDBRANCH   1  20
TORSDOF 8
ENDMDL
MODEL 5
REMARK VINA RESULT:      -7.0      3.826      9.149
REMARK  Name = 
REMARK  9 active torsions:
REMARK  status: ('A' for Active; 'I' for Inactive)
REMARK    1  A    between atoms: C_1  and  C_2
REMARK    2  A    between atoms: C_2  and  C_3
REMARK    3  A    between atoms: C_3  and  C_4
REMARK    4  A    between atoms: C_4  and  N_5
REMARK    5  A    between atoms: N_5  and  S_6
REMARK    6  A    between atoms: S_6  and  C_9
REMARK    7  A    between atoms: C_12  and  N_13
REMARK    8  A    between atoms: N_16  and  C_17
REMARK    9  A    between atoms: C_17  and  C_18
REMARK                            x       y       z     vdW  Elec       q    Type
REMARK                         _______ _______ _______ _____ _____    ______ ____
ROOT
ATOM      1  C   UNL     1       2.672   7.343  18.720  0.00  0.00    +0.000 A 
ATOM      2  C   UNL     1       2.434   8.337  17.776  0.00  0.00    +0.000 A 
ATOM      3  C   UNL     1       1.606   9.412  18.109  0.00  0.00    +0.000 A 
ATOM      4  C   UNL     1       1.008   9.507  19.374  0.00  0.00    +0.000 A 
ATOM      5  C   UNL     1       1.273   8.509  20.320  0.00  0.00    +0.000 A 
ATOM      6  C   UNL     1       2.084   7.415  19.988  0.00  0.00    +0.000 A 
ENDROOT
BRANCH   4   7
ATOM      7  N   UNL     1       0.153  10.574  19.740  0.00  0.00    +0.000 N 
ATOM      8  C   UNL     1       0.322  11.374  20.849  0.00  0.00    +0.000 C 
ATOM      9  O   UNL     1       1.273  11.331  21.619  0.00  0.00    +0.000 OA
ATOM     10  N   UNL     1      -0.718  12.256  21.045  0.00  0.00    +0.000 N 
ATOM     11  H   UNL     1      -0.534  10.869  19.063  0.00  0.00    +0.000 HD
ATOM     12  H   UNL     1      -1.269  12.530  20.247  0.00  0.00    +0.000 HD
BRANCH  10  13
ATOM     13  C   UNL     1      -0.593  13.217  22.123  0.00  0.00    +0.000 C 
BRANCH  13  14
ATOM     14  C   UNL     1      -1.739  13.181  23.086  0.00  0.00    +0.000 A 
ATOM     15  C   UNL     1      -2.066  14.286  23.878  0.00  0.00    +0.000 A 
ATOM     16  C   UNL     1      -3.209  14.256  24.670  0.00  0.00    +0.000 A 
ATOM     17  C   UNL     1      -3.992  13.114  24.648  0.00  0.00    +0.000 A 
ATOM     18  N   UNL     1      -3.707  12.025  23.905  0.00  0.00    +0.000 NA
ATOM     19  C   UNL     1      -2.596  12.086  23.136  0.00  0.00    +0.000 A 
ENDBRANCH  13  14
ENDBRANCH  10  13
ENDBRANCH   4   7
BRANCH   1  20
ATOM     20  S   UNL     1       3.680   5.937  18.304  0.00  0.00    +0.000 S 
ATOM     21  O   UNL     1       4.184   5.354  19.528  0.00  0.00    +0.000 OA
ATOM     22  O   UNL     1       4.549   6.361  17.231  0.00  0.00    +0.000 OA
BRANCH  20  23
ATOM     23  N   UNL     1       2.538   4.873  17.636  0.00  0.00    +0.000 NA
ATOM     24  H   UNL     1       1.591   5.192  17.834  0.00  0.00    +0.000 HD
BRANCH  23  25
ATOM     25  C   UNL     1       2.750   3.438  17.895  0.00  0.00    +0.000 C 
BRANCH  25  26
ATOM     26  C   UNL     1       1.447   2.818  18.400  0.00  0.00    +0.000 C 
BRANCH  26  28
ATOM     27  C   UNL     1       1.161   3.846  20.694  0.00  0.00    +0.000 C 
ATOM     28  C   UNL     1       1.511   2.592  19.910  0.00  0.00    +0.000 C 
ENDBRANCH  26  28
ENDBRANCH  25  26
ENDBRANCH  23  25
ENDBRANCH  20  23
ENDBRANCH   1  20
TORSDOF 8
ENDMDL
MODEL 6
REMARK VINA RESULT:      -7.0      3.215      8.944
REMARK  Name = 
REMARK  9 active torsions:
REMARK  status: ('A' for Active; 'I' for Inactive)
REMARK    1  A    between atoms: C_1  and  C_2
REMARK    2  A    between atoms: C_2  and  C_3
REMARK    3  A    between atoms: C_3  and  C_4
REMARK    4  A    between atoms: C_4  and  N_5
REMARK    5  A    between atoms: N_5  and  S_6
REMARK    6  A    between atoms: S_6  and  C_9
REMARK    7  A    between atoms: C_12  and  N_13
REMARK    8  A    between atoms: N_16  and  C_17
REMARK    9  A    between atoms: C_17  and  C_18
REMARK                            x       y       z     vdW  Elec       q    Type
REMARK                         _______ _______ _______ _____ _____    ______ ____
ROOT
ATOM      1  C   UNL     1       4.110   5.584  18.597  0.00  0.00    +0.000 A 
ATOM      2  C   UNL     1       4.552   6.444  17.597  0.00  0.00    +0.000 A 
ATOM      3  C   UNL     1       3.814   7.595  17.307  0.00  0.00    +0.000 A 
ATOM      4  C   UNL     1       2.635   7.898  18.004  0.00  0.00    +0.000 A 
ATOM      5  C   UNL     1       2.213   7.033  19.022  0.00  0.00    +0.000 A 
ATOM      6  C   UNL     1       2.935   5.865  19.303  0.00  0.00    +0.000 A 
ENDROOT
BRANCH   4   7
ATOM      7  N   UNL     1       1.855   9.046  17.727  0.00  0.00    +0.000 N 
ATOM      8  C   UNL     1       1.166   9.777  18.671  0.00  0.00    +0.000 C 
ATOM      9  O   UNL     1       1.202   9.589  19.880  0.00  0.00    +0.000 OA
ATOM     10  N   UNL     1       0.385  10.770  18.123  0.00  0.00    +0.000 N 
ATOM     11  H   UNL     1       1.934   9.448  16.805  0.00  0.00    +0.000 HD
ATOM     12  H   UNL     1       0.643  11.140  17.222  0.00  0.00    +0.000 HD
BRANCH  10  13
ATOM     13  C   UNL     1      -0.300  11.667  19.034  0.00  0.00    +0.000 C 
BRANCH  13  14
ATOM     14  C   UNL     1      -1.768  11.781  18.762  0.00  0.00    +0.000 A 
ATOM     15  C   UNL     1      -2.336  11.276  17.588  0.00  0.00    +0.000 A 
ATOM     16  C   UNL     1      -3.718  11.292  17.425  0.00  0.00    +0.000 A 
ATOM     17  C   UNL     1      -4.492  11.818  18.447  0.00  0.00    +0.000 A 
ATOM     18  N   UNL     1      -3.982  12.321  19.590  0.00  0.00    +0.000 NA
ATOM     19  C   UNL     1      -2.637  12.283  19.725  0.00  0.00    +0.000 A 
ENDBRANCH  13  14
ENDBRANCH  10  13
ENDBRANCH   4   7
BRANCH   1  20
ATOM     20  S   UNL     1       5.004   4.086  18.949  0.00  0.00    +0.000 S 
ATOM     21  O   UNL     1       4.473   3.509  20.163  0.00  0.00    +0.000 OA
ATOM     22  O   UNL     1       6.404   4.399  18.785  0.00  0.00    +0.000 OA
BRANCH  20  23
ATOM     23  N   UNL     1       4.554   3.097  17.645  0.00  0.00    +0.000 NA
ATOM     24  H   UNL     1       5.206   3.205  16.870  0.00  0.00    +0.000 HD
BRANCH  23  25
ATOM     25  C   UNL     1       3.137   3.147  17.244  0.00  0.00    +0.000 C 
BRANCH  25  26
ATOM     26  C   UNL     1       2.348   2.110  18.045  0.00  0.00    +0.000 C 
BRANCH  26  28
ATOM     27  C   UNL     1       1.126   2.759  20.163  0.00  0.00    +0.000 C 
ATOM     28  C   UNL     1       1.090   2.738  18.643  0.00  0.00    +0.000 C 
ENDBRANCH  26  28
ENDBRANCH  25  26
ENDBRANCH  23  25
ENDBRANCH  20  23
ENDBRANCH   1  20
TORSDOF 8
ENDMDL
MODEL 7
REMARK VINA RESULT:      -7.0      0.986      1.443
REMARK  Name = 
REMARK  9 active torsions:
REMARK  status: ('A' for Active; 'I' for Inactive)
REMARK    1  A    between atoms: C_1  and  C_2
REMARK    2  A    between atoms: C_2  and  C_3
REMARK    3  A    between atoms: C_3  and  C_4
REMARK    4  A    between atoms: C_4  and  N_5
REMARK    5  A    between atoms: N_5  and  S_6
REMARK    6  A    between atoms: S_6  and  C_9
REMARK    7  A    between atoms: C_12  and  N_13
REMARK    8  A    between atoms: N_16  and  C_17
REMARK    9  A    between atoms: C_17  and  C_18
REMARK                            x       y       z     vdW  Elec       q    Type
REMARK                         _______ _______ _______ _____ _____    ______ ____
ROOT
ATOM      1  C   UNL     1      -0.061  10.240  19.427  0.00  0.00    +0.000 A 
ATOM      2  C   UNL     1      -0.066   9.585  20.654  0.00  0.00    +0.000 A 
ATOM      3  C   UNL     1       0.837   8.542  20.877  0.00  0.00    +0.000 A 
ATOM      4  C   UNL     1       1.746   8.142  19.887  0.00  0.00    +0.000 A 
ATOM      5  C   UNL     1       1.753   8.825  18.664  0.00  0.00    +0.000 A 
ATOM      6  C   UNL     1       0.836   9.857  18.424  0.00  0.00    +0.000 A 
ENDROOT
BRANCH   4   7
ATOM      7  N   UNL     1       2.664   7.081  20.073  0.00  0.00    +0.000 N 
ATOM      8  C   UNL     1       2.798   5.999  19.230  0.00  0.00    +0.000 C 
ATOM      9  O   UNL     1       2.209   5.847  18.168  0.00  0.00    +0.000 OA
ATOM     10  N   UNL     1       3.674   5.047  19.705  0.00  0.00    +0.000 N 
ATOM     11  H   UNL     1       3.373   7.201  20.780  0.00  0.00    +0.000 HD
ATOM     12  H   UNL     1       4.395   5.338  20.347  0.00  0.00    +0.000 HD
BRANCH  10  13
ATOM     13  C   UNL     1       3.970   3.916  18.847  0.00  0.00    +0.000 C 
BRANCH  13  14
ATOM     14  C   UNL     1       5.054   4.194  17.853  0.00  0.00    +0.000 A 
ATOM     15  C   UNL     1       6.322   4.626  18.253  0.00  0.00    +0.000 A 
ATOM     16  C   UNL     1       7.338   4.757  17.312  0.00  0.00    +0.000 A 
ATOM     17  C   UNL     1       7.051   4.453  15.992  0.00  0.00    +0.000 A 
ATOM     18  N   UNL     1       5.840   4.040  15.564  0.00  0.00    +0.000 NA
ATOM     19  C   UNL     1       4.875   3.912  16.502  0.00  0.00    +0.000 A 
ENDBRANCH  13  14
ENDBRANCH  10  13
ENDBRANCH   4   7
BRANCH   1  20
ATOM     20  S   UNL     1      -1.236  11.536  19.100  0.00  0.00    +0.000 S 
ATOM     21  O   UNL     1      -0.618  12.505  18.222  0.00  0.00    +0.000 OA
ATOM     22  O   UNL     1      -1.810  11.898  20.375  0.00  0.00    +0.000 OA
BRANCH  20  23
ATOM     23  N   UNL     1      -2.433  10.709  18.225  0.00  0.00    +0.000 NA
ATOM     24  H   UNL     1      -2.017  10.170  17.468  0.00  0.00    +0.000 HD
BRANCH  23  25
ATOM     25  C   UNL     1      -3.609  11.498  17.819  0.00  0.00    +0.000 C 
BRANCH  25  26
ATOM     26  C   UNL     1      -4.120  10.986  16.472  0.00  0.00    +0.000 C 
BRANCH  26  28
ATOM     27  C   UNL     1      -2.996  10.091  14.390  0.00  0.00    +0.000 C 
ATOM     28  C   UNL     1      -3.161   9.947  15.894  0.00  0.00    +0.000 C 
ENDBRANCH  26  28
ENDBRANCH  25  26
ENDBRANCH  23  25
ENDBRANCH  20  23
ENDBRANCH   1  20
TORSDOF 8
ENDMDL
MODEL 8
REMARK VINA RESULT:      -6.9      1.144      1.793
REMARK  Name = 
REMARK  9 active torsions:
REMARK  status: ('A' for Active; 'I' for Inactive)
REMARK    1  A    between atoms: C_1  and  C_2
REMARK    2  A    between atoms: C_2  and  C_3
REMARK    3  A    between atoms: C_3  and  C_4
REMARK    4  A    between atoms: C_4  and  N_5
REMARK    5  A    between atoms: N_5  and  S_6
REMARK    6  A    between atoms: S_6  and  C_9
REMARK    7  A    between atoms: C_12  and  N_13
REMARK    8  A    between atoms: N_16  and  C_17
REMARK    9  A    between atoms: C_17  and  C_18
REMARK                            x       y       z     vdW  Elec       q    Type
REMARK                         _______ _______ _______ _____ _____    ______ ____
ROOT
ATOM      1  C   UNL     1       0.225  10.208  20.024  0.00  0.00    +0.000 A 
ATOM      2  C   UNL     1       0.231   9.430  21.177  0.00  0.00    +0.000 A 
ATOM      3  C   UNL     1       1.029   8.284  21.226  0.00  0.00    +0.000 A 
ATOM      4  C   UNL     1       1.821   7.901  20.134  0.00  0.00    +0.000 A 
ATOM      5  C   UNL     1       1.820   8.705  18.987  0.00  0.00    +0.000 A 
ATOM      6  C   UNL     1       1.006   9.843  18.921  0.00  0.00    +0.000 A 
ENDROOT
BRANCH   4   7
ATOM      7  N   UNL     1       2.628   6.738  20.144  0.00  0.00    +0.000 N 
ATOM      8  C   UNL     1       2.699   5.820  19.118  0.00  0.00    +0.000 C 
ATOM      9  O   UNL     1       2.146   5.924  18.031  0.00  0.00    +0.000 OA
ATOM     10  N   UNL     1       3.463   4.717  19.430  0.00  0.00    +0.000 N 
ATOM     11  H   UNL     1       3.314   6.658  20.879  0.00  0.00    +0.000 HD
ATOM     12  H   UNL     1       4.179   4.813  20.133  0.00  0.00    +0.000 HD
BRANCH  10  13
ATOM     13  C   UNL     1       3.691   3.738  18.385  0.00  0.00    +0.000 C 
BRANCH  13  14
ATOM     14  C   UNL     1       4.922   4.009  17.577  0.00  0.00    +0.000 A 
ATOM     15  C   UNL     1       4.900   3.987  16.179  0.00  0.00    +0.000 A 
ATOM     16  C   UNL     1       6.033   4.361  15.463  0.00  0.00    +0.000 A 
ATOM     17  C   UNL     1       7.158   4.747  16.172  0.00  0.00    +0.000 A 
ATOM     18  N   UNL     1       7.222   4.775  17.519  0.00  0.00    +0.000 NA
ATOM     19  C   UNL     1       6.104   4.416  18.188  0.00  0.00    +0.000 A 
ENDBRANCH  13  14
ENDBRANCH  10  13
ENDBRANCH   4   7
BRANCH   1  20
ATOM     20  S   UNL     1      -0.821  11.643  19.917  0.00  0.00    +0.000 S 
ATOM     21  O   UNL     1      -0.098  12.689  19.229  0.00  0.00    +0.000 OA
ATOM     22  O   UNL     1      -1.392  11.830  21.230  0.00  0.00    +0.000 OA
BRANCH  20  23
ATOM     23  N   UNL     1      -2.065  11.094  18.901  0.00  0.00    +0.000 NA
ATOM     24  H   UNL     1      -2.191  10.088  18.999  0.00  0.00    +0.000 HD
BRANCH  23  25
ATOM     25  C   UNL     1      -2.019  11.556  17.503  0.00  0.00    +0.000 C 
BRANCH  25  26
ATOM     26  C   UNL     1      -2.311  10.378  16.572  0.00  0.00    +0.000 C 
BRANCH  26  28
ATOM     27  C   UNL     1      -3.038   9.984  14.181  0.00  0.00    +0.000 C 
ATOM     28  C   UNL     1      -3.246  10.806  15.442  0.00  0.00    +0.000 C 
ENDBRANCH  26  28
ENDBRANCH  25  26
ENDBRANCH  23  25
ENDBRANCH  20  23
ENDBRANCH   1  20
TORSDOF 8
ENDMDL
MODEL 9
REMARK VINA RESULT:      -6.9      1.173      1.522
REMARK  Name = 
REMARK  9 active torsions:
REMARK  status: ('A' for Active; 'I' for Inactive)
REMARK    1  A    between atoms: C_1  and  C_2
REMARK    2  A    between atoms: C_2  and  C_3
REMARK    3  A    between atoms: C_3  and  C_4
REMARK    4  A    between atoms: C_4  and  N_5
REMARK    5  A    between atoms: N_5  and  S_6
REMARK    6  A    between atoms: S_6  and  C_9
REMARK    7  A    between atoms: C_12  and  N_13
REMARK    8  A    between atoms: N_16  and  C_17
REMARK    9  A    between atoms: C_17  and  C_18
REMARK                            x       y       z     vdW  Elec       q    Type
REMARK                         _______ _______ _______ _____ _____    ______ ____
ROOT
ATOM      1  C   UNL     1       0.360  10.405  19.840  0.00  0.00    +0.000 A 
ATOM      2  C   UNL     1       1.105   9.934  18.763  0.00  0.00    +0.000 A 
ATOM      3  C   UNL     1       1.800   8.727  18.887  0.00  0.00    +0.000 A 
ATOM      4  C   UNL     1       1.763   7.985  20.076  0.00  0.00    +0.000 A 
ATOM      5  C   UNL     1       0.992   8.462  21.144  0.00  0.00    +0.000 A 
ATOM      6  C   UNL     1       0.311   9.682  21.037  0.00  0.00    +0.000 A 
ENDROOT
BRANCH   4   7
ATOM      7  N   UNL     1       2.465   6.768  20.242  0.00  0.00    +0.000 N 
ATOM      8  C   UNL     1       2.629   5.813  19.261  0.00  0.00    +0.000 C 
ATOM      9  O   UNL     1       2.267   5.920  18.096  0.00  0.00    +0.000 OA
ATOM     10  N   UNL     1       3.244   4.668  19.717  0.00  0.00    +0.000 N 
ATOM     11  H   UNL     1       3.016   6.662  21.080  0.00  0.00    +0.000 HD
ATOM     12  H   UNL     1       3.843   4.735  20.525  0.00  0.00    +0.000 HD
BRANCH  10  13
ATOM     13  C   UNL     1       3.560   3.640  18.744  0.00  0.00    +0.000 C 
BRANCH  13  14
ATOM     14  C   UNL     1       4.854   3.879  18.028  0.00  0.00    +0.000 A 
ATOM     15  C   UNL     1       4.942   3.816  16.634  0.00  0.00    +0.000 A 
ATOM     16  C   UNL     1       6.131   4.162  15.999  0.00  0.00    +0.000 A 
ATOM     17  C   UNL     1       7.201   4.560  16.784  0.00  0.00    +0.000 A 
ATOM     18  N   UNL     1       7.158   4.627  18.130  0.00  0.00    +0.000 NA
ATOM     19  C   UNL     1       5.987   4.295  18.719  0.00  0.00    +0.000 A 
ENDBRANCH  13  14
ENDBRANCH  10  13
ENDBRANCH   4   7
BRANCH   1  20
ATOM     20  S   UNL     1      -0.490  11.964  19.725  0.00  0.00    +0.000 S 
ATOM     21  O   UNL     1       0.404  13.009  20.168  0.00  0.00    +0.000 OA
ATOM     22  O   UNL     1      -1.796  11.760  20.308  0.00  0.00    +0.000 OA
BRANCH  20  23
ATOM     23  N   UNL     1      -0.707  12.120  18.049  0.00  0.00    +0.000 NA
ATOM     24  H   UNL     1      -0.285  12.983  17.711  0.00  0.00    +0.000 HD
BRANCH  23  25
ATOM     25  C   UNL     1      -2.070  11.885  17.541  0.00  0.00    +0.000 C 
BRANCH  25  26
ATOM     26  C   UNL     1      -2.159  10.468  16.971  0.00  0.00    +0.000 C 
BRANCH  26  28
ATOM     27  C   UNL     1      -4.542  10.518  17.820  0.00  0.00    +0.000 C 
ATOM     28  C   UNL     1      -3.281   9.685  17.653  0.00  0.00    +0.000 C 
ENDBRANCH  26  28
ENDBRANCH  25  26
ENDBRANCH  23  25
ENDBRANCH  20  23
ENDBRANCH   1  20
TORSDOF 8
ENDMDL
