MODEL 1
REMARK VINA RESULT:      -8.3      0.000      0.000
REMARK  Name = 
REMARK  4 active torsions:
REMARK  status: ('A' for Active; 'I' for Inactive)
REMARK    1  A    between atoms: C_6  and  N_7
REMARK    2  A    between atoms: N_10  and  C_11
REMARK    3  A    between atoms: C_11  and  C_12
REMARK    4  A    between atoms: C_15  and  C_16
REMARK                            x       y       z     vdW  Elec       q    Type
REMARK                         _______ _______ _______ _____ _____    ______ ____
ROOT
ATOM      1  N   UNL     1       4.092   4.369  18.483  0.00  0.00    +0.000 N 
ATOM      2  C   UNL     1       4.267   4.807  17.092  0.00  0.00    +0.000 C 
ATOM      3  C   UNL     1       5.286   5.979  17.033  0.00  0.00    +0.000 C 
ATOM      4  N   UNL     1       6.572   5.763  17.749  0.00  0.00    +0.000 NA
ATOM      5  C   UNL     1       6.262   5.308  19.129  0.00  0.00    +0.000 C 
ATOM      6  C   UNL     1       5.339   4.071  19.205  0.00  0.00    +0.000 C 
ENDROOT
BRANCH   1  12
ATOM      7 CL   UNL     1       1.319   2.427  22.347  0.00  0.00    +0.000 Cl
ATOM      8  C   UNL     1       1.498   2.924  20.708  0.00  0.00    +0.000 A 
ATOM      9  C   UNL     1       0.437   2.770  19.824  0.00  0.00    +0.000 A 
ATOM     10  C   UNL     1       0.585   3.175  18.506  0.00  0.00    +0.000 A 
ATOM     11  C   UNL     1       1.798   3.726  18.085  0.00  0.00    +0.000 A 
ATOM     12  C   UNL     1       2.889   3.884  18.955  0.00  0.00    +0.000 A 
ATOM     13  C   UNL     1       2.711   3.471  20.281  0.00  0.00    +0.000 A 
ENDBRANCH   1  12
BRANCH   4  14
ATOM     14  C   UNL     1       7.410   4.795  17.009  0.00  0.00    +0.000 C 
BRANCH  14  15
ATOM     15  C   UNL     1       7.282   4.852  15.524  0.00  0.00    +0.000 A 
ATOM     16  N   UNL     1       7.894   5.654  14.675  0.00  0.00    +0.000 NA
ATOM     17  N   UNL     1       7.484   5.262  13.421  0.00  0.00    +0.000 NA
ATOM     18  C   UNL     1       6.645   4.259  13.589  0.00  0.00    +0.000 A 
ATOM     19  O   UNL     1       6.458   3.947  14.911  0.00  0.00    +0.000 OA
BRANCH  18  20
ATOM     20  C   UNL     1       5.945   3.459  12.594  0.00  0.00    +0.000 A 
ATOM     21  C   UNL     1       6.589   2.343  12.039  0.00  0.00    +0.000 A 
ATOM     22  C   UNL     1       5.964   1.566  11.063  0.00  0.00    +0.000 A 
ATOM     23  C   UNL     1       4.681   1.896  10.629  0.00  0.00    +0.000 A 
ATOM     24  C   UNL     1       4.021   2.991  11.182  0.00  0.00    +0.000 A 
ATOM     25  C   UNL     1       4.646   3.768  12.163  0.00  0.00    +0.000 A 
ENDBRANCH  18  20
ENDBRANCH  14  15
ENDBRANCH   4  14
TORSDOF 4
ENDMDL
MODEL 2
REMARK VINA RESULT:      -8.3      4.415      7.164
REMARK  Name = 
REMARK  4 active torsions:
REMARK  status: ('A' for Active; 'I' for Inactive)
REMARK    1  A    between atoms: C_6  and  N_7
REMARK    2  A    between atoms: N_10  and  C_11
REMARK    3  A    between atoms: C_11  and  C_12
REMARK    4  A    between atoms: C_15  and  C_16
REMARK                            x       y       z     vdW  Elec       q    Type
REMARK                         _______ _______ _______ _____ _____    ______ ____
ROOT
ATOM      1  N   UNL     1       4.441   4.681  18.444  0.00  0.00    +0.000 N 
ATOM      2  C   UNL     1       5.725   3.995  18.640  0.00  0.00    +0.000 C 
ATOM      3  C   UNL     1       6.703   4.369  17.492  0.00  0.00    +0.000 C 
ATOM      4  N   UNL     1       6.848   5.821  17.206  0.00  0.00    +0.000 NA
ATOM      5  C   UNL     1       5.489   6.400  17.047  0.00  0.00    +0.000 C 
ATOM      6  C   UNL     1       4.536   6.134  18.233  0.00  0.00    +0.000 C 
ENDROOT
BRANCH   1  12
ATOM      7 CL   UNL     1       1.535   2.501  22.077  0.00  0.00    +0.000 Cl
ATOM      8  C   UNL     1       1.794   3.040  20.461  0.00  0.00    +0.000 A 
ATOM      9  C   UNL     1       0.807   2.842  19.505  0.00  0.00    +0.000 A 
ATOM     10  C   UNL     1       1.019   3.281  18.206  0.00  0.00    +0.000 A 
ATOM     11  C   UNL     1       2.222   3.911  17.878  0.00  0.00    +0.000 A 
ATOM     12  C   UNL     1       3.240   4.115  18.824  0.00  0.00    +0.000 A 
ATOM     13  C   UNL     1       2.998   3.667  20.128  0.00  0.00    +0.000 A 
ENDBRANCH   1  12
BRANCH   4  14
ATOM     14  C   UNL     1       7.621   6.478  18.283  0.00  0.00    +0.000 C 
BRANCH  14  15
ATOM     15  C   UNL     1       7.934   7.917  18.051  0.00  0.00    +0.000 A 
ATOM     16  N   UNL     1       7.449   8.727  17.132  0.00  0.00    +0.000 NA
ATOM     17  N   UNL     1       8.004   9.962  17.382  0.00  0.00    +0.000 NA
ATOM     18  C   UNL     1       8.795   9.819  18.427  0.00  0.00    +0.000 A 
ATOM     19  O   UNL     1       8.810   8.534  18.903  0.00  0.00    +0.000 OA
BRANCH  18  20
ATOM     20  C   UNL     1       9.598  10.814  19.125  0.00  0.00    +0.000 A 
ATOM     21  C   UNL     1      10.618  11.479  18.428  0.00  0.00    +0.000 A 
ATOM     22  C   UNL     1      11.427  12.420  19.067  0.00  0.00    +0.000 A 
ATOM     23  C   UNL     1      11.225  12.709  20.415  0.00  0.00    +0.000 A 
ATOM     24  C   UNL     1      10.205  12.070  21.117  0.00  0.00    +0.000 A 
ATOM     25  C   UNL     1       9.391  11.131  20.476  0.00  0.00    +0.000 A 
ENDBRANCH  18  20
ENDBRANCH  14  15
ENDBRANCH   4  14
TORSDOF 4
ENDMDL
MODEL 3
REMARK VINA RESULT:      -8.3      5.005      9.096
REMARK  Name = 
REMARK  4 active torsions:
REMARK  status: ('A' for Active; 'I' for Inactive)
REMARK    1  A    between atoms: C_6  and  N_7
REMARK    2  A    between atoms: N_10  and  C_11
REMARK    3  A    between atoms: C_11  and  C_12
REMARK    4  A    between atoms: C_15  and  C_16
REMARK                            x       y       z     vdW  Elec       q    Type
REMARK                         _______ _______ _______ _____ _____    ______ ____
ROOT
ATOM      1  N   UNL     1       5.417   5.039  15.739  0.00  0.00    +0.000 N 
ATOM      2  C   UNL     1       4.917   4.014  16.665  0.00  0.00    +0.000 C 
ATOM      3  C   UNL     1       5.113   4.490  18.132  0.00  0.00    +0.000 C 
ATOM      4  N   UNL     1       4.620   5.858  18.445  0.00  0.00    +0.000 NA
ATOM      5  C   UNL     1       5.177   6.793  17.433  0.00  0.00    +0.000 C 
ATOM      6  C   UNL     1       4.894   6.395  15.967  0.00  0.00    +0.000 C 
ENDROOT
BRANCH   1  12
ATOM      7 CL   UNL     1       5.381   2.216  11.446  0.00  0.00    +0.000 Cl
ATOM      8  C   UNL     1       6.085   3.405  12.475  0.00  0.00    +0.000 A 
ATOM      9  C   UNL     1       7.286   4.002  12.113  0.00  0.00    +0.000 A 
ATOM     10  C   UNL     1       7.846   4.962  12.943  0.00  0.00    +0.000 A 
ATOM     11  C   UNL     1       7.199   5.310  14.131  0.00  0.00    +0.000 A 
ATOM     12  C   UNL     1       5.989   4.716  14.525  0.00  0.00    +0.000 A 
ATOM     13  C   UNL     1       5.443   3.754  13.666  0.00  0.00    +0.000 A 
ENDBRANCH   1  12
BRANCH   4  14
ATOM     14  C   UNL     1       3.141   5.872  18.476  0.00  0.00    +0.000 C 
BRANCH  14  15
ATOM     15  C   UNL     1       2.526   7.213  18.693  0.00  0.00    +0.000 A 
ATOM     16  N   UNL     1       2.409   8.213  17.843  0.00  0.00    +0.000 NA
ATOM     17  N   UNL     1       1.711   9.197  18.507  0.00  0.00    +0.000 NA
ATOM     18  C   UNL     1       1.459   8.736  19.716  0.00  0.00    +0.000 A 
ATOM     19  O   UNL     1       1.960   7.475  19.912  0.00  0.00    +0.000 OA
BRANCH  18  20
ATOM     20  C   UNL     1       0.726   9.357  20.811  0.00  0.00    +0.000 A 
ATOM     21  C   UNL     1      -0.070  10.481  20.548  0.00  0.00    +0.000 A 
ATOM     22  C   UNL     1      -0.768  11.121  21.573  0.00  0.00    +0.000 A 
ATOM     23  C   UNL     1      -0.677  10.642  22.879  0.00  0.00    +0.000 A 
ATOM     24  C   UNL     1       0.096   9.516  23.154  0.00  0.00    +0.000 A 
ATOM     25  C   UNL     1       0.791   8.872  22.126  0.00  0.00    +0.000 A 
ENDBRANCH  18  20
ENDBRANCH  14  15
ENDBRANCH   4  14
TORSDOF 4
ENDMDL
MODEL 4
REMARK VINA RESULT:      -8.1      3.742      4.571
REMARK  Name = 
REMARK  4 active torsions:
REMARK  status: ('A' for Active; 'I' for Inactive)
REMARK    1  A    between atoms: C_6  and  N_7
REMARK    2  A    between atoms: N_10  and  C_11
REMARK    3  A    between atoms: C_11  and  C_12
REMARK    4  A    between atoms: C_15  and  C_16
REMARK                            x       y       z     vdW  Elec       q    Type
REMARK                         _______ _______ _______ _____ _____    ______ ____
ROOT
ATOM      1  N   UNL     1       2.097   7.163  19.707  0.00  0.00    +0.000 N 
ATOM      2  C   UNL     1       2.217   5.964  20.547  0.00  0.00    +0.000 C 
ATOM      3  C   UNL     1       2.189   4.691  19.655  0.00  0.00    +0.000 C 
ATOM      4  N   UNL     1       3.115   4.690  18.490  0.00  0.00    +0.000 NA
ATOM      5  C   UNL     1       2.911   5.954  17.736  0.00  0.00    +0.000 C 
ATOM      6  C   UNL     1       3.047   7.237  18.586  0.00  0.00    +0.000 C 
ENDROOT
BRANCH   1  12
ATOM      7 CL   UNL     1      -0.327   9.715  23.449  0.00  0.00    +0.000 Cl
ATOM      8  C   UNL     1       0.259   9.585  21.835  0.00  0.00    +0.000 A 
ATOM      9  C   UNL     1       0.021  10.613  20.932  0.00  0.00    +0.000 A 
ATOM     10  C   UNL     1       0.499  10.504  19.635  0.00  0.00    +0.000 A 
ATOM     11  C   UNL     1       1.206   9.362  19.252  0.00  0.00    +0.000 A 
ATOM     12  C   UNL     1       1.453   8.304  20.142  0.00  0.00    +0.000 A 
ATOM     13  C   UNL     1       0.964   8.442  21.447  0.00  0.00    +0.000 A 
ENDBRANCH   1  12
BRANCH   4  14
ATOM     14  C   UNL     1       4.511   4.524  18.949  0.00  0.00    +0.000 C 
BRANCH  14  15
ATOM     15  C   UNL     1       5.554   4.878  17.944  0.00  0.00    +0.000 A 
ATOM     16  N   UNL     1       6.710   5.483  18.135  0.00  0.00    +0.000 NA
ATOM     17  N   UNL     1       7.329   5.515  16.906  0.00  0.00    +0.000 NA
ATOM     18  C   UNL     1       6.509   4.939  16.050  0.00  0.00    +0.000 A 
ATOM     19  O   UNL     1       5.346   4.516  16.641  0.00  0.00    +0.000 OA
BRANCH  18  20
ATOM     20  C   UNL     1       6.684   4.682  14.627  0.00  0.00    +0.000 A 
ATOM     21  C   UNL     1       5.855   3.743  13.996  0.00  0.00    +0.000 A 
ATOM     22  C   UNL     1       6.007   3.449  12.640  0.00  0.00    +0.000 A 
ATOM     23  C   UNL     1       6.994   4.094  11.897  0.00  0.00    +0.000 A 
ATOM     24  C   UNL     1       7.815   5.041  12.504  0.00  0.00    +0.000 A 
ATOM     25  C   UNL     1       7.659   5.339  13.862  0.00  0.00    +0.000 A 
ENDBRANCH  18  20
ENDBRANCH  14  15
ENDBRANCH   4  14
TORSDOF 4
ENDMDL
MODEL 5
REMARK VINA RESULT:      -8.1      4.034      6.426
REMARK  Name = 
REMARK  4 active torsions:
REMARK  status: ('A' for Active; 'I' for Inactive)
REMARK    1  A    between atoms: C_6  and  N_7
REMARK    2  A    between atoms: N_10  and  C_11
REMARK    3  A    between atoms: C_11  and  C_12
REMARK    4  A    between atoms: C_15  and  C_16
REMARK                            x       y       z     vdW  Elec       q    Type
REMARK                         _______ _______ _______ _____ _____    ______ ____
ROOT
ATOM      1  N   UNL     1       3.996   4.856  17.733  0.00  0.00    +0.000 N 
ATOM      2  C   UNL     1       4.796   4.199  16.691  0.00  0.00    +0.000 C 
ATOM      3  C   UNL     1       5.225   5.241  15.621  0.00  0.00    +0.000 C 
ATOM      4  N   UNL     1       5.845   6.490  16.140  0.00  0.00    +0.000 NA
ATOM      5  C   UNL     1       4.956   7.045  17.193  0.00  0.00    +0.000 C 
ATOM      6  C   UNL     1       4.609   6.055  18.327  0.00  0.00    +0.000 C 
ENDROOT
BRANCH   1  12
ATOM      7 CL   UNL     1       2.221   2.566  21.975  0.00  0.00    +0.000 Cl
ATOM      8  C   UNL     1       2.047   3.070  20.338  0.00  0.00    +0.000 A 
ATOM      9  C   UNL     1       0.885   2.760  19.643  0.00  0.00    +0.000 A 
ATOM     10  C   UNL     1       0.750   3.172  18.325  0.00  0.00    +0.000 A 
ATOM     11  C   UNL     1       1.783   3.888  17.715  0.00  0.00    +0.000 A 
ATOM     12  C   UNL     1       2.971   4.207  18.392  0.00  0.00    +0.000 A 
ATOM     13  C   UNL     1       3.080   3.783  19.723  0.00  0.00    +0.000 A 
ENDBRANCH   1  12
BRANCH   4  14
ATOM     14  C   UNL     1       7.210   6.213  16.639  0.00  0.00    +0.000 C 
BRANCH  14  15
ATOM     15  C   UNL     1       7.780   7.257  17.537  0.00  0.00    +0.000 A 
ATOM     16  N   UNL     1       8.223   7.129  18.772  0.00  0.00    +0.000 NA
ATOM     17  N   UNL     1       8.703   8.368  19.133  0.00  0.00    +0.000 NA
ATOM     18  C   UNL     1       8.512   9.167  18.103  0.00  0.00    +0.000 A 
ATOM     19  O   UNL     1       7.914   8.529  17.047  0.00  0.00    +0.000 OA
BRANCH  18  20
ATOM     20  C   UNL     1       8.862  10.572  17.941  0.00  0.00    +0.000 A 
ATOM     21  C   UNL     1      10.205  10.957  18.060  0.00  0.00    +0.000 A 
ATOM     22  C   UNL     1      10.580  12.296  17.938  0.00  0.00    +0.000 A 
ATOM     23  C   UNL     1       9.612  13.269  17.694  0.00  0.00    +0.000 A 
ATOM     24  C   UNL     1       8.276  12.900  17.557  0.00  0.00    +0.000 A 
ATOM     25  C   UNL     1       7.901  11.558  17.674  0.00  0.00    +0.000 A 
ENDBRANCH  18  20
ENDBRANCH  14  15
ENDBRANCH   4  14
TORSDOF 4
ENDMDL
MODEL 6
REMARK VINA RESULT:      -8.1      1.090      1.631
REMARK  Name = 
REMARK  4 active torsions:
REMARK  status: ('A' for Active; 'I' for Inactive)
REMARK    1  A    between atoms: C_6  and  N_7
REMARK    2  A    between atoms: N_10  and  C_11
REMARK    3  A    between atoms: C_11  and  C_12
REMARK    4  A    between atoms: C_15  and  C_16
REMARK                            x       y       z     vdW  Elec       q    Type
REMARK                         _______ _______ _______ _____ _____    ______ ____
ROOT
ATOM      1  N   UNL     1       4.506   4.924  18.528  0.00  0.00    +0.000 N 
ATOM      2  C   UNL     1       4.591   5.270  17.103  0.00  0.00    +0.000 C 
ATOM      3  C   UNL     1       5.736   6.298  16.879  0.00  0.00    +0.000 C 
ATOM      4  N   UNL     1       7.051   5.951  17.481  0.00  0.00    +0.000 NA
ATOM      5  C   UNL     1       6.830   5.604  18.908  0.00  0.00    +0.000 C 
ATOM      6  C   UNL     1       5.774   4.502  19.145  0.00  0.00    +0.000 C 
ENDROOT
BRANCH   1  12
ATOM      7 CL   UNL     1       0.288   2.002  18.781  0.00  0.00    +0.000 Cl
ATOM      8  C   UNL     1       1.256   3.319  19.324  0.00  0.00    +0.000 A 
ATOM      9  C   UNL     1       0.795   4.135  20.349  0.00  0.00    +0.000 A 
ATOM     10  C   UNL     1       1.581   5.191  20.785  0.00  0.00    +0.000 A 
ATOM     11  C   UNL     1       2.820   5.423  20.185  0.00  0.00    +0.000 A 
ATOM     12  C   UNL     1       3.307   4.620  19.141  0.00  0.00    +0.000 A 
ATOM     13  C   UNL     1       2.496   3.558  18.723  0.00  0.00    +0.000 A 
ENDBRANCH   1  12
BRANCH   4  14
ATOM     14  C   UNL     1       7.684   4.850  16.722  0.00  0.00    +0.000 C 
BRANCH  14  15
ATOM     15  C   UNL     1       7.459   4.885  15.249  0.00  0.00    +0.000 A 
ATOM     16  N   UNL     1       7.991   5.692  14.353  0.00  0.00    +0.000 NA
ATOM     17  N   UNL     1       7.511   5.274  13.132  0.00  0.00    +0.000 NA
ATOM     18  C   UNL     1       6.714   4.250  13.366  0.00  0.00    +0.000 A 
ATOM     19  O   UNL     1       6.622   3.950  14.700  0.00  0.00    +0.000 OA
BRANCH  18  20
ATOM     20  C   UNL     1       5.974   3.418  12.427  0.00  0.00    +0.000 A 
ATOM     21  C   UNL     1       4.687   3.814  12.033  0.00  0.00    +0.000 A 
ATOM     22  C   UNL     1       3.934   3.032  11.155  0.00  0.00    +0.000 A 
ATOM     23  C   UNL     1       4.461   1.841  10.660  0.00  0.00    +0.000 A 
ATOM     24  C   UNL     1       5.744   1.442  11.028  0.00  0.00    +0.000 A 
ATOM     25  C   UNL     1       6.501   2.228  11.904  0.00  0.00    +0.000 A 
ENDBRANCH  18  20
ENDBRANCH  14  15
ENDBRANCH   4  14
TORSDOF 4
ENDMDL
MODEL 7
REMARK VINA RESULT:      -8.0      5.064      7.360
REMARK  Name = 
REMARK  4 active torsions:
REMARK  status: ('A' for Active; 'I' for Inactive)
REMARK    1  A    between atoms: C_6  and  N_7
REMARK    2  A    between atoms: N_10  and  C_11
REMARK    3  A    between atoms: C_11  and  C_12
REMARK    4  A    between atoms: C_15  and  C_16
REMARK                            x       y       z     vdW  Elec       q    Type
REMARK                         _______ _______ _______ _____ _____    ______ ____
ROOT
ATOM      1  N   UNL     1       5.140   4.909  18.052  0.00  0.00    +0.000 N 
ATOM      2  C   UNL     1       5.875   5.655  19.082  0.00  0.00    +0.000 C 
ATOM      3  C   UNL     1       7.334   5.906  18.609  0.00  0.00    +0.000 C 
ATOM      4  N   UNL     1       7.489   6.477  17.244  0.00  0.00    +0.000 NA
ATOM      5  C   UNL     1       6.690   5.650  16.304  0.00  0.00    +0.000 C 
ATOM      6  C   UNL     1       5.205   5.483  16.699  0.00  0.00    +0.000 C 
ENDROOT
BRANCH   1  12
ATOM      7 CL   UNL     1       1.203   3.527  21.049  0.00  0.00    +0.000 Cl
ATOM      8  C   UNL     1       2.297   3.235  19.751  0.00  0.00    +0.000 A 
ATOM      9  C   UNL     1       2.231   2.036  19.053  0.00  0.00    +0.000 A 
ATOM     10  C   UNL     1       3.113   1.809  18.007  0.00  0.00    +0.000 A 
ATOM     11  C   UNL     1       4.056   2.783  17.673  0.00  0.00    +0.000 A 
ATOM     12  C   UNL     1       4.150   4.000  18.369  0.00  0.00    +0.000 A 
ATOM     13  C   UNL     1       3.245   4.206  19.417  0.00  0.00    +0.000 A 
ENDBRANCH   1  12
BRANCH   4  14
ATOM     14  C   UNL     1       7.080   7.898  17.237  0.00  0.00    +0.000 C 
BRANCH  14  15
ATOM     15  C   UNL     1       8.015   8.829  17.932  0.00  0.00    +0.000 A 
ATOM     16  N   UNL     1       8.798   8.591  18.965  0.00  0.00    +0.000 NA
ATOM     17  N   UNL     1       9.505   9.753  19.182  0.00  0.00    +0.000 NA
ATOM     18  C   UNL     1       9.100  10.620  18.276  0.00  0.00    +0.000 A 
ATOM     19  O   UNL     1       8.138  10.104  17.447  0.00  0.00    +0.000 OA
BRANCH  18  20
ATOM     20  C   UNL     1       9.543  11.987  18.037  0.00  0.00    +0.000 A 
ATOM     21  C   UNL     1      10.842  12.209  17.558  0.00  0.00    +0.000 A 
ATOM     22  C   UNL     1      11.315  13.504  17.342  0.00  0.00    +0.000 A 
ATOM     23  C   UNL     1      10.491  14.597  17.603  0.00  0.00    +0.000 A 
ATOM     24  C   UNL     1       9.192  14.393  18.063  0.00  0.00    +0.000 A 
ATOM     25  C   UNL     1       8.716  13.095  18.276  0.00  0.00    +0.000 A 
ENDBRANCH  18  20
ENDBRANCH  14  15
ENDBRANCH   4  14
TORSDOF 4
ENDMDL
MODEL 8
REMARK VINA RESULT:      -8.0      3.409      4.333
REMARK  Name = 
REMARK  4 active torsions:
REMARK  status: ('A' for Active; 'I' for Inactive)
REMARK    1  A    between atoms: C_6  and  N_7
REMARK    2  A    between atoms: N_10  and  C_11
REMARK    3  A    between atoms: C_11  and  C_12
REMARK    4  A    between atoms: C_15  and  C_16
REMARK                            x       y       z     vdW  Elec       q    Type
REMARK                         _______ _______ _______ _____ _____    ______ ____
ROOT
ATOM      1  N   UNL     1       2.338   6.577  19.638  0.00  0.00    +0.000 N 
ATOM      2  C   UNL     1       2.640   5.525  20.618  0.00  0.00    +0.000 C 
ATOM      3  C   UNL     1       2.468   4.128  19.959  0.00  0.00    +0.000 C 
ATOM      4  N   UNL     1       3.155   3.932  18.655  0.00  0.00    +0.000 NA
ATOM      5  C   UNL     1       2.787   5.063  17.764  0.00  0.00    +0.000 C 
ATOM      6  C   UNL     1       3.056   6.463  18.359  0.00  0.00    +0.000 C 
ENDROOT
BRANCH   1  12
ATOM      7 CL   UNL     1       0.043   9.478  23.204  0.00  0.00    +0.000 Cl
ATOM      8  C   UNL     1       0.640   9.224  21.608  0.00  0.00    +0.000 A 
ATOM      9  C   UNL     1       0.482  10.217  20.649  0.00  0.00    +0.000 A 
ATOM     10  C   UNL     1       0.968  10.008  19.367  0.00  0.00    +0.000 A 
ATOM     11  C   UNL     1       1.602   8.803  19.056  0.00  0.00    +0.000 A 
ATOM     12  C   UNL     1       1.766   7.779  20.004  0.00  0.00    +0.000 A 
ATOM     13  C   UNL     1       1.271   8.018  21.292  0.00  0.00    +0.000 A 
ENDBRANCH   1  12
BRANCH   4  14
ATOM     14  C   UNL     1       4.616   3.826  18.859  0.00  0.00    +0.000 C 
BRANCH  14  15
ATOM     15  C   UNL     1       5.451   4.511  17.831  0.00  0.00    +0.000 A 
ATOM     16  N   UNL     1       6.273   5.530  17.983  0.00  0.00    +0.000 NA
ATOM     17  N   UNL     1       6.848   5.741  16.750  0.00  0.00    +0.000 NA
ATOM     18  C   UNL     1       6.334   4.847  15.931  0.00  0.00    +0.000 A 
ATOM     19  O   UNL     1       5.422   4.031  16.549  0.00  0.00    +0.000 OA
BRANCH  18  20
ATOM     20  C   UNL     1       6.617   4.608  14.522  0.00  0.00    +0.000 A 
ATOM     21  C   UNL     1       7.611   5.367  13.888  0.00  0.00    +0.000 A 
ATOM     22  C   UNL     1       7.895   5.189  12.533  0.00  0.00    +0.000 A 
ATOM     23  C   UNL     1       7.185   4.245  11.794  0.00  0.00    +0.000 A 
ATOM     24  C   UNL     1       6.205   3.471  12.412  0.00  0.00    +0.000 A 
ATOM     25  C   UNL     1       5.924   3.647  13.771  0.00  0.00    +0.000 A 
ENDBRANCH  18  20
ENDBRANCH  14  15
ENDBRANCH   4  14
TORSDOF 4
ENDMDL
MODEL 9
REMARK VINA RESULT:      -8.0      4.162      8.407
REMARK  Name = 
REMARK  4 active torsions:
REMARK  status: ('A' for Active; 'I' for Inactive)
REMARK    1  A    between atoms: C_6  and  N_7
REMARK    2  A    between atoms: N_10  and  C_11
REMARK    3  A    between atoms: C_11  and  C_12
REMARK    4  A    between atoms: C_15  and  C_16
REMARK                            x       y       z     vdW  Elec       q    Type
REMARK                         _______ _______ _______ _____ _____    ______ ____
ROOT
ATOM      1  N   UNL     1       6.352   4.986  15.718  0.00  0.00    +0.000 N 
ATOM      2  C   UNL     1       7.162   4.399  16.794  0.00  0.00    +0.000 C 
ATOM      3  C   UNL     1       7.255   5.394  17.984  0.00  0.00    +0.000 C 
ATOM      4  N   UNL     1       5.965   5.963  18.461  0.00  0.00    +0.000 NA
ATOM      5  C   UNL     1       5.236   6.504  17.285  0.00  0.00    +0.000 C 
ATOM      6  C   UNL     1       5.035   5.494  16.134  0.00  0.00    +0.000 C 
ENDROOT
BRANCH   1  12
ATOM      7 CL   UNL     1       5.430   2.182  11.513  0.00  0.00    +0.000 Cl
ATOM      8  C   UNL     1       6.265   3.436  12.347  0.00  0.00    +0.000 A 
ATOM      9  C   UNL     1       7.257   4.155  11.692  0.00  0.00    +0.000 A 
ATOM     10  C   UNL     1       7.923   5.167  12.368  0.00  0.00    +0.000 A 
ATOM     11  C   UNL     1       7.593   5.444  13.696  0.00  0.00    +0.000 A 
ATOM     12  C   UNL     1       6.601   4.726  14.385  0.00  0.00    +0.000 A 
ATOM     13  C   UNL     1       5.940   3.714  13.678  0.00  0.00    +0.000 A 
ENDBRANCH   1  12
BRANCH   4  14
ATOM     14  C   UNL     1       5.189   4.932  19.183  0.00  0.00    +0.000 C 
BRANCH  14  15
ATOM     15  C   UNL     1       3.834   5.360  19.633  0.00  0.00    +0.000 A 
ATOM     16  N   UNL     1       2.876   4.630  20.171  0.00  0.00    +0.000 NA
ATOM     17  N   UNL     1       1.853   5.503  20.466  0.00  0.00    +0.000 NA
ATOM     18  C   UNL     1       2.250   6.700  20.081  0.00  0.00    +0.000 A 
ATOM     19  O   UNL     1       3.504   6.684  19.527  0.00  0.00    +0.000 OA
BRANCH  18  20
ATOM     20  C   UNL     1       1.568   7.982  20.188  0.00  0.00    +0.000 A 
ATOM     21  C   UNL     1       0.995   8.350  21.414  0.00  0.00    +0.000 A 
ATOM     22  C   UNL     1       0.310   9.558  21.551  0.00  0.00    +0.000 A 
ATOM     23  C   UNL     1       0.189  10.416  20.459  0.00  0.00    +0.000 A 
ATOM     24  C   UNL     1       0.767  10.073  19.239  0.00  0.00    +0.000 A 
ATOM     25  C   UNL     1       1.457   8.865  19.103  0.00  0.00    +0.000 A 
ENDBRANCH  18  20
ENDBRANCH  14  15
ENDBRANCH   4  14
TORSDOF 4
ENDMDL
