MODEL 1
REMARK VINA RESULT:      -8.8      0.000      0.000
REMARK  Name = 
REMARK  2 active torsions:
REMARK  status: ('A' for Active; 'I' for Inactive)
REMARK    1  A    between atoms: C_1  and  C_2
REMARK    2  A    between atoms: C_20  and  C_21
REMARK                            x       y       z     vdW  Elec       q    Type
REMARK                         _______ _______ _______ _____ _____    ______ ____
ROOT
ATOM      1  C   UNL     1       2.430  17.336  18.031  0.00  0.00    +0.000 C 
ATOM      2  C   UNL     1       2.847  15.902  17.833  0.00  0.00    +0.000 C 
ATOM      3  O   UNL     1       3.962  15.647  17.378  0.00  0.00    +0.000 OA
ATOM      4  N   UNL     1       1.951  14.921  18.224  0.00  0.00    +0.000 N 
ATOM      5  C   UNL     1       2.378  13.517  18.217  0.00  0.00    +0.000 C 
ATOM      6  C   UNL     1       2.234  12.922  19.623  0.00  0.00    +0.000 C 
ATOM      7  C   UNL     1       0.776  13.026  20.075  0.00  0.00    +0.000 C 
ATOM      8  C   UNL     1      -0.028  11.975  20.408  0.00  0.00    +0.000 C 
ATOM      9  C   UNL     1      -1.427  12.242  20.837  0.00  0.00    +0.000 A 
ATOM     10  C   UNL     1      -2.391  12.680  19.918  0.00  0.00    +0.000 A 
ATOM     11  C   UNL     1      -3.709  12.895  20.325  0.00  0.00    +0.000 A 
ATOM     12  C   UNL     1      -4.075  12.645  21.646  0.00  0.00    +0.000 A 
ATOM     13 CL   UNL     1      -5.705  12.881  22.142  0.00  0.00    +0.000 Cl
ATOM     14  C   UNL     1      -3.133  12.186  22.565  0.00  0.00    +0.000 A 
ATOM     15  C   UNL     1      -1.805  11.984  22.167  0.00  0.00    +0.000 A 
ATOM     16  C   UNL     1      -0.799  11.408  23.130  0.00  0.00    +0.000 C 
ATOM     17  C   UNL     1      -0.481   9.961  22.763  0.00  0.00    +0.000 C 
ATOM     18  C   UNL     1       0.264   9.686  21.476  0.00  0.00    +0.000 A 
ATOM     19  C   UNL     1       0.765   8.380  21.339  0.00  0.00    +0.000 A 
ATOM     20  C   UNL     1       1.464   7.958  20.203  0.00  0.00    +0.000 A 
ATOM     21  C   UNL     1       1.604   8.916  19.209  0.00  0.00    +0.000 A 
ATOM     22  N   UNL     1       1.118  10.182  19.276  0.00  0.00    +0.000 NA
ATOM     23  C   UNL     1       0.476  10.567  20.411  0.00  0.00    +0.000 A 
ATOM     24  C   UNL     1       0.363  14.498  20.088  0.00  0.00    +0.000 C 
ATOM     25  C   UNL     1       0.585  15.144  18.711  0.00  0.00    +0.000 C 
ENDROOT
BRANCH  20  26
ATOM     26  C   UNL     1       2.026   6.597  20.121  0.00  0.00    +0.000 A 
ATOM     27  C   UNL     1       3.072   6.302  19.223  0.00  0.00    +0.000 A 
ATOM     28  C   UNL     1       3.539   5.001  19.050  0.00  0.00    +0.000 A 
ATOM     29  C   UNL     1       2.987   3.961  19.787  0.00  0.00    +0.000 A 
ATOM     30  C   UNL     1       1.982   4.227  20.712  0.00  0.00    +0.000 A 
ATOM     31  C   UNL     1       1.504   5.533  20.874  0.00  0.00    +0.000 A 
ENDBRANCH  20  26
TORSDOF 1
ENDMDL
MODEL 2
REMARK VINA RESULT:      -8.5      0.909      1.283
REMARK  Name = 
REMARK  2 active torsions:
REMARK  status: ('A' for Active; 'I' for Inactive)
REMARK    1  A    between atoms: C_1  and  C_2
REMARK    2  A    between atoms: C_20  and  C_21
REMARK                            x       y       z     vdW  Elec       q    Type
REMARK                         _______ _______ _______ _____ _____    ______ ____
ROOT
ATOM      1  C   UNL     1       1.374  18.194  18.754  0.00  0.00    +0.000 C 
ATOM      2  C   UNL     1       1.893  16.816  18.433  0.00  0.00    +0.000 C 
ATOM      3  O   UNL     1       3.014  16.685  17.942  0.00  0.00    +0.000 OA
ATOM      4  N   UNL     1       1.082  15.742  18.758  0.00  0.00    +0.000 N 
ATOM      5  C   UNL     1       1.612  14.380  18.630  0.00  0.00    +0.000 C 
ATOM      6  C   UNL     1       1.543  13.665  19.985  0.00  0.00    +0.000 C 
ATOM      7  C   UNL     1       0.091  13.621  20.466  0.00  0.00    +0.000 C 
ATOM      8  C   UNL     1      -0.624  12.489  20.725  0.00  0.00    +0.000 C 
ATOM      9  C   UNL     1      -2.029  12.612  21.196  0.00  0.00    +0.000 A 
ATOM     10  C   UNL     1      -3.043  13.048  20.331  0.00  0.00    +0.000 A 
ATOM     11  C   UNL     1      -4.364  13.128  20.774  0.00  0.00    +0.000 A 
ATOM     12  C   UNL     1      -4.682  12.746  22.076  0.00  0.00    +0.000 A 
ATOM     13 CL   UNL     1      -6.313  12.816  22.615  0.00  0.00    +0.000 Cl
ATOM     14  C   UNL     1      -3.689  12.289  22.940  0.00  0.00    +0.000 A 
ATOM     15  C   UNL     1      -2.358  12.221  22.507  0.00  0.00    +0.000 A 
ATOM     16  C   UNL     1      -1.291  11.648  23.403  0.00  0.00    +0.000 C 
ATOM     17  C   UNL     1      -0.874  10.264  22.916  0.00  0.00    +0.000 C 
ATOM     18  C   UNL     1      -0.139  10.150  21.599  0.00  0.00    +0.000 A 
ATOM     19  C   UNL     1       0.456   8.901  21.349  0.00  0.00    +0.000 A 
ATOM     20  C   UNL     1       1.160   8.626  20.171  0.00  0.00    +0.000 A 
ATOM     21  C   UNL     1       1.207   9.668  19.257  0.00  0.00    +0.000 A 
ATOM     22  N   UNL     1       0.628  10.884  19.433  0.00  0.00    +0.000 NA
ATOM     23  C   UNL     1      -0.016  11.127  20.606  0.00  0.00    +0.000 A 
ATOM     24  C   UNL     1      -0.430  15.051  20.606  0.00  0.00    +0.000 C 
ATOM     25  C   UNL     1      -0.286  15.820  19.283  0.00  0.00    +0.000 C 
ENDROOT
BRANCH  20  26
ATOM     26  C   UNL     1       1.821   7.323  19.970  0.00  0.00    +0.000 A 
ATOM     27  C   UNL     1       1.530   6.230  20.811  0.00  0.00    +0.000 A 
ATOM     28  C   UNL     1       2.224   5.026  20.709  0.00  0.00    +0.000 A 
ATOM     29  C   UNL     1       3.215   4.876  19.748  0.00  0.00    +0.000 A 
ATOM     30  C   UNL     1       3.497   5.923  18.875  0.00  0.00    +0.000 A 
ATOM     31  C   UNL     1       2.807   7.136  18.989  0.00  0.00    +0.000 A 
ENDBRANCH  20  26
TORSDOF 1
ENDMDL
MODEL 3
REMARK VINA RESULT:      -7.9      3.449      5.448
REMARK  Name = 
REMARK  2 active torsions:
REMARK  status: ('A' for Active; 'I' for Inactive)
REMARK    1  A    between atoms: C_1  and  C_2
REMARK    2  A    between atoms: C_20  and  C_21
REMARK                            x       y       z     vdW  Elec       q    Type
REMARK                         _______ _______ _______ _____ _____    ______ ____
ROOT
ATOM      1  C   UNL     1      -3.741  14.526  24.170  0.00  0.00    +0.000 C 
ATOM      2  C   UNL     1      -3.318  13.089  24.010  0.00  0.00    +0.000 C 
ATOM      3  O   UNL     1      -4.077  12.186  24.362  0.00  0.00    +0.000 OA
ATOM      4  N   UNL     1      -2.089  12.852  23.419  0.00  0.00    +0.000 N 
ATOM      5  C   UNL     1      -1.710  11.475  23.080  0.00  0.00    +0.000 C 
ATOM      6  C   UNL     1      -1.426  11.367  21.578  0.00  0.00    +0.000 C 
ATOM      7  C   UNL     1      -0.298  12.330  21.200  0.00  0.00    +0.000 C 
ATOM      8  C   UNL     1       0.896  11.973  20.647  0.00  0.00    +0.000 C 
ATOM      9  C   UNL     1       1.891  13.033  20.329  0.00  0.00    +0.000 A 
ATOM     10  C   UNL     1       2.573  13.710  21.351  0.00  0.00    +0.000 A 
ATOM     11  C   UNL     1       3.529  14.679  21.040  0.00  0.00    +0.000 A 
ATOM     12  C   UNL     1       3.828  14.954  19.707  0.00  0.00    +0.000 A 
ATOM     13 CL   UNL     1       5.027  16.125  19.323  0.00  0.00    +0.000 Cl
ATOM     14  C   UNL     1       3.176  14.272  18.682  0.00  0.00    +0.000 A 
ATOM     15  C   UNL     1       2.204  13.310  18.986  0.00  0.00    +0.000 A 
ATOM     16  C   UNL     1       1.554  12.507  17.889  0.00  0.00    +0.000 C 
ATOM     17  C   UNL     1       2.086  11.076  17.892  0.00  0.00    +0.000 C 
ATOM     18  C   UNL     1       1.739  10.176  19.057  0.00  0.00    +0.000 A 
ATOM     19  C   UNL     1       2.016   8.812  18.866  0.00  0.00    +0.000 A 
ATOM     20  C   UNL     1       1.770   7.849  19.851  0.00  0.00    +0.000 A 
ATOM     21  C   UNL     1       1.254   8.343  21.040  0.00  0.00    +0.000 A 
ATOM     22  N   UNL     1       0.993   9.652  21.290  0.00  0.00    +0.000 NA
ATOM     23  C   UNL     1       1.211  10.554  20.296  0.00  0.00    +0.000 A 
ATOM     24  C   UNL     1      -0.725  13.756  21.548  0.00  0.00    +0.000 C 
ATOM     25  C   UNL     1      -1.105  13.870  23.033  0.00  0.00    +0.000 C 
ENDROOT
BRANCH  20  26
ATOM     26  C   UNL     1       2.019   6.419  19.592  0.00  0.00    +0.000 A 
ATOM     27  C   UNL     1       2.447   5.980  18.322  0.00  0.00    +0.000 A 
ATOM     28  C   UNL     1       2.579   4.625  18.026  0.00  0.00    +0.000 A 
ATOM     29  C   UNL     1       2.307   3.672  18.999  0.00  0.00    +0.000 A 
ATOM     30  C   UNL     1       1.923   4.075  20.274  0.00  0.00    +0.000 A 
ATOM     31  C   UNL     1       1.778   5.437  20.566  0.00  0.00    +0.000 A 
ENDBRANCH  20  26
TORSDOF 1
ENDMDL
MODEL 4
REMARK VINA RESULT:      -7.6      1.212      1.398
REMARK  Name = 
REMARK  2 active torsions:
REMARK  status: ('A' for Active; 'I' for Inactive)
REMARK    1  A    between atoms: C_1  and  C_2
REMARK    2  A    between atoms: C_20  and  C_21
REMARK                            x       y       z     vdW  Elec       q    Type
REMARK                         _______ _______ _______ _____ _____    ______ ____
ROOT
ATOM      1  C   UNL     1       2.756  18.238  19.823  0.00  0.00    +0.000 C 
ATOM      2  C   UNL     1       3.196  16.937  19.203  0.00  0.00    +0.000 C 
ATOM      3  O   UNL     1       4.322  16.843  18.715  0.00  0.00    +0.000 OA
ATOM      4  N   UNL     1       2.307  15.878  19.256  0.00  0.00    +0.000 N 
ATOM      5  C   UNL     1       2.752  14.547  18.826  0.00  0.00    +0.000 C 
ATOM      6  C   UNL     1       2.591  13.547  19.978  0.00  0.00    +0.000 C 
ATOM      7  C   UNL     1       1.124  13.496  20.410  0.00  0.00    +0.000 C 
ATOM      8  C   UNL     1       0.329  12.388  20.387  0.00  0.00    +0.000 C 
ATOM      9  C   UNL     1      -1.081  12.500  20.848  0.00  0.00    +0.000 A 
ATOM     10  C   UNL     1      -2.035  13.193  20.089  0.00  0.00    +0.000 A 
ATOM     11  C   UNL     1      -3.362  13.262  20.515  0.00  0.00    +0.000 A 
ATOM     12  C   UNL     1      -3.747  12.615  21.687  0.00  0.00    +0.000 A 
ATOM     13 CL   UNL     1      -5.389  12.675  22.197  0.00  0.00    +0.000 Cl
ATOM     14  C   UNL     1      -2.816  11.903  22.440  0.00  0.00    +0.000 A 
ATOM     15  C   UNL     1      -1.478  11.843  22.027  0.00  0.00    +0.000 A 
ATOM     16  C   UNL     1      -0.482  11.006  22.786  0.00  0.00    +0.000 C 
ATOM     17  C   UNL     1      -0.139   9.744  22.000  0.00  0.00    +0.000 C 
ATOM     18  C   UNL     1       0.632   9.883  20.706  0.00  0.00    +0.000 A 
ATOM     19  C   UNL     1       1.154   8.687  20.185  0.00  0.00    +0.000 A 
ATOM     20  C   UNL     1       1.878   8.639  18.989  0.00  0.00    +0.000 A 
ATOM     21  C   UNL     1       2.022   9.858  18.340  0.00  0.00    +0.000 A 
ATOM     22  N   UNL     1       1.518  11.038  18.783  0.00  0.00    +0.000 NA
ATOM     23  C   UNL     1       0.851  11.051  19.967  0.00  0.00    +0.000 A 
ATOM     24  C   UNL     1       0.692  14.890  20.866  0.00  0.00    +0.000 C 
ATOM     25  C   UNL     1       0.929  15.929  19.759  0.00  0.00    +0.000 C 
ENDROOT
BRANCH  20  26
ATOM     26  C   UNL     1       2.459   7.374  18.504  0.00  0.00    +0.000 A 
ATOM     27  C   UNL     1       3.638   7.372  17.730  0.00  0.00    +0.000 A 
ATOM     28  C   UNL     1       4.139   6.199  17.170  0.00  0.00    +0.000 A 
ATOM     29  C   UNL     1       3.487   4.992  17.385  0.00  0.00    +0.000 A 
ATOM     30  C   UNL     1       2.345   4.955  18.179  0.00  0.00    +0.000 A 
ATOM     31  C   UNL     1       1.835   6.137  18.730  0.00  0.00    +0.000 A 
ENDBRANCH  20  26
TORSDOF 1
ENDMDL
MODEL 5
REMARK VINA RESULT:      -7.4      3.766      7.192
REMARK  Name = 
REMARK  2 active torsions:
REMARK  status: ('A' for Active; 'I' for Inactive)
REMARK    1  A    between atoms: C_1  and  C_2
REMARK    2  A    between atoms: C_20  and  C_21
REMARK                            x       y       z     vdW  Elec       q    Type
REMARK                         _______ _______ _______ _____ _____    ______ ____
ROOT
ATOM      1  C   UNL     1      -4.354  13.083  24.818  0.00  0.00    +0.000 C 
ATOM      2  C   UNL     1      -3.154  13.897  24.409  0.00  0.00    +0.000 C 
ATOM      3  O   UNL     1      -2.611  14.639  25.228  0.00  0.00    +0.000 OA
ATOM      4  N   UNL     1      -2.685  13.730  23.118  0.00  0.00    +0.000 N 
ATOM      5  C   UNL     1      -1.419  14.363  22.727  0.00  0.00    +0.000 C 
ATOM      6  C   UNL     1      -0.430  13.295  22.247  0.00  0.00    +0.000 C 
ATOM      7  C   UNL     1      -1.029  12.541  21.058  0.00  0.00    +0.000 C 
ATOM      8  C   UNL     1      -0.487  12.474  19.808  0.00  0.00    +0.000 C 
ATOM      9  C   UNL     1      -1.190  11.691  18.756  0.00  0.00    +0.000 A 
ATOM     10  C   UNL     1      -2.395  12.147  18.202  0.00  0.00    +0.000 A 
ATOM     11  C   UNL     1      -3.028  11.421  17.192  0.00  0.00    +0.000 A 
ATOM     12  C   UNL     1      -2.445  10.251  16.711  0.00  0.00    +0.000 A 
ATOM     13 CL   UNL     1      -3.208   9.371  15.446  0.00  0.00    +0.000 Cl
ATOM     14  C   UNL     1      -1.236   9.797  17.235  0.00  0.00    +0.000 A 
ATOM     15  C   UNL     1      -0.602  10.513  18.260  0.00  0.00    +0.000 A 
ATOM     16  C   UNL     1       0.746  10.079  18.774  0.00  0.00    +0.000 C 
ATOM     17  C   UNL     1       1.834  11.028  18.279  0.00  0.00    +0.000 C 
ATOM     18  C   UNL     1       1.847  12.448  18.799  0.00  0.00    +0.000 A 
ATOM     19  C   UNL     1       3.019  13.176  18.529  0.00  0.00    +0.000 A 
ATOM     20  C   UNL     1       3.187  14.507  18.926  0.00  0.00    +0.000 A 
ATOM     21  C   UNL     1       2.101  15.064  19.586  0.00  0.00    +0.000 A 
ATOM     22  N   UNL     1       0.936  14.419  19.849  0.00  0.00    +0.000 NA
ATOM     23  C   UNL     1       0.824  13.115  19.480  0.00  0.00    +0.000 A 
ATOM     24  C   UNL     1      -2.336  11.880  21.496  0.00  0.00    +0.000 C 
ATOM     25  C   UNL     1      -3.313  12.919  22.068  0.00  0.00    +0.000 C 
ENDROOT
BRANCH  20  26
ATOM     26  C   UNL     1       4.454  15.219  18.676  0.00  0.00    +0.000 A 
ATOM     27  C   UNL     1       5.505  14.595  17.973  0.00  0.00    +0.000 A 
ATOM     28  C   UNL     1       6.747  15.208  17.825  0.00  0.00    +0.000 A 
ATOM     29  C   UNL     1       6.966  16.471  18.358  0.00  0.00    +0.000 A 
ATOM     30  C   UNL     1       5.935  17.131  19.021  0.00  0.00    +0.000 A 
ATOM     31  C   UNL     1       4.691  16.507  19.180  0.00  0.00    +0.000 A 
ENDBRANCH  20  26
TORSDOF 1
ENDMDL
MODEL 6
REMARK VINA RESULT:      -7.3      3.478      5.466
REMARK  Name = 
REMARK  2 active torsions:
REMARK  status: ('A' for Active; 'I' for Inactive)
REMARK    1  A    between atoms: C_1  and  C_2
REMARK    2  A    between atoms: C_20  and  C_21
REMARK                            x       y       z     vdW  Elec       q    Type
REMARK                         _______ _______ _______ _____ _____    ______ ____
ROOT
ATOM      1  C   UNL     1      -4.830  15.012  23.749  0.00  0.00    +0.000 C 
ATOM      2  C   UNL     1      -4.306  13.606  23.608  0.00  0.00    +0.000 C 
ATOM      3  O   UNL     1      -5.047  12.652  23.845  0.00  0.00    +0.000 OA
ATOM      4  N   UNL     1      -3.003  13.457  23.165  0.00  0.00    +0.000 N 
ATOM      5  C   UNL     1      -2.505  12.114  22.843  0.00  0.00    +0.000 C 
ATOM      6  C   UNL     1      -2.038  12.068  21.384  0.00  0.00    +0.000 C 
ATOM      7  C   UNL     1      -0.932  13.104  21.168  0.00  0.00    +0.000 C 
ATOM      8  C   UNL     1       0.339  12.832  20.756  0.00  0.00    +0.000 C 
ATOM      9  C   UNL     1       1.300  13.955  20.586  0.00  0.00    +0.000 A 
ATOM     10  C   UNL     1       1.814  14.638  21.697  0.00  0.00    +0.000 A 
ATOM     11  C   UNL     1       2.740  15.668  21.527  0.00  0.00    +0.000 A 
ATOM     12  C   UNL     1       3.180  15.999  20.247  0.00  0.00    +0.000 A 
ATOM     13 CL   UNL     1       4.344  17.248  20.039  0.00  0.00    +0.000 Cl
ATOM     14  C   UNL     1       2.697  15.313  19.135  0.00  0.00    +0.000 A 
ATOM     15  C   UNL     1       1.754  14.289  19.297  0.00  0.00    +0.000 A 
ATOM     16  C   UNL     1       1.290  13.484  18.111  0.00  0.00    +0.000 C 
ATOM     17  C   UNL     1       1.901  12.086  18.145  0.00  0.00    +0.000 C 
ATOM     18  C   UNL     1       1.472  11.134  19.239  0.00  0.00    +0.000 A 
ATOM     19  C   UNL     1       1.851   9.793  19.051  0.00  0.00    +0.000 A 
ATOM     20  C   UNL     1       1.546   8.789  19.976  0.00  0.00    +0.000 A 
ATOM     21  C   UNL     1       0.863   9.218  21.106  0.00  0.00    +0.000 A 
ATOM     22  N   UNL     1       0.496  10.501  21.352  0.00  0.00    +0.000 NA
ATOM     23  C   UNL     1       0.778  11.444  20.413  0.00  0.00    +0.000 A 
ATOM     24  C   UNL     1      -1.482  14.492  21.495  0.00  0.00    +0.000 C 
ATOM     25  C   UNL     1      -2.042  14.540  22.925  0.00  0.00    +0.000 C 
ENDROOT
BRANCH  20  26
ATOM     26  C   UNL     1       1.909   7.384  19.717  0.00  0.00    +0.000 A 
ATOM     27  C   UNL     1       2.532   7.011  18.508  0.00  0.00    +0.000 A 
ATOM     28  C   UNL     1       2.780   5.676  18.197  0.00  0.00    +0.000 A 
ATOM     29  C   UNL     1       2.431   4.677  19.096  0.00  0.00    +0.000 A 
ATOM     30  C   UNL     1       1.853   5.016  20.316  0.00  0.00    +0.000 A 
ATOM     31  C   UNL     1       1.592   6.358  20.621  0.00  0.00    +0.000 A 
ENDBRANCH  20  26
TORSDOF 1
ENDMDL
MODEL 7
REMARK VINA RESULT:      -7.1      1.584      1.748
REMARK  Name = 
REMARK  2 active torsions:
REMARK  status: ('A' for Active; 'I' for Inactive)
REMARK    1  A    between atoms: C_1  and  C_2
REMARK    2  A    between atoms: C_20  and  C_21
REMARK                            x       y       z     vdW  Elec       q    Type
REMARK                         _______ _______ _______ _____ _____    ______ ____
ROOT
ATOM      1  C   UNL     1       2.584  18.578  21.271  0.00  0.00    +0.000 C 
ATOM      2  C   UNL     1       3.054  17.289  20.647  0.00  0.00    +0.000 C 
ATOM      3  O   UNL     1       4.232  17.166  20.313  0.00  0.00    +0.000 OA
ATOM      4  N   UNL     1       2.125  16.270  20.522  0.00  0.00    +0.000 N 
ATOM      5  C   UNL     1       2.573  14.942  20.086  0.00  0.00    +0.000 C 
ATOM      6  C   UNL     1       2.216  13.897  21.150  0.00  0.00    +0.000 C 
ATOM      7  C   UNL     1       0.702  13.894  21.375  0.00  0.00    +0.000 C 
ATOM      8  C   UNL     1      -0.125  12.826  21.184  0.00  0.00    +0.000 C 
ATOM      9  C   UNL     1      -1.579  12.980  21.454  0.00  0.00    +0.000 A 
ATOM     10  C   UNL     1      -2.391  13.751  20.610  0.00  0.00    +0.000 A 
ATOM     11  C   UNL     1      -3.761  13.862  20.854  0.00  0.00    +0.000 A 
ATOM     12  C   UNL     1      -4.330  13.178  21.927  0.00  0.00    +0.000 A 
ATOM     13 CL   UNL     1      -6.022  13.289  22.211  0.00  0.00    +0.000 Cl
ATOM     14  C   UNL     1      -3.541  12.389  22.760  0.00  0.00    +0.000 A 
ATOM     15  C   UNL     1      -2.162  12.287  22.531  0.00  0.00    +0.000 A 
ATOM     16  C   UNL     1      -1.314  11.370  23.373  0.00  0.00    +0.000 C 
ATOM     17  C   UNL     1      -0.914  10.132  22.575  0.00  0.00    +0.000 C 
ATOM     18  C   UNL     1       0.033  10.297  21.407  0.00  0.00    +0.000 A 
ATOM     19  C   UNL     1       0.575   9.104  20.899  0.00  0.00    +0.000 A 
ATOM     20  C   UNL     1       1.455   9.080  19.812  0.00  0.00    +0.000 A 
ATOM     21  C   UNL     1       1.736  10.320  19.256  0.00  0.00    +0.000 A 
ATOM     22  N   UNL     1       1.222  11.500  19.687  0.00  0.00    +0.000 NA
ATOM     23  C   UNL     1       0.398  11.487  20.769  0.00  0.00    +0.000 A 
ATOM     24  C   UNL     1       0.266  15.282  21.842  0.00  0.00    +0.000 C 
ATOM     25  C   UNL     1       0.695  16.361  20.835  0.00  0.00    +0.000 C 
ENDROOT
BRANCH  20  26
ATOM     26  C   UNL     1       2.048   7.814  19.345  0.00  0.00    +0.000 A 
ATOM     27  C   UNL     1       2.675   7.733  18.084  0.00  0.00    +0.000 A 
ATOM     28  C   UNL     1       3.140   6.522  17.578  0.00  0.00    +0.000 A 
ATOM     29  C   UNL     1       3.011   5.360  18.328  0.00  0.00    +0.000 A 
ATOM     30  C   UNL     1       2.435   5.414  19.593  0.00  0.00    +0.000 A 
ATOM     31  C   UNL     1       1.955   6.631  20.095  0.00  0.00    +0.000 A 
ENDBRANCH  20  26
TORSDOF 1
ENDMDL
MODEL 8
REMARK VINA RESULT:      -7.0      7.143     10.716
REMARK  Name = 
REMARK  2 active torsions:
REMARK  status: ('A' for Active; 'I' for Inactive)
REMARK    1  A    between atoms: C_1  and  C_2
REMARK    2  A    between atoms: C_20  and  C_21
REMARK                            x       y       z     vdW  Elec       q    Type
REMARK                         _______ _______ _______ _____ _____    ______ ____
ROOT
ATOM      1  C   UNL     1       7.855  11.952  25.977  0.00  0.00    +0.000 C 
ATOM      2  C   UNL     1       6.589  12.382  25.281  0.00  0.00    +0.000 C 
ATOM      3  O   UNL     1       5.553  12.521  25.930  0.00  0.00    +0.000 OA
ATOM      4  N   UNL     1       6.671  12.649  23.925  0.00  0.00    +0.000 N 
ATOM      5  C   UNL     1       5.514  13.238  23.240  0.00  0.00    +0.000 C 
ATOM      6  C   UNL     1       5.915  14.570  22.594  0.00  0.00    +0.000 C 
ATOM      7  C   UNL     1       7.052  14.334  21.598  0.00  0.00    +0.000 C 
ATOM      8  C   UNL     1       7.005  14.609  20.263  0.00  0.00    +0.000 C 
ATOM      9  C   UNL     1       8.201  14.328  19.424  0.00  0.00    +0.000 A 
ATOM     10  C   UNL     1       8.584  13.010  19.133  0.00  0.00    +0.000 A 
ATOM     11  C   UNL     1       9.689  12.759  18.318  0.00  0.00    +0.000 A 
ATOM     12  C   UNL     1      10.398  13.824  17.766  0.00  0.00    +0.000 A 
ATOM     13 CL   UNL     1      11.741  13.516  16.737  0.00  0.00    +0.000 Cl
ATOM     14  C   UNL     1      10.015  15.138  18.026  0.00  0.00    +0.000 A 
ATOM     15  C   UNL     1       8.917  15.398  18.857  0.00  0.00    +0.000 A 
ATOM     16  C   UNL     1       8.443  16.811  19.077  0.00  0.00    +0.000 C 
ATOM     17  C   UNL     1       7.143  17.060  18.317  0.00  0.00    +0.000 C 
ATOM     18  C   UNL     1       5.892  16.336  18.764  0.00  0.00    +0.000 A 
ATOM     19  C   UNL     1       4.691  16.815  18.213  0.00  0.00    +0.000 A 
ATOM     20  C   UNL     1       3.448  16.248  18.511  0.00  0.00    +0.000 A 
ATOM     21  C   UNL     1       3.489  15.160  19.372  0.00  0.00    +0.000 A 
ATOM     22  N   UNL     1       4.620  14.639  19.912  0.00  0.00    +0.000 NA
ATOM     23  C   UNL     1       5.807  15.240  19.628  0.00  0.00    +0.000 A 
ATOM     24  C   UNL     1       8.247  13.735  22.340  0.00  0.00    +0.000 C 
ATOM     25  C   UNL     1       7.848  12.445  23.073  0.00  0.00    +0.000 C 
ENDROOT
BRANCH  20  26
ATOM     26  C   UNL     1       2.204  16.815  17.959  0.00  0.00    +0.000 A 
ATOM     27  C   UNL     1       2.227  17.604  16.791  0.00  0.00    +0.000 A 
ATOM     28  C   UNL     1       1.082  18.241  16.318  0.00  0.00    +0.000 A 
ATOM     29  C   UNL     1      -0.124  18.088  16.990  0.00  0.00    +0.000 A 
ATOM     30  C   UNL     1      -0.189  17.282  18.122  0.00  0.00    +0.000 A 
ATOM     31  C   UNL     1       0.967  16.654  18.603  0.00  0.00    +0.000 A 
ENDBRANCH  20  26
TORSDOF 1
ENDMDL
MODEL 9
REMARK VINA RESULT:      -6.9      9.143     11.579
REMARK  Name = 
REMARK  2 active torsions:
REMARK  status: ('A' for Active; 'I' for Inactive)
REMARK    1  A    between atoms: C_1  and  C_2
REMARK    2  A    between atoms: C_20  and  C_21
REMARK                            x       y       z     vdW  Elec       q    Type
REMARK                         _______ _______ _______ _____ _____    ______ ____
ROOT
ATOM      1  C   UNL     1       3.751  10.736  27.582  0.00  0.00    +0.000 C 
ATOM      2  C   UNL     1       4.461  10.496  26.274  0.00  0.00    +0.000 C 
ATOM      3  O   UNL     1       3.980   9.716  25.453  0.00  0.00    +0.000 OA
ATOM      4  N   UNL     1       5.618  11.218  26.040  0.00  0.00    +0.000 N 
ATOM      5  C   UNL     1       6.247  11.154  24.716  0.00  0.00    +0.000 C 
ATOM      6  C   UNL     1       6.339  12.562  24.115  0.00  0.00    +0.000 C 
ATOM      7  C   UNL     1       7.158  13.461  25.042  0.00  0.00    +0.000 C 
ATOM      8  C   UNL     1       8.315  14.102  24.707  0.00  0.00    +0.000 C 
ATOM      9  C   UNL     1       8.993  14.951  25.723  0.00  0.00    +0.000 A 
ATOM     10  C   UNL     1       9.638  14.376  26.827  0.00  0.00    +0.000 A 
ATOM     11  C   UNL     1      10.299  15.181  27.757  0.00  0.00    +0.000 A 
ATOM     12  C   UNL     1      10.343  16.561  27.570  0.00  0.00    +0.000 A 
ATOM     13 CL   UNL     1      11.182  17.551  28.698  0.00  0.00    +0.000 Cl
ATOM     14  C   UNL     1       9.726  17.144  26.465  0.00  0.00    +0.000 A 
ATOM     15  C   UNL     1       9.047  16.344  25.537  0.00  0.00    +0.000 A 
ATOM     16  C   UNL     1       8.451  16.954  24.295  0.00  0.00    +0.000 C 
ATOM     17  C   UNL     1       9.286  16.590  23.070  0.00  0.00    +0.000 C 
ATOM     18  C   UNL     1       9.314  15.148  22.615  0.00  0.00    +0.000 A 
ATOM     19  C   UNL     1       9.863  14.931  21.339  0.00  0.00    +0.000 A 
ATOM     20  C   UNL     1       9.977  13.656  20.776  0.00  0.00    +0.000 A 
ATOM     21  C   UNL     1       9.532  12.616  21.581  0.00  0.00    +0.000 A 
ATOM     22  N   UNL     1       9.019  12.764  22.829  0.00  0.00    +0.000 NA
ATOM     23  C   UNL     1       8.890  14.022  23.329  0.00  0.00    +0.000 A 
ATOM     24  C   UNL     1       6.473  13.523  26.407  0.00  0.00    +0.000 C 
ATOM     25  C   UNL     1       6.286  12.114  26.992  0.00  0.00    +0.000 C 
ENDROOT
BRANCH  20  26
ATOM     26  C   UNL     1      10.504  13.474  19.411  0.00  0.00    +0.000 A 
ATOM     27  C   UNL     1      10.960  12.213  18.977  0.00  0.00    +0.000 A 
ATOM     28  C   UNL     1      11.564  12.045  17.733  0.00  0.00    +0.000 A 
ATOM     29  C   UNL     1      11.710  13.131  16.880  0.00  0.00    +0.000 A 
ATOM     30  C   UNL     1      11.232  14.381  17.262  0.00  0.00    +0.000 A 
ATOM     31  C   UNL     1      10.637  14.550  18.520  0.00  0.00    +0.000 A 
ENDBRANCH  20  26
TORSDOF 1
ENDMDL
