MODEL 1
REMARK VINA RESULT:      -7.6      0.000      0.000
REMARK  Name = 
REMARK  4 active torsions:
REMARK  status: ('A' for Active; 'I' for Inactive)
REMARK    1  A    between atoms: C_1  and  C_2
REMARK    2  A    between atoms: C_2  and  C_3
REMARK    3  A    between atoms: C_3  and  O_5
REMARK    4  A    between atoms: C_10  and  C_12
REMARK                            x       y       z     vdW  Elec       q    Type
REMARK                         _______ _______ _______ _____ _____    ______ ____
ROOT
ATOM      1  C   UNL     1       6.466   5.507  19.280  0.00  0.00    +0.000 C 
ATOM      2  C   UNL     1       6.714   6.022  17.850  0.00  0.00    +0.000 C 
ATOM      3  C   UNL     1       7.233   4.919  16.910  0.00  0.00    +0.000 C 
ATOM      4  C   UNL     1       6.177   3.843  16.644  0.00  0.00    +0.000 C 
ATOM      5  C   UNL     1       4.856   4.445  16.162  0.00  0.00    +0.000 C 
ATOM      6  N   UNL     1       4.399   5.517  17.048  0.00  0.00    +0.000 N 
ATOM      7  C   UNL     1       3.106   5.438  17.603  0.00  0.00    +0.000 C 
ATOM      8  O   UNL     1       2.434   4.417  17.427  0.00  0.00    +0.000 OA
ATOM      9  C   UNL     1       5.391   6.574  17.282  0.00  0.00    +0.000 C 
ENDROOT
BRANCH   7  10
ATOM     10  C   UNL     1       2.582   6.503  18.454  0.00  0.00    +0.000 A 
ATOM     11  C   UNL     1       2.289   7.796  18.047  0.00  0.00    +0.000 A 
ATOM     12  C   UNL     1       1.699   8.599  19.080  0.00  0.00    +0.000 A 
ATOM     13  C   UNL     1       1.192   9.920  19.053  0.00  0.00    +0.000 A 
ATOM     14  C   UNL     1       0.567  10.458  20.183  0.00  0.00    +0.000 A 
ATOM     15  C   UNL     1       0.430   9.699  21.338  0.00  0.00    +0.000 A 
ATOM     16  C   UNL     1       0.959   8.409  21.405  0.00  0.00    +0.000 A 
ATOM     17  C   UNL     1       1.618   7.888  20.275  0.00  0.00    +0.000 A 
ATOM     18  S   UNL     1       2.455   6.392  20.154  0.00  0.00    +0.000 S 
ENDBRANCH   7  10
BRANCH   2  19
ATOM     19  C   UNL     1       7.708   7.186  17.893  0.00  0.00    +0.000 C 
ATOM     20  O   UNL     1       7.802   8.052  17.034  0.00  0.00    +0.000 OA
BRANCH  19  21
ATOM     21  O   UNL     1       8.514   7.196  18.978  0.00  0.00    +0.000 OA
ATOM     22  H   UNL     1       8.091   6.938  19.817  0.00  0.00    +0.000 HD
ENDBRANCH  19  21
ENDBRANCH   2  19
TORSDOF 3
ENDMDL
MODEL 2
REMARK VINA RESULT:      -7.4      2.525      4.308
REMARK  Name = 
REMARK  4 active torsions:
REMARK  status: ('A' for Active; 'I' for Inactive)
REMARK    1  A    between atoms: C_1  and  C_2
REMARK    2  A    between atoms: C_2  and  C_3
REMARK    3  A    between atoms: C_3  and  O_5
REMARK    4  A    between atoms: C_10  and  C_12
REMARK                            x       y       z     vdW  Elec       q    Type
REMARK                         _______ _______ _______ _____ _____    ______ ____
ROOT
ATOM      1  C   UNL     1       1.295   3.679  18.802  0.00  0.00    +0.000 C 
ATOM      2  C   UNL     1       2.529   3.462  19.698  0.00  0.00    +0.000 C 
ATOM      3  C   UNL     1       3.569   2.530  19.048  0.00  0.00    +0.000 C 
ATOM      4  C   UNL     1       4.221   3.162  17.816  0.00  0.00    +0.000 C 
ATOM      5  C   UNL     1       4.791   4.549  18.119  0.00  0.00    +0.000 C 
ATOM      6  N   UNL     1       3.799   5.408  18.770  0.00  0.00    +0.000 N 
ATOM      7  C   UNL     1       3.499   6.660  18.196  0.00  0.00    +0.000 C 
ATOM      8  O   UNL     1       3.988   6.955  17.101  0.00  0.00    +0.000 OA
ATOM      9  C   UNL     1       3.192   4.827  19.974  0.00  0.00    +0.000 C 
ENDROOT
BRANCH   7  10
ATOM     10  C   UNL     1       2.554   7.575  18.830  0.00  0.00    +0.000 A 
ATOM     11  C   UNL     1       2.011   7.430  20.098  0.00  0.00    +0.000 A 
ATOM     12  C   UNL     1       1.183   8.533  20.493  0.00  0.00    +0.000 A 
ATOM     13  C   UNL     1       0.520   8.806  21.714  0.00  0.00    +0.000 A 
ATOM     14  C   UNL     1      -0.159  10.017  21.891  0.00  0.00    +0.000 A 
ATOM     15  C   UNL     1      -0.181  10.965  20.877  0.00  0.00    +0.000 A 
ATOM     16  C   UNL     1       0.429  10.703  19.649  0.00  0.00    +0.000 A 
ATOM     17  C   UNL     1       1.079   9.469  19.465  0.00  0.00    +0.000 A 
ATOM     18  S   UNL     1       1.784   8.867  18.018  0.00  0.00    +0.000 S 
ENDBRANCH   7  10
BRANCH   2  19
ATOM     19  C   UNL     1       2.085   2.893  21.048  0.00  0.00    +0.000 C 
ATOM     20  O   UNL     1       2.847   2.498  21.921  0.00  0.00    +0.000 OA
BRANCH  19  21
ATOM     21  O   UNL     1       0.746   2.845  21.223  0.00  0.00    +0.000 OA
ATOM     22  H   UNL     1       0.316   2.016  20.944  0.00  0.00    +0.000 HD
ENDBRANCH  19  21
ENDBRANCH   2  19
TORSDOF 3
ENDMDL
MODEL 3
REMARK VINA RESULT:      -6.9      2.477      4.132
REMARK  Name = 
REMARK  4 active torsions:
REMARK  status: ('A' for Active; 'I' for Inactive)
REMARK    1  A    between atoms: C_1  and  C_2
REMARK    2  A    between atoms: C_2  and  C_3
REMARK    3  A    between atoms: C_3  and  O_5
REMARK    4  A    between atoms: C_10  and  C_12
REMARK                            x       y       z     vdW  Elec       q    Type
REMARK                         _______ _______ _______ _____ _____    ______ ____
ROOT
ATOM      1  C   UNL     1       1.238   3.520  18.787  0.00  0.00    +0.000 C 
ATOM      2  C   UNL     1       2.482   3.276  19.662  0.00  0.00    +0.000 C 
ATOM      3  C   UNL     1       3.435   2.233  19.049  0.00  0.00    +0.000 C 
ATOM      4  C   UNL     1       4.090   2.736  17.760  0.00  0.00    +0.000 C 
ATOM      5  C   UNL     1       4.762   4.096  17.953  0.00  0.00    +0.000 C 
ATOM      6  N   UNL     1       3.852   5.063  18.570  0.00  0.00    +0.000 N 
ATOM      7  C   UNL     1       3.621   6.293  17.922  0.00  0.00    +0.000 C 
ATOM      8  O   UNL     1       4.094   6.481  16.797  0.00  0.00    +0.000 OA
ATOM      9  C   UNL     1       3.245   4.606  19.827  0.00  0.00    +0.000 C 
ENDROOT
BRANCH   7  10
ATOM     10  C   UNL     1       2.761   7.312  18.518  0.00  0.00    +0.000 A 
ATOM     11  C   UNL     1       2.400   8.514  17.929  0.00  0.00    +0.000 A 
ATOM     12  C   UNL     1       1.468   9.276  18.711  0.00  0.00    +0.000 A 
ATOM     13  C   UNL     1       0.804  10.495  18.437  0.00  0.00    +0.000 A 
ATOM     14  C   UNL     1      -0.148  10.995  19.331  0.00  0.00    +0.000 A 
ATOM     15  C   UNL     1      -0.459  10.296  20.491  0.00  0.00    +0.000 A 
ATOM     16  C   UNL     1       0.213   9.113  20.806  0.00  0.00    +0.000 A 
ATOM     17  C   UNL     1       1.195   8.635  19.918  0.00  0.00    +0.000 A 
ATOM     18  S   UNL     1       2.236   7.286  20.144  0.00  0.00    +0.000 S 
ENDBRANCH   7  10
BRANCH   2  19
ATOM     19  C   UNL     1       2.043   2.830  21.058  0.00  0.00    +0.000 C 
ATOM     20  O   UNL     1       2.807   2.490  21.952  0.00  0.00    +0.000 OA
BRANCH  19  21
ATOM     21  O   UNL     1       0.705   2.827  21.252  0.00  0.00    +0.000 OA
ATOM     22  H   UNL     1       0.164   2.841  20.441  0.00  0.00    +0.000 HD
ENDBRANCH  19  21
ENDBRANCH   2  19
TORSDOF 3
ENDMDL
MODEL 4
REMARK VINA RESULT:      -6.9      2.253      4.289
REMARK  Name = 
REMARK  4 active torsions:
REMARK  status: ('A' for Active; 'I' for Inactive)
REMARK    1  A    between atoms: C_1  and  C_2
REMARK    2  A    between atoms: C_2  and  C_3
REMARK    3  A    between atoms: C_3  and  O_5
REMARK    4  A    between atoms: C_10  and  C_12
REMARK                            x       y       z     vdW  Elec       q    Type
REMARK                         _______ _______ _______ _____ _____    ______ ____
ROOT
ATOM      1  C   UNL     1       1.298   4.038  17.431  0.00  0.00    +0.000 C 
ATOM      2  C   UNL     1       2.318   3.499  18.452  0.00  0.00    +0.000 C 
ATOM      3  C   UNL     1       3.435   2.675  17.786  0.00  0.00    +0.000 C 
ATOM      4  C   UNL     1       4.344   3.538  16.907  0.00  0.00    +0.000 C 
ATOM      5  C   UNL     1       4.887   4.751  17.665  0.00  0.00    +0.000 C 
ATOM      6  N   UNL     1       3.813   5.500  18.322  0.00  0.00    +0.000 N 
ATOM      7  C   UNL     1       3.679   6.876  18.053  0.00  0.00    +0.000 C 
ATOM      8  O   UNL     1       4.389   7.394  17.185  0.00  0.00    +0.000 OA
ATOM      9  C   UNL     1       2.957   4.689  19.196  0.00  0.00    +0.000 C 
ENDROOT
BRANCH   7  10
ATOM     10  C   UNL     1       2.657   7.680  18.717  0.00  0.00    +0.000 A 
ATOM     11  C   UNL     1       2.145   7.454  19.985  0.00  0.00    +0.000 A 
ATOM     12  C   UNL     1       1.218   8.461  20.415  0.00  0.00    +0.000 A 
ATOM     13  C   UNL     1       0.546   8.640  21.648  0.00  0.00    +0.000 A 
ATOM     14  C   UNL     1      -0.245   9.774  21.861  0.00  0.00    +0.000 A 
ATOM     15  C   UNL     1      -0.370  10.740  20.871  0.00  0.00    +0.000 A 
ATOM     16  C   UNL     1       0.248  10.567  19.631  0.00  0.00    +0.000 A 
ATOM     17  C   UNL     1       1.013   9.406  19.412  0.00  0.00    +0.000 A 
ATOM     18  S   UNL     1       1.757   8.910  17.944  0.00  0.00    +0.000 S 
ENDBRANCH   7  10
BRANCH   2  19
ATOM     19  C   UNL     1       1.590   2.650  19.498  0.00  0.00    +0.000 C 
ATOM     20  O   UNL     1       1.145   3.079  20.554  0.00  0.00    +0.000 OA
BRANCH  19  21
ATOM     21  O   UNL     1       1.471   1.343  19.175  0.00  0.00    +0.000 OA
ATOM     22  H   UNL     1       0.642   0.915  19.459  0.00  0.00    +0.000 HD
ENDBRANCH  19  21
ENDBRANCH   2  19
TORSDOF 3
ENDMDL
MODEL 5
REMARK VINA RESULT:      -6.8      0.790      1.360
REMARK  Name = 
REMARK  4 active torsions:
REMARK  status: ('A' for Active; 'I' for Inactive)
REMARK    1  A    between atoms: C_1  and  C_2
REMARK    2  A    between atoms: C_2  and  C_3
REMARK    3  A    between atoms: C_3  and  O_5
REMARK    4  A    between atoms: C_10  and  C_12
REMARK                            x       y       z     vdW  Elec       q    Type
REMARK                         _______ _______ _______ _____ _____    ______ ____
ROOT
ATOM      1  C   UNL     1       6.432   5.686  19.354  0.00  0.00    +0.000 C 
ATOM      2  C   UNL     1       6.704   6.156  17.912  0.00  0.00    +0.000 C 
ATOM      3  C   UNL     1       7.281   5.035  17.028  0.00  0.00    +0.000 C 
ATOM      4  C   UNL     1       6.264   3.919  16.775  0.00  0.00    +0.000 C 
ATOM      5  C   UNL     1       4.941   4.463  16.236  0.00  0.00    +0.000 C 
ATOM      6  N   UNL     1       4.428   5.553  17.069  0.00  0.00    +0.000 N 
ATOM      7  C   UNL     1       3.123   5.455  17.592  0.00  0.00    +0.000 C 
ATOM      8  O   UNL     1       2.486   4.408  17.436  0.00  0.00    +0.000 OA
ATOM      9  C   UNL     1       5.382   6.646  17.289  0.00  0.00    +0.000 C 
ENDROOT
BRANCH   7  10
ATOM     10  C   UNL     1       2.545   6.534  18.388  0.00  0.00    +0.000 A 
ATOM     11  C   UNL     1       2.244   6.473  19.740  0.00  0.00    +0.000 A 
ATOM     12  C   UNL     1       1.772   7.718  20.277  0.00  0.00    +0.000 A 
ATOM     13  C   UNL     1       1.440   8.091  21.601  0.00  0.00    +0.000 A 
ATOM     14  C   UNL     1       1.091   9.414  21.893  0.00  0.00    +0.000 A 
ATOM     15  C   UNL     1       1.078  10.375  20.890  0.00  0.00    +0.000 A 
ATOM     16  C   UNL     1       1.361  10.024  19.568  0.00  0.00    +0.000 A 
ATOM     17  C   UNL     1       1.676   8.684  19.277  0.00  0.00    +0.000 A 
ATOM     18  S   UNL     1       1.932   7.987  17.727  0.00  0.00    +0.000 S 
ENDBRANCH   7  10
BRANCH   2  19
ATOM     19  C   UNL     1       7.662   7.350  17.938  0.00  0.00    +0.000 C 
ATOM     20  O   UNL     1       7.674   8.250  17.109  0.00  0.00    +0.000 OA
BRANCH  19  21
ATOM     21  O   UNL     1       8.536   7.346  18.969  0.00  0.00    +0.000 OA
ATOM     22  H   UNL     1       9.105   6.557  19.035  0.00  0.00    +0.000 HD
ENDBRANCH  19  21
ENDBRANCH   2  19
TORSDOF 3
ENDMDL
MODEL 6
REMARK VINA RESULT:      -6.6      3.578      5.906
REMARK  Name = 
REMARK  4 active torsions:
REMARK  status: ('A' for Active; 'I' for Inactive)
REMARK    1  A    between atoms: C_1  and  C_2
REMARK    2  A    between atoms: C_2  and  C_3
REMARK    3  A    between atoms: C_3  and  O_5
REMARK    4  A    between atoms: C_10  and  C_12
REMARK                            x       y       z     vdW  Elec       q    Type
REMARK                         _______ _______ _______ _____ _____    ______ ____
ROOT
ATOM      1  C   UNL     1       1.810   4.820  18.998  0.00  0.00    +0.000 C 
ATOM      2  C   UNL     1       2.393   3.670  19.841  0.00  0.00    +0.000 C 
ATOM      3  C   UNL     1       1.706   2.323  19.553  0.00  0.00    +0.000 C 
ATOM      4  C   UNL     1       2.002   1.815  18.139  0.00  0.00    +0.000 C 
ATOM      5  C   UNL     1       3.503   1.778  17.848  0.00  0.00    +0.000 C 
ATOM      6  N   UNL     1       4.144   3.056  18.163  0.00  0.00    +0.000 N 
ATOM      7  C   UNL     1       4.894   3.708  17.164  0.00  0.00    +0.000 C 
ATOM      8  O   UNL     1       4.897   3.252  16.017  0.00  0.00    +0.000 OA
ATOM      9  C   UNL     1       3.898   3.536  19.529  0.00  0.00    +0.000 C 
ENDROOT
BRANCH   7  10
ATOM     10  C   UNL     1       5.593   4.960  17.440  0.00  0.00    +0.000 A 
ATOM     11  C   UNL     1       6.679   5.113  18.289  0.00  0.00    +0.000 A 
ATOM     12  C   UNL     1       7.219   6.443  18.292  0.00  0.00    +0.000 A 
ATOM     13  C   UNL     1       8.351   6.984  18.947  0.00  0.00    +0.000 A 
ATOM     14  C   UNL     1       8.734   8.308  18.712  0.00  0.00    +0.000 A 
ATOM     15  C   UNL     1       8.015   9.101  17.827  0.00  0.00    +0.000 A 
ATOM     16  C   UNL     1       6.870   8.605  17.201  0.00  0.00    +0.000 A 
ATOM     17  C   UNL     1       6.470   7.283  17.471  0.00  0.00    +0.000 A 
ATOM     18  S   UNL     1       5.042   6.495  16.929  0.00  0.00    +0.000 S 
ENDBRANCH   7  10
BRANCH   2  19
ATOM     19  C   UNL     1       2.269   4.016  21.327  0.00  0.00    +0.000 C 
ATOM     20  O   UNL     1       2.075   3.198  22.218  0.00  0.00    +0.000 OA
BRANCH  19  21
ATOM     21  O   UNL     1       2.384   5.333  21.609  0.00  0.00    +0.000 OA
ATOM     22  H   UNL     1       2.177   5.939  20.874  0.00  0.00    +0.000 HD
ENDBRANCH  19  21
ENDBRANCH   2  19
TORSDOF 3
ENDMDL
MODEL 7
REMARK VINA RESULT:      -6.6      3.440      5.738
REMARK  Name = 
REMARK  4 active torsions:
REMARK  status: ('A' for Active; 'I' for Inactive)
REMARK    1  A    between atoms: C_1  and  C_2
REMARK    2  A    between atoms: C_2  and  C_3
REMARK    3  A    between atoms: C_3  and  O_5
REMARK    4  A    between atoms: C_10  and  C_12
REMARK                            x       y       z     vdW  Elec       q    Type
REMARK                         _______ _______ _______ _____ _____    ______ ____
ROOT
ATOM      1  C   UNL     1       2.144   5.457  18.516  0.00  0.00    +0.000 C 
ATOM      2  C   UNL     1       2.470   4.274  19.448  0.00  0.00    +0.000 C 
ATOM      3  C   UNL     1       1.615   3.031  19.139  0.00  0.00    +0.000 C 
ATOM      4  C   UNL     1       1.956   2.420  17.777  0.00  0.00    +0.000 C 
ATOM      5  C   UNL     1       3.454   2.148  17.632  0.00  0.00    +0.000 C 
ATOM      6  N   UNL     1       4.250   3.331  17.965  0.00  0.00    +0.000 N 
ATOM      7  C   UNL     1       5.176   3.818  17.021  0.00  0.00    +0.000 C 
ATOM      8  O   UNL     1       5.213   3.313  15.895  0.00  0.00    +0.000 OA
ATOM      9  C   UNL     1       3.958   3.904  19.285  0.00  0.00    +0.000 C 
ENDROOT
BRANCH   7  10
ATOM     10  C   UNL     1       6.030   4.964  17.322  0.00  0.00    +0.000 A 
ATOM     11  C   UNL     1       5.896   6.236  16.789  0.00  0.00    +0.000 A 
ATOM     12  C   UNL     1       6.821   7.186  17.338  0.00  0.00    +0.000 A 
ATOM     13  C   UNL     1       6.959   8.579  17.126  0.00  0.00    +0.000 A 
ATOM     14  C   UNL     1       7.891   9.315  17.865  0.00  0.00    +0.000 A 
ATOM     15  C   UNL     1       8.681   8.690  18.821  0.00  0.00    +0.000 A 
ATOM     16  C   UNL     1       8.595   7.311  19.020  0.00  0.00    +0.000 A 
ATOM     17  C   UNL     1       7.681   6.572  18.247  0.00  0.00    +0.000 A 
ATOM     18  S   UNL     1       7.482   4.865  18.217  0.00  0.00    +0.000 S 
ENDBRANCH   7  10
BRANCH   2  19
ATOM     19  C   UNL     1       2.267   4.703  20.904  0.00  0.00    +0.000 C 
ATOM     20  O   UNL     1       2.264   3.938  21.860  0.00  0.00    +0.000 OA
BRANCH  19  21
ATOM     21  O   UNL     1       2.076   6.029  21.077  0.00  0.00    +0.000 OA
ATOM     22  H   UNL     1       2.888   6.565  21.141  0.00  0.00    +0.000 HD
ENDBRANCH  19  21
ENDBRANCH   2  19
TORSDOF 3
ENDMDL
MODEL 8
REMARK VINA RESULT:      -6.4      2.999      7.178
REMARK  Name = 
REMARK  4 active torsions:
REMARK  status: ('A' for Active; 'I' for Inactive)
REMARK    1  A    between atoms: C_1  and  C_2
REMARK    2  A    between atoms: C_2  and  C_3
REMARK    3  A    between atoms: C_3  and  O_5
REMARK    4  A    between atoms: C_10  and  C_12
REMARK                            x       y       z     vdW  Elec       q    Type
REMARK                         _______ _______ _______ _____ _____    ______ ____
ROOT
ATOM      1  C   UNL     1       4.109   3.115  19.225  0.00  0.00    +0.000 C 
ATOM      2  C   UNL     1       2.683   3.568  18.861  0.00  0.00    +0.000 C 
ATOM      3  C   UNL     1       1.985   4.299  20.023  0.00  0.00    +0.000 C 
ATOM      4  C   UNL     1       2.640   5.647  20.334  0.00  0.00    +0.000 C 
ATOM      5  C   UNL     1       2.765   6.523  19.087  0.00  0.00    +0.000 C 
ATOM      6  N   UNL     1       3.397   5.799  17.982  0.00  0.00    +0.000 N 
ATOM      7  C   UNL     1       4.538   6.352  17.368  0.00  0.00    +0.000 C 
ATOM      8  O   UNL     1       5.049   7.369  17.848  0.00  0.00    +0.000 OA
ATOM      9  C   UNL     1       2.755   4.521  17.650  0.00  0.00    +0.000 C 
ENDROOT
BRANCH   7  10
ATOM     10  C   UNL     1       5.179   5.696  16.232  0.00  0.00    +0.000 A 
ATOM     11  C   UNL     1       4.575   4.792  15.372  0.00  0.00    +0.000 A 
ATOM     12  C   UNL     1       5.422   4.381  14.289  0.00  0.00    +0.000 A 
ATOM     13  C   UNL     1       5.165   3.548  13.173  0.00  0.00    +0.000 A 
ATOM     14  C   UNL     1       6.140   3.374  12.185  0.00  0.00    +0.000 A 
ATOM     15  C   UNL     1       7.364   4.024  12.283  0.00  0.00    +0.000 A 
ATOM     16  C   UNL     1       7.658   4.816  13.394  0.00  0.00    +0.000 A 
ATOM     17  C   UNL     1       6.685   4.958  14.401  0.00  0.00    +0.000 A 
ATOM     18  S   UNL     1       6.855   5.767  15.908  0.00  0.00    +0.000 S 
ENDBRANCH   7  10
BRANCH   2  19
ATOM     19  C   UNL     1       1.856   2.353  18.432  0.00  0.00    +0.000 C 
ATOM     20  O   UNL     1       0.653   2.229  18.620  0.00  0.00    +0.000 OA
BRANCH  19  21
ATOM     21  O   UNL     1       2.565   1.382  17.815  0.00  0.00    +0.000 OA
ATOM     22  H   UNL     1       2.373   0.472  18.107  0.00  0.00    +0.000 HD
ENDBRANCH  19  21
ENDBRANCH   2  19
TORSDOF 3
ENDMDL
MODEL 9
REMARK VINA RESULT:      -6.3      1.025      1.248
REMARK  Name = 
REMARK  4 active torsions:
REMARK  status: ('A' for Active; 'I' for Inactive)
REMARK    1  A    between atoms: C_1  and  C_2
REMARK    2  A    between atoms: C_2  and  C_3
REMARK    3  A    between atoms: C_3  and  O_5
REMARK    4  A    between atoms: C_10  and  C_12
REMARK                            x       y       z     vdW  Elec       q    Type
REMARK                         _______ _______ _______ _____ _____    ______ ____
ROOT
ATOM      1  C   UNL     1       6.034   5.660  18.997  0.00  0.00    +0.000 C 
ATOM      2  C   UNL     1       5.963   5.671  17.458  0.00  0.00    +0.000 C 
ATOM      3  C   UNL     1       6.220   4.281  16.848  0.00  0.00    +0.000 C 
ATOM      4  C   UNL     1       5.099   3.291  17.176  0.00  0.00    +0.000 C 
ATOM      5  C   UNL     1       3.722   3.844  16.806  0.00  0.00    +0.000 C 
ATOM      6  N   UNL     1       3.512   5.181  17.364  0.00  0.00    +0.000 N 
ATOM      7  C   UNL     1       2.378   5.415  18.169  0.00  0.00    +0.000 C 
ATOM      8  O   UNL     1       1.654   4.465  18.482  0.00  0.00    +0.000 OA
ATOM      9  C   UNL     1       4.562   6.150  17.027  0.00  0.00    +0.000 C 
ENDROOT
BRANCH   7  10
ATOM     10  C   UNL     1       2.096   6.741  18.710  0.00  0.00    +0.000 A 
ATOM     11  C   UNL     1       2.079   7.925  17.988  0.00  0.00    +0.000 A 
ATOM     12  C   UNL     1       1.678   9.062  18.766  0.00  0.00    +0.000 A 
ATOM     13  C   UNL     1       1.459  10.411  18.396  0.00  0.00    +0.000 A 
ATOM     14  C   UNL     1       0.969  11.328  19.332  0.00  0.00    +0.000 A 
ATOM     15  C   UNL     1       0.682  10.922  20.629  0.00  0.00    +0.000 A 
ATOM     16  C   UNL     1       0.929   9.608  21.032  0.00  0.00    +0.000 A 
ATOM     17  C   UNL     1       1.456   8.701  20.094  0.00  0.00    +0.000 A 
ATOM     18  S   UNL     1       1.959   7.082  20.379  0.00  0.00    +0.000 S 
ENDBRANCH   7  10
BRANCH   2  19
ATOM     19  C   UNL     1       6.975   6.680  16.910  0.00  0.00    +0.000 C 
ATOM     20  O   UNL     1       7.124   7.817  17.337  0.00  0.00    +0.000 OA
BRANCH  19  21
ATOM     21  O   UNL     1       7.719   6.225  15.878  0.00  0.00    +0.000 OA
ATOM     22  H   UNL     1       7.244   6.117  15.033  0.00  0.00    +0.000 HD
ENDBRANCH  19  21
ENDBRANCH   2  19
TORSDOF 3
ENDMDL
