MODEL 1
REMARK VINA RESULT:      -8.9      0.000      0.000
REMARK  Name = 
REMARK  4 active torsions:
REMARK  status: ('A' for Active; 'I' for Inactive)
REMARK    1  A    between atoms: C_2  and  C_10
REMARK    2  A    between atoms: N_3  and  C_4
REMARK    3  A    between atoms: C_10  and  C_12
REMARK    4  A    between atoms: N_14  and  C_15
REMARK                            x       y       z     vdW  Elec       q    Type
REMARK                         _______ _______ _______ _____ _____    ______ ____
ROOT
ATOM      1  C   UNL     1       5.079   5.233  18.703  0.00  0.00    +0.000 A 
ATOM      2  C   UNL     1       4.489   6.404  19.134  0.00  0.00    +0.000 A 
ATOM      3  N   UNL     1       3.119   6.275  19.178  0.00  0.00    +0.000 N 
ATOM      4  C   UNL     1       2.802   4.977  18.768  0.00  0.00    +0.000 A 
ATOM      5  C   UNL     1       1.562   4.330  18.579  0.00  0.00    +0.000 A 
ATOM      6  C   UNL     1       1.548   2.995  18.169  0.00  0.00    +0.000 A 
ATOM      7  C   UNL     1       2.731   2.318  17.915  0.00  0.00    +0.000 A 
ATOM      8  C   UNL     1       3.960   2.970  18.049  0.00  0.00    +0.000 A 
ATOM      9  C   UNL     1       4.008   4.318  18.471  0.00  0.00    +0.000 A 
ENDROOT
BRANCH   3  10
ATOM     10  C   UNL     1       2.222   7.287  19.646  0.00  0.00    +0.000 A 
ATOM     11  C   UNL     1       1.623   7.121  20.909  0.00  0.00    +0.000 A 
ATOM     12  C   UNL     1       0.737   8.076  21.413  0.00  0.00    +0.000 A 
ATOM     13  C   UNL     1       0.463   9.222  20.676  0.00  0.00    +0.000 A 
ATOM     14 CL   UNL     1      -0.642  10.390  21.287  0.00  0.00    +0.000 Cl
ATOM     15  C   UNL     1       1.068   9.423  19.440  0.00  0.00    +0.000 A 
ATOM     16  C   UNL     1       1.939   8.458  18.913  0.00  0.00    +0.000 A 
ATOM     17 CL   UNL     1       2.475   8.762  17.294  0.00  0.00    +0.000 Cl
ENDBRANCH   3  10
BRANCH   1  18
ATOM     18  C   UNL     1       6.520   5.015  18.556  0.00  0.00    +0.000 C 
ATOM     19  O   UNL     1       7.316   5.134  19.487  0.00  0.00    +0.000 OA
BRANCH  18  21
ATOM     20  O   UNL     1       8.214   4.095  17.125  0.00  0.00    +0.000 OA
ATOM     21  C   UNL     1       7.112   4.622  17.182  0.00  0.00    +0.000 C 
ATOM     22  N   UNL     1       6.274   4.900  16.116  0.00  0.00    +0.000 N 
ATOM     23  H   UNL     1       5.357   5.269  16.363  0.00  0.00    +0.000 HD
BRANCH  22  24
ATOM     24  C   UNL     1       6.568   4.680  14.749  0.00  0.00    +0.000 A 
ATOM     25  C   UNL     1       7.539   5.391  14.049  0.00  0.00    +0.000 A 
ATOM     26  C   UNL     1       7.731   5.111  12.707  0.00  0.00    +0.000 A 
ATOM     27  N   UNL     1       7.033   4.186  12.026  0.00  0.00    +0.000 NA
ATOM     28  C   UNL     1       6.097   3.507  12.721  0.00  0.00    +0.000 A 
ATOM     29  C   UNL     1       5.830   3.713  14.065  0.00  0.00    +0.000 A 
ENDBRANCH  22  24
ENDBRANCH  18  21
ENDBRANCH   1  18
TORSDOF 4
ENDMDL
MODEL 2
REMARK VINA RESULT:      -8.9      1.108      1.524
REMARK  Name = 
REMARK  4 active torsions:
REMARK  status: ('A' for Active; 'I' for Inactive)
REMARK    1  A    between atoms: C_2  and  C_10
REMARK    2  A    between atoms: N_3  and  C_4
REMARK    3  A    between atoms: C_10  and  C_12
REMARK    4  A    between atoms: N_14  and  C_15
REMARK                            x       y       z     vdW  Elec       q    Type
REMARK                         _______ _______ _______ _____ _____    ______ ____
ROOT
ATOM      1  C   UNL     1       4.990   5.276  18.314  0.00  0.00    +0.000 A 
ATOM      2  C   UNL     1       4.511   6.560  18.477  0.00  0.00    +0.000 A 
ATOM      3  N   UNL     1       3.135   6.571  18.500  0.00  0.00    +0.000 N 
ATOM      4  C   UNL     1       2.699   5.251  18.353  0.00  0.00    +0.000 A 
ATOM      5  C   UNL     1       1.404   4.696  18.258  0.00  0.00    +0.000 A 
ATOM      6  C   UNL     1       1.265   3.313  18.129  0.00  0.00    +0.000 A 
ATOM      7  C   UNL     1       2.380   2.491  18.058  0.00  0.00    +0.000 A 
ATOM      8  C   UNL     1       3.665   3.040  18.098  0.00  0.00    +0.000 A 
ATOM      9  C   UNL     1       3.839   4.436  18.237  0.00  0.00    +0.000 A 
ENDROOT
BRANCH   3  10
ATOM     10  C   UNL     1       2.334   7.736  18.721  0.00  0.00    +0.000 A 
ATOM     11  C   UNL     1       2.258   8.701  17.700  0.00  0.00    +0.000 A 
ATOM     12  C   UNL     1       1.494   9.860  17.864  0.00  0.00    +0.000 A 
ATOM     13  C   UNL     1       0.774  10.052  19.037  0.00  0.00    +0.000 A 
ATOM     14 CL   UNL     1      -0.152  11.486  19.248  0.00  0.00    +0.000 Cl
ATOM     15  C   UNL     1       0.809   9.097  20.047  0.00  0.00    +0.000 A 
ATOM     16  C   UNL     1       1.594   7.943  19.903  0.00  0.00    +0.000 A 
ATOM     17 CL   UNL     1       1.677   6.935  21.309  0.00  0.00    +0.000 Cl
ENDBRANCH   3  10
BRANCH   1  18
ATOM     18  C   UNL     1       6.405   4.899  18.262  0.00  0.00    +0.000 C 
ATOM     19  O   UNL     1       7.117   4.826  19.264  0.00  0.00    +0.000 OA
BRANCH  18  21
ATOM     20  O   UNL     1       8.222   4.147  16.886  0.00  0.00    +0.000 OA
ATOM     21  C   UNL     1       7.077   4.578  16.907  0.00  0.00    +0.000 C 
ATOM     22  N   UNL     1       6.257   4.797  15.814  0.00  0.00    +0.000 N 
ATOM     23  H   UNL     1       5.303   5.083  16.032  0.00  0.00    +0.000 HD
BRANCH  22  24
ATOM     24  C   UNL     1       6.616   4.622  14.457  0.00  0.00    +0.000 A 
ATOM     25  C   UNL     1       7.593   5.381  13.818  0.00  0.00    +0.000 A 
ATOM     26  C   UNL     1       7.852   5.142  12.479  0.00  0.00    +0.000 A 
ATOM     27  N   UNL     1       7.216   4.212  11.746  0.00  0.00    +0.000 NA
ATOM     28  C   UNL     1       6.274   3.486  12.382  0.00  0.00    +0.000 A 
ATOM     29  C   UNL     1       5.941   3.650  13.718  0.00  0.00    +0.000 A 
ENDBRANCH  22  24
ENDBRANCH  18  21
ENDBRANCH   1  18
TORSDOF 4
ENDMDL
MODEL 3
REMARK VINA RESULT:      -8.4      1.322      1.628
REMARK  Name = 
REMARK  4 active torsions:
REMARK  status: ('A' for Active; 'I' for Inactive)
REMARK    1  A    between atoms: C_2  and  C_10
REMARK    2  A    between atoms: N_3  and  C_4
REMARK    3  A    between atoms: C_10  and  C_12
REMARK    4  A    between atoms: N_14  and  C_15
REMARK                            x       y       z     vdW  Elec       q    Type
REMARK                         _______ _______ _______ _____ _____    ______ ____
ROOT
ATOM      1  C   UNL     1       4.187   5.381  18.761  0.00  0.00    +0.000 A 
ATOM      2  C   UNL     1       3.719   6.657  18.996  0.00  0.00    +0.000 A 
ATOM      3  N   UNL     1       2.518   6.623  19.669  0.00  0.00    +0.000 N 
ATOM      4  C   UNL     1       2.192   5.280  19.885  0.00  0.00    +0.000 A 
ATOM      5  C   UNL     1       1.062   4.673  20.474  0.00  0.00    +0.000 A 
ATOM      6  C   UNL     1       1.012   3.281  20.571  0.00  0.00    +0.000 A 
ATOM      7  C   UNL     1       2.039   2.497  20.065  0.00  0.00    +0.000 A 
ATOM      8  C   UNL     1       3.135   3.091  19.433  0.00  0.00    +0.000 A 
ATOM      9  C   UNL     1       3.219   4.498  19.327  0.00  0.00    +0.000 A 
ENDROOT
BRANCH   3  10
ATOM     10  C   UNL     1       1.805   7.779  20.120  0.00  0.00    +0.000 A 
ATOM     11  C   UNL     1       1.450   7.859  21.480  0.00  0.00    +0.000 A 
ATOM     12  C   UNL     1       0.751   8.963  21.974  0.00  0.00    +0.000 A 
ATOM     13  C   UNL     1       0.425  10.013  21.122  0.00  0.00    +0.000 A 
ATOM     14 CL   UNL     1      -0.451  11.364  21.725  0.00  0.00    +0.000 Cl
ATOM     15  C   UNL     1       0.794   9.969  19.782  0.00  0.00    +0.000 A 
ATOM     16  C   UNL     1       1.472   8.853  19.271  0.00  0.00    +0.000 A 
ATOM     17 CL   UNL     1       1.707   8.864  17.554  0.00  0.00    +0.000 Cl
ENDBRANCH   3  10
BRANCH   1  18
ATOM     18  C   UNL     1       5.443   5.051  18.084  0.00  0.00    +0.000 C 
ATOM     19  O   UNL     1       6.407   4.549  18.663  0.00  0.00    +0.000 OA
BRANCH  18  21
ATOM     20  O   UNL     1       5.171   6.374  16.099  0.00  0.00    +0.000 OA
ATOM     21  C   UNL     1       5.613   5.336  16.573  0.00  0.00    +0.000 C 
ATOM     22  N   UNL     1       6.305   4.348  15.895  0.00  0.00    +0.000 N 
ATOM     23  H   UNL     1       6.667   3.590  16.473  0.00  0.00    +0.000 HD
BRANCH  22  24
ATOM     24  C   UNL     1       6.577   4.327  14.506  0.00  0.00    +0.000 A 
ATOM     25  C   UNL     1       5.924   3.487  13.609  0.00  0.00    +0.000 A 
ATOM     26  C   UNL     1       6.282   3.532  12.273  0.00  0.00    +0.000 A 
ATOM     27  N   UNL     1       7.231   4.345  11.777  0.00  0.00    +0.000 NA
ATOM     28  C   UNL     1       7.852   5.153  12.661  0.00  0.00    +0.000 A 
ATOM     29  C   UNL     1       7.566   5.182  14.017  0.00  0.00    +0.000 A 
ENDBRANCH  22  24
ENDBRANCH  18  21
ENDBRANCH   1  18
TORSDOF 4
ENDMDL
MODEL 4
REMARK VINA RESULT:      -8.0      4.492      7.212
REMARK  Name = 
REMARK  4 active torsions:
REMARK  status: ('A' for Active; 'I' for Inactive)
REMARK    1  A    between atoms: C_2  and  C_10
REMARK    2  A    between atoms: N_3  and  C_4
REMARK    3  A    between atoms: C_10  and  C_12
REMARK    4  A    between atoms: N_14  and  C_15
REMARK                            x       y       z     vdW  Elec       q    Type
REMARK                         _______ _______ _______ _____ _____    ______ ____
ROOT
ATOM      1  C   UNL     1       0.401  10.198  19.237  0.00  0.00    +0.000 A 
ATOM      2  C   UNL     1      -0.961  10.116  19.036  0.00  0.00    +0.000 A 
ATOM      3  N   UNL     1      -1.487  11.353  18.732  0.00  0.00    +0.000 N 
ATOM      4  C   UNL     1      -0.433  12.271  18.730  0.00  0.00    +0.000 A 
ATOM      5  C   UNL     1      -0.408  13.669  18.534  0.00  0.00    +0.000 A 
ATOM      6  C   UNL     1       0.816  14.339  18.572  0.00  0.00    +0.000 A 
ATOM      7  C   UNL     1       1.993  13.652  18.833  0.00  0.00    +0.000 A 
ATOM      8  C   UNL     1       1.968  12.277  19.081  0.00  0.00    +0.000 A 
ATOM      9  C   UNL     1       0.745  11.569  19.041  0.00  0.00    +0.000 A 
ENDROOT
BRANCH   3  10
ATOM     10  C   UNL     1      -2.858  11.595  18.403  0.00  0.00    +0.000 A 
ATOM     11  C   UNL     1      -3.702  12.127  19.396  0.00  0.00    +0.000 A 
ATOM     12  C   UNL     1      -5.051  12.380  19.130  0.00  0.00    +0.000 A 
ATOM     13  C   UNL     1      -5.563  12.133  17.862  0.00  0.00    +0.000 A 
ATOM     14 CL   UNL     1      -7.226  12.426  17.539  0.00  0.00    +0.000 Cl
ATOM     15  C   UNL     1      -4.740  11.637  16.856  0.00  0.00    +0.000 A 
ATOM     16  C   UNL     1      -3.392  11.355  17.121  0.00  0.00    +0.000 A 
ATOM     17 CL   UNL     1      -2.539  10.580  15.827  0.00  0.00    +0.000 Cl
ENDBRANCH   3  10
BRANCH   1  18
ATOM     18  C   UNL     1       1.279   9.070  19.560  0.00  0.00    +0.000 C 
ATOM     19  O   UNL     1       1.444   8.654  20.707  0.00  0.00    +0.000 OA
BRANCH  18  21
ATOM     20  O   UNL     1       2.145   8.856  17.331  0.00  0.00    +0.000 OA
ATOM     21  C   UNL     1       2.059   8.344  18.439  0.00  0.00    +0.000 C 
ATOM     22  N   UNL     1       2.626   7.147  18.841  0.00  0.00    +0.000 N 
ATOM     23  H   UNL     1       2.514   6.919  19.828  0.00  0.00    +0.000 HD
BRANCH  22  24
ATOM     24  C   UNL     1       3.362   6.260  18.021  0.00  0.00    +0.000 A 
ATOM     25  C   UNL     1       4.520   6.626  17.340  0.00  0.00    +0.000 A 
ATOM     26  C   UNL     1       5.152   5.685  16.546  0.00  0.00    +0.000 A 
ATOM     27  N   UNL     1       4.716   4.422  16.388  0.00  0.00    +0.000 NA
ATOM     28  C   UNL     1       3.594   4.085  17.056  0.00  0.00    +0.000 A 
ATOM     29  C   UNL     1       2.890   4.955  17.874  0.00  0.00    +0.000 A 
ENDBRANCH  22  24
ENDBRANCH  18  21
ENDBRANCH   1  18
TORSDOF 4
ENDMDL
MODEL 5
REMARK VINA RESULT:      -7.8      1.592      2.129
REMARK  Name = 
REMARK  4 active torsions:
REMARK  status: ('A' for Active; 'I' for Inactive)
REMARK    1  A    between atoms: C_2  and  C_10
REMARK    2  A    between atoms: N_3  and  C_4
REMARK    3  A    between atoms: C_10  and  C_12
REMARK    4  A    between atoms: N_14  and  C_15
REMARK                            x       y       z     vdW  Elec       q    Type
REMARK                         _______ _______ _______ _____ _____    ______ ____
ROOT
ATOM      1  C   UNL     1       4.478   5.506  18.663  0.00  0.00    +0.000 A 
ATOM      2  C   UNL     1       3.926   6.756  18.466  0.00  0.00    +0.000 A 
ATOM      3  N   UNL     1       2.673   6.833  19.033  0.00  0.00    +0.000 N 
ATOM      4  C   UNL     1       2.399   5.597  19.624  0.00  0.00    +0.000 A 
ATOM      5  C   UNL     1       1.254   5.110  20.291  0.00  0.00    +0.000 A 
ATOM      6  C   UNL     1       1.267   3.811  20.803  0.00  0.00    +0.000 A 
ATOM      7  C   UNL     1       2.373   2.992  20.632  0.00  0.00    +0.000 A 
ATOM      8  C   UNL     1       3.489   3.450  19.926  0.00  0.00    +0.000 A 
ATOM      9  C   UNL     1       3.510   4.763  19.403  0.00  0.00    +0.000 A 
ENDROOT
BRANCH   3  10
ATOM     10  C   UNL     1       1.865   8.015  19.062  0.00  0.00    +0.000 A 
ATOM     11  C   UNL     1       1.504   8.609  17.839  0.00  0.00    +0.000 A 
ATOM     12  C   UNL     1       0.720   9.766  17.808  0.00  0.00    +0.000 A 
ATOM     13  C   UNL     1       0.262  10.322  18.997  0.00  0.00    +0.000 A 
ATOM     14 CL   UNL     1      -0.688  11.755  18.962  0.00  0.00    +0.000 Cl
ATOM     15  C   UNL     1       0.580   9.733  20.216  0.00  0.00    +0.000 A 
ATOM     16  C   UNL     1       1.389   8.587  20.258  0.00  0.00    +0.000 A 
ATOM     17 CL   UNL     1       1.845   8.072  21.849  0.00  0.00    +0.000 Cl
ENDBRANCH   3  10
BRANCH   1  18
ATOM     18  C   UNL     1       5.804   5.085  18.206  0.00  0.00    +0.000 C 
ATOM     19  O   UNL     1       6.605   4.492  18.929  0.00  0.00    +0.000 OA
BRANCH  18  21
ATOM     20  O   UNL     1       6.681   6.499  16.477  0.00  0.00    +0.000 OA
ATOM     21  C   UNL     1       6.263   5.385  16.760  0.00  0.00    +0.000 C 
ATOM     22  N   UNL     1       6.170   4.297  15.910  0.00  0.00    +0.000 N 
ATOM     23  H   UNL     1       5.872   3.425  16.345  0.00  0.00    +0.000 HD
BRANCH  22  24
ATOM     24  C   UNL     1       6.486   4.291  14.531  0.00  0.00    +0.000 A 
ATOM     25  C   UNL     1       5.835   3.489  13.598  0.00  0.00    +0.000 A 
ATOM     26  C   UNL     1       6.238   3.544  12.275  0.00  0.00    +0.000 A 
ATOM     27  N   UNL     1       7.230   4.333  11.825  0.00  0.00    +0.000 NA
ATOM     28  C   UNL     1       7.849   5.103  12.743  0.00  0.00    +0.000 A 
ATOM     29  C   UNL     1       7.519   5.119  14.089  0.00  0.00    +0.000 A 
ENDBRANCH  22  24
ENDBRANCH  18  21
ENDBRANCH   1  18
TORSDOF 4
ENDMDL
MODEL 6
REMARK VINA RESULT:      -7.8      4.147      7.138
REMARK  Name = 
REMARK  4 active torsions:
REMARK  status: ('A' for Active; 'I' for Inactive)
REMARK    1  A    between atoms: C_2  and  C_10
REMARK    2  A    between atoms: N_3  and  C_4
REMARK    3  A    between atoms: C_10  and  C_12
REMARK    4  A    between atoms: N_14  and  C_15
REMARK                            x       y       z     vdW  Elec       q    Type
REMARK                         _______ _______ _______ _____ _____    ______ ____
ROOT
ATOM      1  C   UNL     1       0.637  10.335  18.804  0.00  0.00    +0.000 A 
ATOM      2  C   UNL     1       0.802  11.235  19.837  0.00  0.00    +0.000 A 
ATOM      3  N   UNL     1      -0.373  11.905  20.095  0.00  0.00    +0.000 N 
ATOM      4  C   UNL     1      -1.339  11.425  19.205  0.00  0.00    +0.000 A 
ATOM      5  C   UNL     1      -2.686  11.791  18.996  0.00  0.00    +0.000 A 
ATOM      6  C   UNL     1      -3.431  11.115  18.028  0.00  0.00    +0.000 A 
ATOM      7  C   UNL     1      -2.853  10.119  17.255  0.00  0.00    +0.000 A 
ATOM      8  C   UNL     1      -1.505   9.788  17.422  0.00  0.00    +0.000 A 
ATOM      9  C   UNL     1      -0.726  10.449  18.399  0.00  0.00    +0.000 A 
ENDROOT
BRANCH   3  10
ATOM     10  C   UNL     1      -0.553  12.857  21.149  0.00  0.00    +0.000 A 
ATOM     11  C   UNL     1      -0.301  14.214  20.877  0.00  0.00    +0.000 A 
ATOM     12  C   UNL     1      -0.456  15.185  21.870  0.00  0.00    +0.000 A 
ATOM     13  C   UNL     1      -0.895  14.814  23.136  0.00  0.00    +0.000 A 
ATOM     14 CL   UNL     1      -1.069  16.005  24.364  0.00  0.00    +0.000 Cl
ATOM     15  C   UNL     1      -1.181  13.483  23.418  0.00  0.00    +0.000 A 
ATOM     16  C   UNL     1      -1.002  12.498  22.436  0.00  0.00    +0.000 A 
ATOM     17 CL   UNL     1      -1.228  10.869  22.984  0.00  0.00    +0.000 Cl
ENDBRANCH   3  10
BRANCH   1  18
ATOM     18  C   UNL     1       1.678   9.445  18.283  0.00  0.00    +0.000 C 
ATOM     19  O   UNL     1       2.347   9.708  17.284  0.00  0.00    +0.000 OA
BRANCH  18  21
ATOM     20  O   UNL     1       1.698   7.959  20.168  0.00  0.00    +0.000 OA
ATOM     21  C   UNL     1       1.976   8.100  18.985  0.00  0.00    +0.000 C 
ATOM     22  N   UNL     1       2.526   7.145  18.147  0.00  0.00    +0.000 N 
ATOM     23  H   UNL     1       2.613   7.418  17.169  0.00  0.00    +0.000 HD
BRANCH  22  24
ATOM     24  C   UNL     1       2.930   5.842  18.523  0.00  0.00    +0.000 A 
ATOM     25  C   UNL     1       4.202   5.541  19.002  0.00  0.00    +0.000 A 
ATOM     26  C   UNL     1       4.500   4.228  19.321  0.00  0.00    +0.000 A 
ATOM     27  N   UNL     1       3.630   3.210  19.200  0.00  0.00    +0.000 NA
ATOM     28  C   UNL     1       2.402   3.521  18.736  0.00  0.00    +0.000 A 
ATOM     29  C   UNL     1       2.008   4.804  18.388  0.00  0.00    +0.000 A 
ENDBRANCH  22  24
ENDBRANCH  18  21
ENDBRANCH   1  18
TORSDOF 4
ENDMDL
MODEL 7
REMARK VINA RESULT:      -7.7      4.432      7.340
REMARK  Name = 
REMARK  4 active torsions:
REMARK  status: ('A' for Active; 'I' for Inactive)
REMARK    1  A    between atoms: C_2  and  C_10
REMARK    2  A    between atoms: N_3  and  C_4
REMARK    3  A    between atoms: C_10  and  C_12
REMARK    4  A    between atoms: N_14  and  C_15
REMARK                            x       y       z     vdW  Elec       q    Type
REMARK                         _______ _______ _______ _____ _____    ______ ____
ROOT
ATOM      1  C   UNL     1       0.406  10.241  19.279  0.00  0.00    +0.000 A 
ATOM      2  C   UNL     1      -0.964  10.183  19.118  0.00  0.00    +0.000 A 
ATOM      3  N   UNL     1      -1.477  11.427  18.825  0.00  0.00    +0.000 N 
ATOM      4  C   UNL     1      -0.408  12.327  18.788  0.00  0.00    +0.000 A 
ATOM      5  C   UNL     1      -0.365  13.723  18.585  0.00  0.00    +0.000 A 
ATOM      6  C   UNL     1       0.871  14.373  18.585  0.00  0.00    +0.000 A 
ATOM      7  C   UNL     1       2.043  13.667  18.814  0.00  0.00    +0.000 A 
ATOM      8  C   UNL     1       2.002  12.293  19.068  0.00  0.00    +0.000 A 
ATOM      9  C   UNL     1       0.767  11.606  19.067  0.00  0.00    +0.000 A 
ENDROOT
BRANCH   3  10
ATOM     10  C   UNL     1      -2.853  11.691  18.536  0.00  0.00    +0.000 A 
ATOM     11  C   UNL     1      -3.345  11.362  17.259  0.00  0.00    +0.000 A 
ATOM     12  C   UNL     1      -4.679  11.602  16.921  0.00  0.00    +0.000 A 
ATOM     13  C   UNL     1      -5.544  12.144  17.865  0.00  0.00    +0.000 A 
ATOM     14 CL   UNL     1      -7.182  12.457  17.445  0.00  0.00    +0.000 Cl
ATOM     15  C   UNL     1      -5.088  12.447  19.143  0.00  0.00    +0.000 A 
ATOM     16  C   UNL     1      -3.744  12.235  19.483  0.00  0.00    +0.000 A 
ATOM     17 CL   UNL     1      -3.284  12.822  21.047  0.00  0.00    +0.000 Cl
ENDBRANCH   3  10
BRANCH   1  18
ATOM     18  C   UNL     1       1.273   9.100  19.580  0.00  0.00    +0.000 C 
ATOM     19  O   UNL     1       1.418   8.649  20.717  0.00  0.00    +0.000 OA
BRANCH  18  21
ATOM     20  O   UNL     1       2.133   8.927  17.346  0.00  0.00    +0.000 OA
ATOM     21  C   UNL     1       2.066   8.404  18.450  0.00  0.00    +0.000 C 
ATOM     22  N   UNL     1       2.667   7.220  18.839  0.00  0.00    +0.000 N 
ATOM     23  H   UNL     1       2.567   6.981  19.825  0.00  0.00    +0.000 HD
BRANCH  22  24
ATOM     24  C   UNL     1       3.423   6.359  18.009  0.00  0.00    +0.000 A 
ATOM     25  C   UNL     1       4.510   6.784  17.250  0.00  0.00    +0.000 A 
ATOM     26  C   UNL     1       5.167   5.863  16.453  0.00  0.00    +0.000 A 
ATOM     27  N   UNL     1       4.821   4.566  16.363  0.00  0.00    +0.000 NA
ATOM     28  C   UNL     1       3.767   4.172  17.107  0.00  0.00    +0.000 A 
ATOM     29  C   UNL     1       3.044   5.018  17.934  0.00  0.00    +0.000 A 
ENDBRANCH  22  24
ENDBRANCH  18  21
ENDBRANCH   1  18
TORSDOF 4
ENDMDL
MODEL 8
REMARK VINA RESULT:      -7.7      4.091      6.955
REMARK  Name = 
REMARK  4 active torsions:
REMARK  status: ('A' for Active; 'I' for Inactive)
REMARK    1  A    between atoms: C_2  and  C_10
REMARK    2  A    between atoms: N_3  and  C_4
REMARK    3  A    between atoms: C_10  and  C_12
REMARK    4  A    between atoms: N_14  and  C_15
REMARK                            x       y       z     vdW  Elec       q    Type
REMARK                         _______ _______ _______ _____ _____    ______ ____
ROOT
ATOM      1  C   UNL     1       0.625  10.025  18.744  0.00  0.00    +0.000 A 
ATOM      2  C   UNL     1       0.751  10.829  19.858  0.00  0.00    +0.000 A 
ATOM      3  N   UNL     1      -0.407  11.539  20.083  0.00  0.00    +0.000 N 
ATOM      4  C   UNL     1      -1.322  11.184  19.088  0.00  0.00    +0.000 A 
ATOM      5  C   UNL     1      -2.629  11.639  18.811  0.00  0.00    +0.000 A 
ATOM      6  C   UNL     1      -3.328  11.084  17.738  0.00  0.00    +0.000 A 
ATOM      7  C   UNL     1      -2.741  10.123  16.929  0.00  0.00    +0.000 A 
ATOM      8  C   UNL     1      -1.427   9.708  17.166  0.00  0.00    +0.000 A 
ATOM      9  C   UNL     1      -0.696  10.245  18.250  0.00  0.00    +0.000 A 
ENDROOT
BRANCH   3  10
ATOM     10  C   UNL     1      -0.622  12.412  21.198  0.00  0.00    +0.000 A 
ATOM     11  C   UNL     1      -1.379  11.937  22.284  0.00  0.00    +0.000 A 
ATOM     12  C   UNL     1      -1.623  12.748  23.397  0.00  0.00    +0.000 A 
ATOM     13  C   UNL     1      -1.087  14.029  23.448  0.00  0.00    +0.000 A 
ATOM     14 CL   UNL     1      -1.401  15.034  24.808  0.00  0.00    +0.000 Cl
ATOM     15  C   UNL     1      -0.309  14.508  22.400  0.00  0.00    +0.000 A 
ATOM     16  C   UNL     1      -0.080  13.711  21.268  0.00  0.00    +0.000 A 
ATOM     17 CL   UNL     1       0.755  14.504  19.973  0.00  0.00    +0.000 Cl
ENDBRANCH   3  10
BRANCH   1  18
ATOM     18  C   UNL     1       1.659   9.124  18.228  0.00  0.00    +0.000 C 
ATOM     19  O   UNL     1       2.262   9.328  17.175  0.00  0.00    +0.000 OA
BRANCH  18  21
ATOM     20  O   UNL     1       1.844   7.788  20.214  0.00  0.00    +0.000 OA
ATOM     21  C   UNL     1       2.034   7.842  19.006  0.00  0.00    +0.000 C 
ATOM     22  N   UNL     1       2.545   6.834  18.206  0.00  0.00    +0.000 N 
ATOM     23  H   UNL     1       2.557   7.033  17.206  0.00  0.00    +0.000 HD
BRANCH  22  24
ATOM     24  C   UNL     1       3.002   5.571  18.650  0.00  0.00    +0.000 A 
ATOM     25  C   UNL     1       2.151   4.519  18.977  0.00  0.00    +0.000 A 
ATOM     26  C   UNL     1       2.702   3.330  19.423  0.00  0.00    +0.000 A 
ATOM     27  N   UNL     1       4.023   3.121  19.562  0.00  0.00    +0.000 NA
ATOM     28  C   UNL     1       4.832   4.151  19.240  0.00  0.00    +0.000 A 
ATOM     29  C   UNL     1       4.377   5.380  18.786  0.00  0.00    +0.000 A 
ENDBRANCH  22  24
ENDBRANCH  18  21
ENDBRANCH   1  18
TORSDOF 4
ENDMDL
MODEL 9
REMARK VINA RESULT:      -7.7      4.426      7.475
REMARK  Name = 
REMARK  4 active torsions:
REMARK  status: ('A' for Active; 'I' for Inactive)
REMARK    1  A    between atoms: C_2  and  C_10
REMARK    2  A    between atoms: N_3  and  C_4
REMARK    3  A    between atoms: C_10  and  C_12
REMARK    4  A    between atoms: N_14  and  C_15
REMARK                            x       y       z     vdW  Elec       q    Type
REMARK                         _______ _______ _______ _____ _____    ______ ____
ROOT
ATOM      1  C   UNL     1       0.355  10.224  19.769  0.00  0.00    +0.000 A 
ATOM      2  C   UNL     1      -1.001  10.154  19.525  0.00  0.00    +0.000 A 
ATOM      3  N   UNL     1      -1.472  11.350  19.031  0.00  0.00    +0.000 N 
ATOM      4  C   UNL     1      -0.388  12.228  18.944  0.00  0.00    +0.000 A 
ATOM      5  C   UNL     1      -0.308  13.584  18.557  0.00  0.00    +0.000 A 
ATOM      6  C   UNL     1       0.936  14.217  18.552  0.00  0.00    +0.000 A 
ATOM      7  C   UNL     1       2.078  13.540  18.955  0.00  0.00    +0.000 A 
ATOM      8  C   UNL     1       1.996  12.215  19.390  0.00  0.00    +0.000 A 
ATOM      9  C   UNL     1       0.753  11.543  19.398  0.00  0.00    +0.000 A 
ENDROOT
BRANCH   3  10
ATOM     10  C   UNL     1      -2.822  11.583  18.614  0.00  0.00    +0.000 A 
ATOM     11  C   UNL     1      -3.703  12.208  19.515  0.00  0.00    +0.000 A 
ATOM     12  C   UNL     1      -5.032  12.457  19.162  0.00  0.00    +0.000 A 
ATOM     13  C   UNL     1      -5.486  12.111  17.894  0.00  0.00    +0.000 A 
ATOM     14 CL   UNL     1      -7.126  12.399  17.465  0.00  0.00    +0.000 Cl
ATOM     15  C   UNL     1      -4.624  11.521  16.976  0.00  0.00    +0.000 A 
ATOM     16  C   UNL     1      -3.296  11.243  17.331  0.00  0.00    +0.000 A 
ATOM     17 CL   UNL     1      -2.396  10.350  16.150  0.00  0.00    +0.000 Cl
ENDBRANCH   3  10
BRANCH   1  18
ATOM     18  C   UNL     1       1.181   9.127  20.282  0.00  0.00    +0.000 C 
ATOM     19  O   UNL     1       1.325   8.901  21.484  0.00  0.00    +0.000 OA
BRANCH  18  21
ATOM     20  O   UNL     1       2.240   8.600  18.194  0.00  0.00    +0.000 OA
ATOM     21  C   UNL     1       1.929   8.192  19.304  0.00  0.00    +0.000 C 
ATOM     22  N   UNL     1       2.203   6.941  19.830  0.00  0.00    +0.000 N 
ATOM     23  H   UNL     1       1.936   6.808  20.805  0.00  0.00    +0.000 HD
BRANCH  22  24
ATOM     24  C   UNL     1       2.842   5.877  19.153  0.00  0.00    +0.000 A 
ATOM     25  C   UNL     1       2.217   5.100  18.182  0.00  0.00    +0.000 A 
ATOM     26  C   UNL     1       2.928   4.067  17.595  0.00  0.00    +0.000 A 
ATOM     27  N   UNL     1       4.200   3.761  17.905  0.00  0.00    +0.000 NA
ATOM     28  C   UNL     1       4.790   4.526  18.847  0.00  0.00    +0.000 A 
ATOM     29  C   UNL     1       4.163   5.580  19.492  0.00  0.00    +0.000 A 
ENDBRANCH  22  24
ENDBRANCH  18  21
ENDBRANCH   1  18
TORSDOF 4
ENDMDL
