MODEL 1
REMARK VINA RESULT:      -6.4      0.000      0.000
REMARK  Name = 
REMARK  14 active torsions:
REMARK  status: ('A' for Active; 'I' for Inactive)
REMARK    1  A    between atoms: C_2  and  C_3
REMARK    2  A    between atoms: C_3  and  C_4
REMARK    3  A    between atoms: C_4  and  O_5
REMARK    4  A    between atoms: O_5  and  C_6
REMARK    5  A    between atoms: C_7  and  O_8
REMARK    6  A    between atoms: O_8  and  C_9
REMARK    7  A    between atoms: C_11  and  N_12
REMARK    8  A    between atoms: N_12  and  C_13
REMARK    9  A    between atoms: C_13  and  C_14
REMARK   10  A    between atoms: C_13  and  C_15
REMARK   11  A    between atoms: C_15  and  C_16
REMARK   12  A    between atoms: C_16  and  C_17
REMARK   13  A    between atoms: C_17  and  N_18
REMARK   14  A    between atoms: C_23  and  C_24
REMARK                            x       y       z     vdW  Elec       q    Type
REMARK                         _______ _______ _______ _____ _____    ______ ____
ROOT
ATOM      1  C   UNL     1       3.157   4.978  20.141  0.00  0.00    +0.000 A 
ATOM      2  C   UNL     1       3.984   3.986  19.548  0.00  0.00    +0.000 A 
ATOM      3  C   UNL     1       4.535   4.223  18.303  0.00  0.00    +0.000 A 
ATOM      4  C   UNL     1       4.299   5.412  17.623  0.00  0.00    +0.000 A 
ATOM      5  C   UNL     1       3.400   6.368  18.138  0.00  0.00    +0.000 A 
ATOM      6  N   UNL     1       3.143   7.392  17.299  0.00  0.00    +0.000 NA
ATOM      7  C   UNL     1       2.309   8.364  17.685  0.00  0.00    +0.000 A 
ATOM      8  C   UNL     1       1.792   8.440  18.947  0.00  0.00    +0.000 A 
ATOM      9  C   UNL     1       2.108   7.434  19.873  0.00  0.00    +0.000 A 
ATOM     10  C   UNL     1       1.601   7.752  21.258  0.00  0.00    +0.000 C 
ATOM     11  C   UNL     1       2.858   6.245  19.457  0.00  0.00    +0.000 A 
ENDROOT
BRANCH   2  12
ATOM     12  O   UNL     1       4.247   2.822  20.240  0.00  0.00    +0.000 OA
ATOM     13  C   UNL     1       4.329   1.615  19.473  0.00  0.00    +0.000 C 
ENDBRANCH   2  12
BRANCH   4  14
ATOM     14  N   UNL     1       4.935   5.610  16.359  0.00  0.00    +0.000 N 
ATOM     15  H   UNL     1       4.846   6.601  16.114  0.00  0.00    +0.000 HD
BRANCH  14  16
ATOM     16  C   UNL     1       6.291   5.050  16.200  0.00  0.00    +0.000 C 
ATOM     17  C   UNL     1       6.621   5.007  14.708  0.00  0.00    +0.000 C 
BRANCH  16  18
ATOM     18  C   UNL     1       7.347   5.858  16.965  0.00  0.00    +0.000 C 
BRANCH  18  19
ATOM     19  C   UNL     1       7.856   5.128  18.215  0.00  0.00    +0.000 C 
BRANCH  19  20
ATOM     20  C   UNL     1       7.682   5.949  19.492  0.00  0.00    +0.000 C 
BRANCH  20  21
ATOM     21  N   UNL     1       8.249   5.272  20.653  0.00  0.00    +0.000 NA
ATOM     22  H   UNL     1       7.515   5.098  21.339  0.00  0.00    +0.000 HD
ATOM     23  H   UNL     1       8.922   5.890  21.106  0.00  0.00    +0.000 HD
ENDBRANCH  20  21
ENDBRANCH  19  20
ENDBRANCH  18  19
ENDBRANCH  16  18
ENDBRANCH  14  16
ENDBRANCH   4  14
BRANCH   1  24
ATOM     24  O   UNL     1       2.700   4.582  21.386  0.00  0.00    +0.000 OA
BRANCH  24  25
ATOM     25  C   UNL     1       1.613   3.673  21.441  0.00  0.00    +0.000 C 
BRANCH  25  26
ATOM     26  C   UNL     1       0.612   3.800  20.299  0.00  0.00    +0.000 C 
BRANCH  26  28
ATOM     27  C   UNL     1       1.140   2.462  18.245  0.00  0.00    +0.000 C 
ATOM     28  C   UNL     1       0.554   2.577  19.446  0.00  0.00    +0.000 C 
ENDBRANCH  26  28
ENDBRANCH  25  26
ENDBRANCH  24  25
ENDBRANCH   1  24
TORSDOF 11
ENDMDL
MODEL 2
REMARK VINA RESULT:      -6.1      2.657      6.384
REMARK  Name = 
REMARK  14 active torsions:
REMARK  status: ('A' for Active; 'I' for Inactive)
REMARK    1  A    between atoms: C_2  and  C_3
REMARK    2  A    between atoms: C_3  and  C_4
REMARK    3  A    between atoms: C_4  and  O_5
REMARK    4  A    between atoms: O_5  and  C_6
REMARK    5  A    between atoms: C_7  and  O_8
REMARK    6  A    between atoms: O_8  and  C_9
REMARK    7  A    between atoms: C_11  and  N_12
REMARK    8  A    between atoms: N_12  and  C_13
REMARK    9  A    between atoms: C_13  and  C_14
REMARK   10  A    between atoms: C_13  and  C_15
REMARK   11  A    between atoms: C_15  and  C_16
REMARK   12  A    between atoms: C_16  and  C_17
REMARK   13  A    between atoms: C_17  and  N_18
REMARK   14  A    between atoms: C_23  and  C_24
REMARK                            x       y       z     vdW  Elec       q    Type
REMARK                         _______ _______ _______ _____ _____    ______ ____
ROOT
ATOM      1  C   UNL     1       3.641   4.905  17.621  0.00  0.00    +0.000 A 
ATOM      2  C   UNL     1       3.857   6.309  17.587  0.00  0.00    +0.000 A 
ATOM      3  C   UNL     1       3.316   7.099  18.583  0.00  0.00    +0.000 A 
ATOM      4  C   UNL     1       2.567   6.548  19.615  0.00  0.00    +0.000 A 
ATOM      5  C   UNL     1       2.247   5.175  19.618  0.00  0.00    +0.000 A 
ATOM      6  N   UNL     1       1.381   4.812  20.586  0.00  0.00    +0.000 NA
ATOM      7  C   UNL     1       1.012   3.530  20.689  0.00  0.00    +0.000 A 
ATOM      8  C   UNL     1       1.564   2.536  19.934  0.00  0.00    +0.000 A 
ATOM      9  C   UNL     1       2.531   2.869  18.973  0.00  0.00    +0.000 A 
ATOM     10  C   UNL     1       3.161   1.648  18.348  0.00  0.00    +0.000 C 
ATOM     11  C   UNL     1       2.839   4.272  18.679  0.00  0.00    +0.000 A 
ENDROOT
BRANCH   2  12
ATOM     12  O   UNL     1       4.632   6.850  16.581  0.00  0.00    +0.000 OA
ATOM     13  C   UNL     1       5.942   7.302  16.943  0.00  0.00    +0.000 C 
ENDBRANCH   2  12
BRANCH   4  14
ATOM     14  N   UNL     1       2.072   7.417  20.636  0.00  0.00    +0.000 N 
ATOM     15  H   UNL     1       2.865   7.947  21.010  0.00  0.00    +0.000 HD
BRANCH  14  16
ATOM     16  C   UNL     1       0.885   8.228  20.301  0.00  0.00    +0.000 C 
ATOM     17  C   UNL     1       0.121   8.517  21.595  0.00  0.00    +0.000 C 
BRANCH  16  18
ATOM     18  C   UNL     1       1.256   9.535  19.589  0.00  0.00    +0.000 C 
BRANCH  18  19
ATOM     19  C   UNL     1       0.140  10.585  19.667  0.00  0.00    +0.000 C 
BRANCH  19  20
ATOM     20  C   UNL     1       0.465  11.854  18.880  0.00  0.00    +0.000 C 
BRANCH  20  21
ATOM     21  N   UNL     1       1.727  11.738  18.159  0.00  0.00    +0.000 NA
ATOM     22  H   UNL     1       1.574  11.928  17.170  0.00  0.00    +0.000 HD
ATOM     23  H   UNL     1       2.059  10.776  18.216  0.00  0.00    +0.000 HD
ENDBRANCH  20  21
ENDBRANCH  19  20
ENDBRANCH  18  19
ENDBRANCH  16  18
ENDBRANCH  14  16
ENDBRANCH   4  14
BRANCH   1  24
ATOM     24  O   UNL     1       4.260   4.269  16.559  0.00  0.00    +0.000 OA
BRANCH  24  25
ATOM     25  C   UNL     1       5.573   3.769  16.752  0.00  0.00    +0.000 C 
BRANCH  25  26
ATOM     26  C   UNL     1       6.496   3.912  15.548  0.00  0.00    +0.000 C 
BRANCH  26  28
ATOM     27  C   UNL     1       6.029   3.713  13.091  0.00  0.00    +0.000 C 
ATOM     28  C   UNL     1       5.760   4.245  14.294  0.00  0.00    +0.000 C 
ENDBRANCH  26  28
ENDBRANCH  25  26
ENDBRANCH  24  25
ENDBRANCH   1  24
TORSDOF 11
ENDMDL
MODEL 3
REMARK VINA RESULT:      -6.1      2.699      6.319
REMARK  Name = 
REMARK  14 active torsions:
REMARK  status: ('A' for Active; 'I' for Inactive)
REMARK    1  A    between atoms: C_2  and  C_3
REMARK    2  A    between atoms: C_3  and  C_4
REMARK    3  A    between atoms: C_4  and  O_5
REMARK    4  A    between atoms: O_5  and  C_6
REMARK    5  A    between atoms: C_7  and  O_8
REMARK    6  A    between atoms: O_8  and  C_9
REMARK    7  A    between atoms: C_11  and  N_12
REMARK    8  A    between atoms: N_12  and  C_13
REMARK    9  A    between atoms: C_13  and  C_14
REMARK   10  A    between atoms: C_13  and  C_15
REMARK   11  A    between atoms: C_15  and  C_16
REMARK   12  A    between atoms: C_16  and  C_17
REMARK   13  A    between atoms: C_17  and  N_18
REMARK   14  A    between atoms: C_23  and  C_24
REMARK                            x       y       z     vdW  Elec       q    Type
REMARK                         _______ _______ _______ _____ _____    ______ ____
ROOT
ATOM      1  C   UNL     1       4.891   4.930  17.113  0.00  0.00    +0.000 A 
ATOM      2  C   UNL     1       4.976   6.343  16.984  0.00  0.00    +0.000 A 
ATOM      3  C   UNL     1       3.899   7.121  17.361  0.00  0.00    +0.000 A 
ATOM      4  C   UNL     1       2.737   6.551  17.865  0.00  0.00    +0.000 A 
ATOM      5  C   UNL     1       2.583   5.150  17.906  0.00  0.00    +0.000 A 
ATOM      6  N   UNL     1       1.348   4.740  18.262  0.00  0.00    +0.000 NA
ATOM      7  C   UNL     1       1.089   3.430  18.341  0.00  0.00    +0.000 A 
ATOM      8  C   UNL     1       2.052   2.473  18.197  0.00  0.00    +0.000 A 
ATOM      9  C   UNL     1       3.367   2.869  17.909  0.00  0.00    +0.000 A 
ATOM     10  C   UNL     1       4.335   1.713  17.950  0.00  0.00    +0.000 C 
ATOM     11  C   UNL     1       3.677   4.273  17.620  0.00  0.00    +0.000 A 
ENDROOT
BRANCH   2  12
ATOM     12  O   UNL     1       6.145   6.910  16.518  0.00  0.00    +0.000 OA
ATOM     13  C   UNL     1       7.116   7.293  17.498  0.00  0.00    +0.000 C 
ENDBRANCH   2  12
BRANCH   4  14
ATOM     14  N   UNL     1       1.677   7.416  18.276  0.00  0.00    +0.000 N 
ATOM     15  H   UNL     1       0.871   6.832  18.521  0.00  0.00    +0.000 HD
BRANCH  14  16
ATOM     16  C   UNL     1       2.014   8.457  19.267  0.00  0.00    +0.000 C 
ATOM     17  C   UNL     1       1.381   9.774  18.813  0.00  0.00    +0.000 C 
BRANCH  16  18
ATOM     18  C   UNL     1       1.542   8.090  20.679  0.00  0.00    +0.000 C 
BRANCH  18  19
ATOM     19  C   UNL     1       0.357   8.945  21.145  0.00  0.00    +0.000 C 
BRANCH  19  20
ATOM     20  C   UNL     1       0.393   9.241  22.644  0.00  0.00    +0.000 C 
BRANCH  20  21
ATOM     21  N   UNL     1      -0.077  10.589  22.942  0.00  0.00    +0.000 NA
ATOM     22  H   UNL     1      -0.746  10.556  23.711  0.00  0.00    +0.000 HD
ATOM     23  H   UNL     1      -0.586  10.953  22.137  0.00  0.00    +0.000 HD
ENDBRANCH  20  21
ENDBRANCH  19  20
ENDBRANCH  18  19
ENDBRANCH  16  18
ENDBRANCH  14  16
ENDBRANCH   4  14
BRANCH   1  24
ATOM     24  O   UNL     1       6.057   4.310  16.701  0.00  0.00    +0.000 OA
BRANCH  24  25
ATOM     25  C   UNL     1       6.023   3.545  15.507  0.00  0.00    +0.000 C 
BRANCH  25  26
ATOM     26  C   UNL     1       5.826   4.355  14.231  0.00  0.00    +0.000 C 
BRANCH  26  28
ATOM     27  C   UNL     1       5.360   3.245  12.031  0.00  0.00    +0.000 C 
ATOM     28  C   UNL     1       6.212   3.600  13.004  0.00  0.00    +0.000 C 
ENDBRANCH  26  28
ENDBRANCH  25  26
ENDBRANCH  24  25
ENDBRANCH   1  24
TORSDOF 11
ENDMDL
MODEL 4
REMARK VINA RESULT:      -6.1      1.190      1.250
REMARK  Name = 
REMARK  14 active torsions:
REMARK  status: ('A' for Active; 'I' for Inactive)
REMARK    1  A    between atoms: C_2  and  C_3
REMARK    2  A    between atoms: C_3  and  C_4
REMARK    3  A    between atoms: C_4  and  O_5
REMARK    4  A    between atoms: O_5  and  C_6
REMARK    5  A    between atoms: C_7  and  O_8
REMARK    6  A    between atoms: O_8  and  C_9
REMARK    7  A    between atoms: C_11  and  N_12
REMARK    8  A    between atoms: N_12  and  C_13
REMARK    9  A    between atoms: C_13  and  C_14
REMARK   10  A    between atoms: C_13  and  C_15
REMARK   11  A    between atoms: C_15  and  C_16
REMARK   12  A    between atoms: C_16  and  C_17
REMARK   13  A    between atoms: C_17  and  N_18
REMARK   14  A    between atoms: C_23  and  C_24
REMARK                            x       y       z     vdW  Elec       q    Type
REMARK                         _______ _______ _______ _____ _____    ______ ____
ROOT
ATOM      1  C   UNL     1       3.075   4.998  20.194  0.00  0.00    +0.000 A 
ATOM      2  C   UNL     1       3.981   4.032  19.676  0.00  0.00    +0.000 A 
ATOM      3  C   UNL     1       4.658   4.304  18.503  0.00  0.00    +0.000 A 
ATOM      4  C   UNL     1       4.473   5.501  17.822  0.00  0.00    +0.000 A 
ATOM      5  C   UNL     1       3.505   6.431  18.254  0.00  0.00    +0.000 A 
ATOM      6  N   UNL     1       3.319   7.467  17.410  0.00  0.00    +0.000 NA
ATOM      7  C   UNL     1       2.429   8.416  17.721  0.00  0.00    +0.000 A 
ATOM      8  C   UNL     1       1.778   8.457  18.921  0.00  0.00    +0.000 A 
ATOM      9  C   UNL     1       2.012   7.439  19.857  0.00  0.00    +0.000 A 
ATOM     10  C   UNL     1       1.353   7.720  21.185  0.00  0.00    +0.000 C 
ATOM     11  C   UNL     1       2.826   6.272  19.503  0.00  0.00    +0.000 A 
ENDROOT
BRANCH   2  12
ATOM     12  O   UNL     1       4.191   2.860  20.372  0.00  0.00    +0.000 OA
ATOM     13  C   UNL     1       4.432   1.680  19.597  0.00  0.00    +0.000 C 
ENDBRANCH   2  12
BRANCH   4  14
ATOM     14  N   UNL     1       5.237   5.736  16.638  0.00  0.00    +0.000 N 
ATOM     15  H   UNL     1       5.225   6.743  16.450  0.00  0.00    +0.000 HD
BRANCH  14  16
ATOM     16  C   UNL     1       6.571   5.107  16.570  0.00  0.00    +0.000 C 
ATOM     17  C   UNL     1       7.003   5.054  15.104  0.00  0.00    +0.000 C 
BRANCH  16  18
ATOM     18  C   UNL     1       7.610   5.857  17.414  0.00  0.00    +0.000 C 
BRANCH  18  19
ATOM     19  C   UNL     1       7.482   7.380  17.287  0.00  0.00    +0.000 C 
BRANCH  19  20
ATOM     20  C   UNL     1       8.244   8.131  18.379  0.00  0.00    +0.000 C 
BRANCH  20  21
ATOM     21  N   UNL     1       8.406   9.544  18.054  0.00  0.00    +0.000 NA
ATOM     22  H   UNL     1       9.273   9.891  18.462  0.00  0.00    +0.000 HD
ATOM     23  H   UNL     1       7.653  10.077  18.488  0.00  0.00    +0.000 HD
ENDBRANCH  20  21
ENDBRANCH  19  20
ENDBRANCH  18  19
ENDBRANCH  16  18
ENDBRANCH  14  16
ENDBRANCH   4  14
BRANCH   1  24
ATOM     24  O   UNL     1       2.494   4.569  21.374  0.00  0.00    +0.000 OA
BRANCH  24  25
ATOM     25  C   UNL     1       1.525   3.536  21.307  0.00  0.00    +0.000 C 
BRANCH  25  26
ATOM     26  C   UNL     1       0.532   3.662  20.157  0.00  0.00    +0.000 C 
BRANCH  26  28
ATOM     27  C   UNL     1       1.377   2.460  18.123  0.00  0.00    +0.000 C 
ATOM     28  C   UNL     1       0.595   2.508  19.213  0.00  0.00    +0.000 C 
ENDBRANCH  26  28
ENDBRANCH  25  26
ENDBRANCH  24  25
ENDBRANCH   1  24
TORSDOF 11
ENDMDL
MODEL 5
REMARK VINA RESULT:      -6.0      2.889      6.590
REMARK  Name = 
REMARK  14 active torsions:
REMARK  status: ('A' for Active; 'I' for Inactive)
REMARK    1  A    between atoms: C_2  and  C_3
REMARK    2  A    between atoms: C_3  and  C_4
REMARK    3  A    between atoms: C_4  and  O_5
REMARK    4  A    between atoms: O_5  and  C_6
REMARK    5  A    between atoms: C_7  and  O_8
REMARK    6  A    between atoms: O_8  and  C_9
REMARK    7  A    between atoms: C_11  and  N_12
REMARK    8  A    between atoms: N_12  and  C_13
REMARK    9  A    between atoms: C_13  and  C_14
REMARK   10  A    between atoms: C_13  and  C_15
REMARK   11  A    between atoms: C_15  and  C_16
REMARK   12  A    between atoms: C_16  and  C_17
REMARK   13  A    between atoms: C_17  and  N_18
REMARK   14  A    between atoms: C_23  and  C_24
REMARK                            x       y       z     vdW  Elec       q    Type
REMARK                         _______ _______ _______ _____ _____    ______ ____
ROOT
ATOM      1  C   UNL     1       3.617   4.931  17.654  0.00  0.00    +0.000 A 
ATOM      2  C   UNL     1       3.688   6.348  17.742  0.00  0.00    +0.000 A 
ATOM      3  C   UNL     1       3.007   6.996  18.754  0.00  0.00    +0.000 A 
ATOM      4  C   UNL     1       2.258   6.291  19.687  0.00  0.00    +0.000 A 
ATOM      5  C   UNL     1       2.083   4.898  19.565  0.00  0.00    +0.000 A 
ATOM      6  N   UNL     1       1.202   4.372  20.440  0.00  0.00    +0.000 NA
ATOM      7  C   UNL     1       0.962   3.056  20.420  0.00  0.00    +0.000 A 
ATOM      8  C   UNL     1       1.661   2.187  19.633  0.00  0.00    +0.000 A 
ATOM      9  C   UNL     1       2.645   2.692  18.769  0.00  0.00    +0.000 A 
ATOM     10  C   UNL     1       3.435   1.595  18.099  0.00  0.00    +0.000 C 
ATOM     11  C   UNL     1       2.822   4.138  18.603  0.00  0.00    +0.000 A 
ENDROOT
BRANCH   2  12
ATOM     12  O   UNL     1       4.462   7.044  16.835  0.00  0.00    +0.000 OA
ATOM     13  C   UNL     1       5.793   7.379  17.242  0.00  0.00    +0.000 C 
ENDBRANCH   2  12
BRANCH   4  14
ATOM     14  N   UNL     1       1.613   7.020  20.734  0.00  0.00    +0.000 N 
ATOM     15  H   UNL     1       1.899   6.608  21.627  0.00  0.00    +0.000 HD
BRANCH  14  16
ATOM     16  C   UNL     1       1.702   8.493  20.672  0.00  0.00    +0.000 C 
ATOM     17  C   UNL     1       0.692   8.992  19.638  0.00  0.00    +0.000 C 
BRANCH  16  18
ATOM     18  C   UNL     1       1.448   9.147  22.036  0.00  0.00    +0.000 C 
BRANCH  18  19
ATOM     19  C   UNL     1       0.328  10.194  21.986  0.00  0.00    +0.000 C 
BRANCH  19  20
ATOM     20  C   UNL     1      -0.677  10.040  23.128  0.00  0.00    +0.000 C 
BRANCH  20  21
ATOM     21  N   UNL     1      -1.578  11.183  23.215  0.00  0.00    +0.000 NA
ATOM     22  H   UNL     1      -2.260  11.139  22.458  0.00  0.00    +0.000 HD
ATOM     23  H   UNL     1      -1.048  12.041  23.070  0.00  0.00    +0.000 HD
ENDBRANCH  20  21
ENDBRANCH  19  20
ENDBRANCH  18  19
ENDBRANCH  16  18
ENDBRANCH  14  16
ENDBRANCH   4  14
BRANCH   1  24
ATOM     24  O   UNL     1       4.363   4.449  16.593  0.00  0.00    +0.000 OA
BRANCH  24  25
ATOM     25  C   UNL     1       5.686   4.008  16.850  0.00  0.00    +0.000 C 
BRANCH  25  26
ATOM     26  C   UNL     1       6.607   4.001  15.636  0.00  0.00    +0.000 C 
BRANCH  26  28
ATOM     27  C   UNL     1       5.969   3.672  13.233  0.00  0.00    +0.000 C 
ATOM     28  C   UNL     1       5.901   4.372  14.375  0.00  0.00    +0.000 C 
ENDBRANCH  26  28
ENDBRANCH  25  26
ENDBRANCH  24  25
ENDBRANCH   1  24
TORSDOF 11
ENDMDL
MODEL 6
REMARK VINA RESULT:      -5.9      1.861      4.278
REMARK  Name = 
REMARK  14 active torsions:
REMARK  status: ('A' for Active; 'I' for Inactive)
REMARK    1  A    between atoms: C_2  and  C_3
REMARK    2  A    between atoms: C_3  and  C_4
REMARK    3  A    between atoms: C_4  and  O_5
REMARK    4  A    between atoms: O_5  and  C_6
REMARK    5  A    between atoms: C_7  and  O_8
REMARK    6  A    between atoms: O_8  and  C_9
REMARK    7  A    between atoms: C_11  and  N_12
REMARK    8  A    between atoms: N_12  and  C_13
REMARK    9  A    between atoms: C_13  and  C_14
REMARK   10  A    between atoms: C_13  and  C_15
REMARK   11  A    between atoms: C_15  and  C_16
REMARK   12  A    between atoms: C_16  and  C_17
REMARK   13  A    between atoms: C_17  and  N_18
REMARK   14  A    between atoms: C_23  and  C_24
REMARK                            x       y       z     vdW  Elec       q    Type
REMARK                         _______ _______ _______ _____ _____    ______ ____
ROOT
ATOM      1  C   UNL     1       2.285   6.781  19.171  0.00  0.00    +0.000 A 
ATOM      2  C   UNL     1       2.785   7.800  18.315  0.00  0.00    +0.000 A 
ATOM      3  C   UNL     1       3.705   7.469  17.339  0.00  0.00    +0.000 A 
ATOM      4  C   UNL     1       4.148   6.162  17.177  0.00  0.00    +0.000 A 
ATOM      5  C   UNL     1       3.752   5.152  18.077  0.00  0.00    +0.000 A 
ATOM      6  N   UNL     1       4.384   3.974  17.899  0.00  0.00    +0.000 NA
ATOM      7  C   UNL     1       4.082   2.940  18.691  0.00  0.00    +0.000 A 
ATOM      8  C   UNL     1       3.067   2.977  19.604  0.00  0.00    +0.000 A 
ATOM      9  C   UNL     1       2.332   4.162  19.756  0.00  0.00    +0.000 A 
ATOM     10  C   UNL     1       1.147   3.987  20.674  0.00  0.00    +0.000 C 
ATOM     11  C   UNL     1       2.736   5.386  19.057  0.00  0.00    +0.000 A 
ENDROOT
BRANCH   2  12
ATOM     12  O   UNL     1       2.317   9.090  18.454  0.00  0.00    +0.000 OA
ATOM     13  C   UNL     1       1.112   9.422  17.754  0.00  0.00    +0.000 C 
ENDBRANCH   2  12
BRANCH   4  14
ATOM     14  N   UNL     1       5.068   5.882  16.120  0.00  0.00    +0.000 N 
ATOM     15  H   UNL     1       4.972   6.619  15.415  0.00  0.00    +0.000 HD
BRANCH  14  16
ATOM     16  C   UNL     1       6.457   5.572  16.511  0.00  0.00    +0.000 C 
ATOM     17  C   UNL     1       7.114   4.791  15.372  0.00  0.00    +0.000 C 
BRANCH  16  18
ATOM     18  C   UNL     1       7.264   6.835  16.837  0.00  0.00    +0.000 C 
BRANCH  18  19
ATOM     19  C   UNL     1       7.716   6.884  18.302  0.00  0.00    +0.000 C 
BRANCH  19  20
ATOM     20  C   UNL     1       7.846   5.495  18.928  0.00  0.00    +0.000 C 
BRANCH  20  21
ATOM     21  N   UNL     1       6.762   5.219  19.864  0.00  0.00    +0.000 NA
ATOM     22  H   UNL     1       6.017   5.903  19.736  0.00  0.00    +0.000 HD
ATOM     23  H   UNL     1       7.102   5.343  20.817  0.00  0.00    +0.000 HD
ENDBRANCH  20  21
ENDBRANCH  19  20
ENDBRANCH  18  19
ENDBRANCH  16  18
ENDBRANCH  14  16
ENDBRANCH   4  14
BRANCH   1  24
ATOM     24  O   UNL     1       1.370   7.283  20.080  0.00  0.00    +0.000 OA
BRANCH  24  25
ATOM     25  C   UNL     1       1.816   7.556  21.398  0.00  0.00    +0.000 C 
BRANCH  25  26
ATOM     26  C   UNL     1       1.413   8.922  21.942  0.00  0.00    +0.000 C 
BRANCH  26  28
ATOM     27  C   UNL     1      -0.599  10.419  21.963  0.00  0.00    +0.000 C 
ATOM     28  C   UNL     1       0.046   9.333  21.509  0.00  0.00    +0.000 C 
ENDBRANCH  26  28
ENDBRANCH  25  26
ENDBRANCH  24  25
ENDBRANCH   1  24
TORSDOF 11
ENDMDL
MODEL 7
REMARK VINA RESULT:      -5.8      1.383      2.165
REMARK  Name = 
REMARK  14 active torsions:
REMARK  status: ('A' for Active; 'I' for Inactive)
REMARK    1  A    between atoms: C_2  and  C_3
REMARK    2  A    between atoms: C_3  and  C_4
REMARK    3  A    between atoms: C_4  and  O_5
REMARK    4  A    between atoms: O_5  and  C_6
REMARK    5  A    between atoms: C_7  and  O_8
REMARK    6  A    between atoms: O_8  and  C_9
REMARK    7  A    between atoms: C_11  and  N_12
REMARK    8  A    between atoms: N_12  and  C_13
REMARK    9  A    between atoms: C_13  and  C_14
REMARK   10  A    between atoms: C_13  and  C_15
REMARK   11  A    between atoms: C_15  and  C_16
REMARK   12  A    between atoms: C_16  and  C_17
REMARK   13  A    between atoms: C_17  and  N_18
REMARK   14  A    between atoms: C_23  and  C_24
REMARK                            x       y       z     vdW  Elec       q    Type
REMARK                         _______ _______ _______ _____ _____    ______ ____
ROOT
ATOM      1  C   UNL     1       3.164   5.319  19.915  0.00  0.00    +0.000 A 
ATOM      2  C   UNL     1       4.095   4.439  19.299  0.00  0.00    +0.000 A 
ATOM      3  C   UNL     1       4.700   4.817  18.116  0.00  0.00    +0.000 A 
ATOM      4  C   UNL     1       4.419   6.039  17.519  0.00  0.00    +0.000 A 
ATOM      5  C   UNL     1       3.424   6.886  18.049  0.00  0.00    +0.000 A 
ATOM      6  N   UNL     1       3.142   7.957  17.279  0.00  0.00    +0.000 NA
ATOM      7  C   UNL     1       2.218   8.834  17.686  0.00  0.00    +0.000 A 
ATOM      8  C   UNL     1       1.623   8.768  18.913  0.00  0.00    +0.000 A 
ATOM      9  C   UNL     1       1.956   7.712  19.775  0.00  0.00    +0.000 A 
ATOM     10  C   UNL     1       1.346   7.877  21.145  0.00  0.00    +0.000 C 
ATOM     11  C   UNL     1       2.814   6.616  19.315  0.00  0.00    +0.000 A 
ENDROOT
BRANCH   2  12
ATOM     12  O   UNL     1       4.401   3.242  19.913  0.00  0.00    +0.000 OA
ATOM     13  C   UNL     1       4.357   2.065  19.097  0.00  0.00    +0.000 C 
ENDBRANCH   2  12
BRANCH   4  14
ATOM     14  N   UNL     1       5.112   6.386  16.319  0.00  0.00    +0.000 N 
ATOM     15  H   UNL     1       4.719   7.266  15.971  0.00  0.00    +0.000 HD
BRANCH  14  16
ATOM     16  C   UNL     1       6.587   6.339  16.364  0.00  0.00    +0.000 C 
ATOM     17  C   UNL     1       7.056   7.141  17.580  0.00  0.00    +0.000 C 
BRANCH  16  18
ATOM     18  C   UNL     1       7.120   4.902  16.426  0.00  0.00    +0.000 C 
BRANCH  18  19
ATOM     19  C   UNL     1       6.834   4.113  15.143  0.00  0.00    +0.000 C 
BRANCH  19  20
ATOM     20  C   UNL     1       6.841   4.992  13.892  0.00  0.00    +0.000 C 
BRANCH  20  21
ATOM     21  N   UNL     1       8.184   5.451  13.559  0.00  0.00    +0.000 NA
ATOM     22  H   UNL     1       8.772   4.651  13.329  0.00  0.00    +0.000 HD
ATOM     23  H   UNL     1       8.603   5.886  14.380  0.00  0.00    +0.000 HD
ENDBRANCH  20  21
ENDBRANCH  19  20
ENDBRANCH  18  19
ENDBRANCH  16  18
ENDBRANCH  14  16
ENDBRANCH   4  14
BRANCH   1  24
ATOM     24  O   UNL     1       2.664   4.790  21.091  0.00  0.00    +0.000 OA
BRANCH  24  25
ATOM     25  C   UNL     1       1.340   4.283  21.087  0.00  0.00    +0.000 C 
BRANCH  25  26
ATOM     26  C   UNL     1       1.223   2.797  20.771  0.00  0.00    +0.000 C 
BRANCH  26  28
ATOM     27  C   UNL     1       1.085   2.717  18.268  0.00  0.00    +0.000 C 
ATOM     28  C   UNL     1       0.530   2.536  19.476  0.00  0.00    +0.000 C 
ENDBRANCH  26  28
ENDBRANCH  25  26
ENDBRANCH  24  25
ENDBRANCH   1  24
TORSDOF 11
ENDMDL
MODEL 8
REMARK VINA RESULT:      -5.8      2.136      4.953
REMARK  Name = 
REMARK  14 active torsions:
REMARK  status: ('A' for Active; 'I' for Inactive)
REMARK    1  A    between atoms: C_2  and  C_3
REMARK    2  A    between atoms: C_3  and  C_4
REMARK    3  A    between atoms: C_4  and  O_5
REMARK    4  A    between atoms: O_5  and  C_6
REMARK    5  A    between atoms: C_7  and  O_8
REMARK    6  A    between atoms: O_8  and  C_9
REMARK    7  A    between atoms: C_11  and  N_12
REMARK    8  A    between atoms: N_12  and  C_13
REMARK    9  A    between atoms: C_13  and  C_14
REMARK   10  A    between atoms: C_13  and  C_15
REMARK   11  A    between atoms: C_15  and  C_16
REMARK   12  A    between atoms: C_16  and  C_17
REMARK   13  A    between atoms: C_17  and  N_18
REMARK   14  A    between atoms: C_23  and  C_24
REMARK                            x       y       z     vdW  Elec       q    Type
REMARK                         _______ _______ _______ _____ _____    ______ ____
ROOT
ATOM      1  C   UNL     1       2.349   6.159  19.060  0.00  0.00    +0.000 A 
ATOM      2  C   UNL     1       3.023   7.026  18.158  0.00  0.00    +0.000 A 
ATOM      3  C   UNL     1       3.899   6.490  17.234  0.00  0.00    +0.000 A 
ATOM      4  C   UNL     1       4.130   5.122  17.168  0.00  0.00    +0.000 A 
ATOM      5  C   UNL     1       3.558   4.249  18.116  0.00  0.00    +0.000 A 
ATOM      6  N   UNL     1       3.998   2.977  18.031  0.00  0.00    +0.000 NA
ATOM      7  C   UNL     1       3.518   2.059  18.877  0.00  0.00    +0.000 A 
ATOM      8  C   UNL     1       2.503   2.316  19.753  0.00  0.00    +0.000 A 
ATOM      9  C   UNL     1       1.964   3.610  19.808  0.00  0.00    +0.000 A 
ATOM     10  C   UNL     1       0.747   3.686  20.697  0.00  0.00    +0.000 C 
ATOM     11  C   UNL     1       2.573   4.706  19.047  0.00  0.00    +0.000 A 
ENDROOT
BRANCH   2  12
ATOM     12  O   UNL     1       2.764   8.381  18.202  0.00  0.00    +0.000 OA
ATOM     13  C   UNL     1       1.610   8.844  17.491  0.00  0.00    +0.000 C 
ENDBRANCH   2  12
BRANCH   4  14
ATOM     14  N   UNL     1       5.016   4.630  16.160  0.00  0.00    +0.000 N 
ATOM     15  H   UNL     1       4.475   4.510  15.298  0.00  0.00    +0.000 HD
BRANCH  14  16
ATOM     16  C   UNL     1       6.299   5.341  15.996  0.00  0.00    +0.000 C 
ATOM     17  C   UNL     1       7.180   5.027  17.206  0.00  0.00    +0.000 C 
BRANCH  16  18
ATOM     18  C   UNL     1       7.013   4.958  14.693  0.00  0.00    +0.000 C 
BRANCH  18  19
ATOM     19  C   UNL     1       6.337   3.782  13.976  0.00  0.00    +0.000 C 
BRANCH  19  20
ATOM     20  C   UNL     1       6.643   3.747  12.479  0.00  0.00    +0.000 C 
BRANCH  20  21
ATOM     21  N   UNL     1       6.341   2.446  11.894  0.00  0.00    +0.000 NA
ATOM     22  H   UNL     1       5.618   1.983  12.443  0.00  0.00    +0.000 HD
ATOM     23  H   UNL     1       7.167   1.852  11.952  0.00  0.00    +0.000 HD
ENDBRANCH  20  21
ENDBRANCH  19  20
ENDBRANCH  18  19
ENDBRANCH  16  18
ENDBRANCH  14  16
ENDBRANCH   4  14
BRANCH   1  24
ATOM     24  O   UNL     1       1.506   6.859  19.906  0.00  0.00    +0.000 OA
BRANCH  24  25
ATOM     25  C   UNL     1       2.063   7.441  21.074  0.00  0.00    +0.000 C 
BRANCH  25  26
ATOM     26  C   UNL     1       1.621   8.873  21.350  0.00  0.00    +0.000 C 
BRANCH  26  28
ATOM     27  C   UNL     1      -0.246   9.397  22.941  0.00  0.00    +0.000 C 
ATOM     28  C   UNL     1       0.186   8.966  21.746  0.00  0.00    +0.000 C 
ENDBRANCH  26  28
ENDBRANCH  25  26
ENDBRANCH  24  25
ENDBRANCH   1  24
TORSDOF 11
ENDMDL
MODEL 9
REMARK VINA RESULT:      -5.8      2.551      6.258
REMARK  Name = 
REMARK  14 active torsions:
REMARK  status: ('A' for Active; 'I' for Inactive)
REMARK    1  A    between atoms: C_2  and  C_3
REMARK    2  A    between atoms: C_3  and  C_4
REMARK    3  A    between atoms: C_4  and  O_5
REMARK    4  A    between atoms: O_5  and  C_6
REMARK    5  A    between atoms: C_7  and  O_8
REMARK    6  A    between atoms: O_8  and  C_9
REMARK    7  A    between atoms: C_11  and  N_12
REMARK    8  A    between atoms: N_12  and  C_13
REMARK    9  A    between atoms: C_13  and  C_14
REMARK   10  A    between atoms: C_13  and  C_15
REMARK   11  A    between atoms: C_15  and  C_16
REMARK   12  A    between atoms: C_16  and  C_17
REMARK   13  A    between atoms: C_17  and  N_18
REMARK   14  A    between atoms: C_23  and  C_24
REMARK                            x       y       z     vdW  Elec       q    Type
REMARK                         _______ _______ _______ _____ _____    ______ ____
ROOT
ATOM      1  C   UNL     1       4.668   4.555  17.655  0.00  0.00    +0.000 A 
ATOM      2  C   UNL     1       4.940   5.947  17.740  0.00  0.00    +0.000 A 
ATOM      3  C   UNL     1       4.118   6.749  18.507  0.00  0.00    +0.000 A 
ATOM      4  C   UNL     1       3.035   6.222  19.199  0.00  0.00    +0.000 A 
ATOM      5  C   UNL     1       2.678   4.866  19.050  0.00  0.00    +0.000 A 
ATOM      6  N   UNL     1       1.515   4.532  19.646  0.00  0.00    +0.000 NA
ATOM      7  C   UNL     1       1.081   3.269  19.576  0.00  0.00    +0.000 A 
ATOM      8  C   UNL     1       1.821   2.259  19.032  0.00  0.00    +0.000 A 
ATOM      9  C   UNL     1       3.075   2.558  18.477  0.00  0.00    +0.000 A 
ATOM     10  C   UNL     1       3.832   1.316  18.074  0.00  0.00    +0.000 C 
ATOM     11  C   UNL     1       3.523   3.948  18.349  0.00  0.00    +0.000 A 
ENDROOT
BRANCH   2  12
ATOM     12  O   UNL     1       6.038   6.463  17.082  0.00  0.00    +0.000 OA
ATOM     13  C   UNL     1       7.211   6.703  17.867  0.00  0.00    +0.000 C 
ENDBRANCH   2  12
BRANCH   4  14
ATOM     14  N   UNL     1       2.251   7.101  20.008  0.00  0.00    +0.000 N 
ATOM     15  H   UNL     1       2.652   7.101  20.951  0.00  0.00    +0.000 HD
BRANCH  14  16
ATOM     16  C   UNL     1       1.963   8.438  19.454  0.00  0.00    +0.000 C 
ATOM     17  C   UNL     1       1.605   8.278  17.975  0.00  0.00    +0.000 C 
BRANCH  16  18
ATOM     18  C   UNL     1       0.835   9.150  20.210  0.00  0.00    +0.000 C 
BRANCH  18  19
ATOM     19  C   UNL     1       0.962   9.003  21.732  0.00  0.00    +0.000 C 
BRANCH  19  20
ATOM     20  C   UNL     1      -0.059   9.845  22.496  0.00  0.00    +0.000 C 
BRANCH  20  21
ATOM     21  N   UNL     1       0.040  11.259  22.154  0.00  0.00    +0.000 NA
ATOM     22  H   UNL     1       1.006  11.489  21.925  0.00  0.00    +0.000 HD
ATOM     23  H   UNL     1      -0.200  11.820  22.971  0.00  0.00    +0.000 HD
ENDBRANCH  20  21
ENDBRANCH  19  20
ENDBRANCH  18  19
ENDBRANCH  16  18
ENDBRANCH  14  16
ENDBRANCH   4  14
BRANCH   1  24
ATOM     24  O   UNL     1       5.592   3.903  16.856  0.00  0.00    +0.000 OA
BRANCH  24  25
ATOM     25  C   UNL     1       5.211   3.565  15.533  0.00  0.00    +0.000 C 
BRANCH  25  26
ATOM     26  C   UNL     1       6.128   4.108  14.443  0.00  0.00    +0.000 C 
BRANCH  26  28
ATOM     27  C   UNL     1       5.967   3.061  12.169  0.00  0.00    +0.000 C 
ATOM     28  C   UNL     1       5.549   3.957  13.076  0.00  0.00    +0.000 C 
ENDBRANCH  26  28
ENDBRANCH  25  26
ENDBRANCH  24  25
ENDBRANCH   1  24
TORSDOF 11
ENDMDL
