MODEL 1
REMARK VINA RESULT:      -8.7      0.000      0.000
REMARK  Name = 
REMARK  5 active torsions:
REMARK  status: ('A' for Active; 'I' for Inactive)
REMARK    1  A    between atoms: C_1  and  C_2
REMARK    2  A    between atoms: C_6  and  C_7
REMARK    3  A    between atoms: C_15  and  O_16
REMARK    4  A    between atoms: O_16  and  C_17
REMARK    5  A    between atoms: C_17  and  C_18
REMARK                            x       y       z     vdW  Elec       q    Type
REMARK                         _______ _______ _______ _____ _____    ______ ____
ROOT
ATOM      1  C   UNL     1       5.892   5.028  17.429  0.00  0.00    +0.000 C 
ATOM      2  O   UNL     1       6.272   4.044  16.796  0.00  0.00    +0.000 OA
ATOM      3  N   UNL     1       4.607   5.098  17.960  0.00  0.00    +0.000 N 
ATOM      4  C   UNL     1       3.725   3.949  17.836  0.00  0.00    +0.000 C 
ATOM      5  C   UNL     1       2.323   4.553  17.763  0.00  0.00    +0.000 C 
ATOM      6  C   UNL     1       1.203   3.607  18.165  0.00  0.00    +0.000 C 
ATOM      7  C   UNL     1       1.266   3.212  19.633  0.00  0.00    +0.000 C 
ATOM      8  C   UNL     1       1.238   4.444  20.521  0.00  0.00    +0.000 C 
ATOM      9  C   UNL     1       2.262   5.537  20.153  0.00  0.00    +0.000 C 
ATOM     10  C   UNL     1       2.425   5.813  18.637  0.00  0.00    +0.000 C 
ATOM     11  C   UNL     1       3.846   6.308  18.279  0.00  0.00    +0.000 C 
ENDROOT
BRANCH   1  17
ATOM     12  C   UNL     1       8.048   5.369  19.838  0.00  0.00    +0.000 C 
ATOM     13  C   UNL     1       7.680   6.259  18.714  0.00  0.00    +0.000 A 
ATOM     14  O   UNL     1       8.322   7.461  18.678  0.00  0.00    +0.000 OA
ATOM     15  C   UNL     1       7.825   8.147  17.620  0.00  0.00    +0.000 A 
ATOM     16  C   UNL     1       6.883   7.394  16.963  0.00  0.00    +0.000 A 
ATOM     17  C   UNL     1       6.791   6.150  17.654  0.00  0.00    +0.000 A 
ENDBRANCH   1  17
BRANCH   9  18
ATOM     18  O   UNL     1       2.042   6.751  20.925  0.00  0.00    +0.000 OA
BRANCH  18  19
ATOM     19  C   UNL     1       1.643   7.891  20.147  0.00  0.00    +0.000 C 
BRANCH  19  20
ATOM     20  C   UNL     1       0.920   8.981  20.893  0.00  0.00    +0.000 A 
ATOM     21  C   UNL     1       0.020   9.875  20.322  0.00  0.00    +0.000 A 
ATOM     22  C   UNL     1      -0.668  10.773  21.140  0.00  0.00    +0.000 A 
ATOM     23  C   UNL     1      -0.433  10.746  22.507  0.00  0.00    +0.000 A 
ATOM     24  N   UNL     1       0.438   9.906  23.097  0.00  0.00    +0.000 NA
ATOM     25  C   UNL     1       1.088   9.049  22.281  0.00  0.00    +0.000 A 
ENDBRANCH  19  20
ENDBRANCH  18  19
ENDBRANCH   9  18
TORSDOF 4
ENDMDL
MODEL 2
REMARK VINA RESULT:      -8.4      2.380      5.153
REMARK  Name = 
REMARK  5 active torsions:
REMARK  status: ('A' for Active; 'I' for Inactive)
REMARK    1  A    between atoms: C_1  and  C_2
REMARK    2  A    between atoms: C_6  and  C_7
REMARK    3  A    between atoms: C_15  and  O_16
REMARK    4  A    between atoms: O_16  and  C_17
REMARK    5  A    between atoms: C_17  and  C_18
REMARK                            x       y       z     vdW  Elec       q    Type
REMARK                         _______ _______ _______ _____ _____    ______ ____
ROOT
ATOM      1  C   UNL     1       3.590   2.300  18.803  0.00  0.00    +0.000 C 
ATOM      2  O   UNL     1       3.776   1.181  18.327  0.00  0.00    +0.000 OA
ATOM      3  N   UNL     1       4.201   3.428  18.265  0.00  0.00    +0.000 N 
ATOM      4  C   UNL     1       5.007   3.294  17.064  0.00  0.00    +0.000 C 
ATOM      5  C   UNL     1       6.074   4.380  17.199  0.00  0.00    +0.000 C 
ATOM      6  C   UNL     1       6.703   4.820  15.886  0.00  0.00    +0.000 C 
ATOM      7  C   UNL     1       5.710   5.510  14.963  0.00  0.00    +0.000 C 
ATOM      8  C   UNL     1       5.078   6.707  15.654  0.00  0.00    +0.000 C 
ATOM      9  C   UNL     1       4.491   6.419  17.051  0.00  0.00    +0.000 C 
ATOM     10  C   UNL     1       5.352   5.504  17.958  0.00  0.00    +0.000 C 
ATOM     11  C   UNL     1       4.495   4.687  18.953  0.00  0.00    +0.000 C 
ENDROOT
BRANCH   1  17
ATOM     12  C   UNL     1       0.377   2.790  18.745  0.00  0.00    +0.000 C 
ATOM     13  C   UNL     1       1.339   2.705  19.867  0.00  0.00    +0.000 A 
ATOM     14  O   UNL     1       0.815   2.897  21.110  0.00  0.00    +0.000 OA
ATOM     15  C   UNL     1       1.842   2.829  21.991  0.00  0.00    +0.000 A 
ATOM     16  C   UNL     1       3.021   2.578  21.332  0.00  0.00    +0.000 A 
ATOM     17  C   UNL     1       2.705   2.474  19.945  0.00  0.00    +0.000 A 
ENDBRANCH   1  17
BRANCH   9  18
ATOM     18  O   UNL     1       4.081   7.646  17.716  0.00  0.00    +0.000 OA
BRANCH  18  19
ATOM     19  C   UNL     1       2.694   7.983  17.545  0.00  0.00    +0.000 C 
BRANCH  19  20
ATOM     20  C   UNL     1       1.937   8.325  18.802  0.00  0.00    +0.000 A 
ATOM     21  C   UNL     1       1.972   7.584  19.979  0.00  0.00    +0.000 A 
ATOM     22  C   UNL     1       1.311   8.064  21.111  0.00  0.00    +0.000 A 
ATOM     23  C   UNL     1       0.635   9.272  21.028  0.00  0.00    +0.000 A 
ATOM     24  N   UNL     1       0.567  10.012  19.906  0.00  0.00    +0.000 NA
ATOM     25  C   UNL     1       1.216   9.524  18.828  0.00  0.00    +0.000 A 
ENDBRANCH  19  20
ENDBRANCH  18  19
ENDBRANCH   9  18
TORSDOF 4
ENDMDL
MODEL 3
REMARK VINA RESULT:      -8.3      4.186      6.679
REMARK  Name = 
REMARK  5 active torsions:
REMARK  status: ('A' for Active; 'I' for Inactive)
REMARK    1  A    between atoms: C_1  and  C_2
REMARK    2  A    between atoms: C_6  and  C_7
REMARK    3  A    between atoms: C_15  and  O_16
REMARK    4  A    between atoms: O_16  and  C_17
REMARK    5  A    between atoms: C_17  and  C_18
REMARK                            x       y       z     vdW  Elec       q    Type
REMARK                         _______ _______ _______ _____ _____    ______ ____
ROOT
ATOM      1  C   UNL     1       7.013   4.255  12.720  0.00  0.00    +0.000 C 
ATOM      2  O   UNL     1       7.755   5.078  12.186  0.00  0.00    +0.000 OA
ATOM      3  N   UNL     1       6.562   4.423  14.026  0.00  0.00    +0.000 N 
ATOM      4  C   UNL     1       6.906   5.639  14.744  0.00  0.00    +0.000 C 
ATOM      5  C   UNL     1       6.982   5.207  16.208  0.00  0.00    +0.000 C 
ATOM      6  C   UNL     1       6.794   6.332  17.213  0.00  0.00    +0.000 C 
ATOM      7  C   UNL     1       5.397   6.933  17.166  0.00  0.00    +0.000 C 
ATOM      8  C   UNL     1       4.344   5.861  17.395  0.00  0.00    +0.000 C 
ATOM      9  C   UNL     1       4.485   4.609  16.506  0.00  0.00    +0.000 C 
ATOM     10  C   UNL     1       5.932   4.090  16.311  0.00  0.00    +0.000 C 
ATOM     11  C   UNL     1       6.123   3.377  14.951  0.00  0.00    +0.000 C 
ENDROOT
BRANCH   1  17
ATOM     12  C   UNL     1       3.983   3.544  11.784  0.00  0.00    +0.000 C 
ATOM     13  C   UNL     1       5.258   2.809  11.628  0.00  0.00    +0.000 A 
ATOM     14  O   UNL     1       5.169   1.595  11.016  0.00  0.00    +0.000 OA
ATOM     15  C   UNL     1       6.414   1.059  11.008  0.00  0.00    +0.000 A 
ATOM     16  C   UNL     1       7.309   1.922  11.593  0.00  0.00    +0.000 A 
ATOM     17  C   UNL     1       6.571   3.079  11.986  0.00  0.00    +0.000 A 
ENDBRANCH   1  17
BRANCH   9  18
ATOM     18  O   UNL     1       3.562   3.562  16.917  0.00  0.00    +0.000 OA
BRANCH  18  19
ATOM     19  C   UNL     1       3.961   2.842  18.095  0.00  0.00    +0.000 C 
BRANCH  19  20
ATOM     20  C   UNL     1       3.078   3.011  19.305  0.00  0.00    +0.000 A 
ATOM     21  C   UNL     1       1.780   3.510  19.278  0.00  0.00    +0.000 A 
ATOM     22  C   UNL     1       1.024   3.517  20.453  0.00  0.00    +0.000 A 
ATOM     23  C   UNL     1       1.594   3.024  21.617  0.00  0.00    +0.000 A 
ATOM     24  N   UNL     1       2.850   2.545  21.686  0.00  0.00    +0.000 NA
ATOM     25  C   UNL     1       3.556   2.549  20.535  0.00  0.00    +0.000 A 
ENDBRANCH  19  20
ENDBRANCH  18  19
ENDBRANCH   9  18
TORSDOF 4
ENDMDL
MODEL 4
REMARK VINA RESULT:      -8.2      4.161      6.639
REMARK  Name = 
REMARK  5 active torsions:
REMARK  status: ('A' for Active; 'I' for Inactive)
REMARK    1  A    between atoms: C_1  and  C_2
REMARK    2  A    between atoms: C_6  and  C_7
REMARK    3  A    between atoms: C_15  and  O_16
REMARK    4  A    between atoms: O_16  and  C_17
REMARK    5  A    between atoms: C_17  and  C_18
REMARK                            x       y       z     vdW  Elec       q    Type
REMARK                         _______ _______ _______ _____ _____    ______ ____
ROOT
ATOM      1  C   UNL     1       6.552   4.098  12.885  0.00  0.00    +0.000 C 
ATOM      2  O   UNL     1       7.576   4.530  12.358  0.00  0.00    +0.000 OA
ATOM      3  N   UNL     1       6.290   4.304  14.237  0.00  0.00    +0.000 N 
ATOM      4  C   UNL     1       7.202   5.119  15.021  0.00  0.00    +0.000 C 
ATOM      5  C   UNL     1       7.120   4.533  16.430  0.00  0.00    +0.000 C 
ATOM      6  C   UNL     1       7.534   5.486  17.540  0.00  0.00    +0.000 C 
ATOM      7  C   UNL     1       6.595   6.675  17.672  0.00  0.00    +0.000 C 
ATOM      8  C   UNL     1       5.167   6.209  17.904  0.00  0.00    +0.000 C 
ATOM      9  C   UNL     1       4.655   5.153  16.903  0.00  0.00    +0.000 C 
ATOM     10  C   UNL     1       5.668   4.040  16.533  0.00  0.00    +0.000 C 
ATOM     11  C   UNL     1       5.440   3.488  15.106  0.00  0.00    +0.000 C 
ENDROOT
BRANCH   1  17
ATOM     12  C   UNL     1       7.011   1.314  11.274  0.00  0.00    +0.000 C 
ATOM     13  C   UNL     1       5.824   2.188  11.408  0.00  0.00    +0.000 A 
ATOM     14  O   UNL     1       4.720   1.797  10.711  0.00  0.00    +0.000 OA
ATOM     15  C   UNL     1       3.765   2.736  10.918  0.00  0.00    +0.000 A 
ATOM     16  C   UNL     1       4.234   3.719  11.754  0.00  0.00    +0.000 A 
ATOM     17  C   UNL     1       5.573   3.366  12.098  0.00  0.00    +0.000 A 
ENDBRANCH   1  17
BRANCH   9  18
ATOM     18  O   UNL     1       3.361   4.625  17.306  0.00  0.00    +0.000 OA
BRANCH  18  19
ATOM     19  C   UNL     1       3.410   3.328  17.922  0.00  0.00    +0.000 C 
BRANCH  19  20
ATOM     20  C   UNL     1       2.746   3.209  19.270  0.00  0.00    +0.000 A 
ATOM     21  C   UNL     1       1.407   3.487  19.524  0.00  0.00    +0.000 A 
ATOM     22  C   UNL     1       0.884   3.235  20.794  0.00  0.00    +0.000 A 
ATOM     23  C   UNL     1       1.719   2.711  21.769  0.00  0.00    +0.000 A 
ATOM     24  N   UNL     1       3.022   2.440  21.566  0.00  0.00    +0.000 NA
ATOM     25  C   UNL     1       3.500   2.693  20.329  0.00  0.00    +0.000 A 
ENDBRANCH  19  20
ENDBRANCH  18  19
ENDBRANCH   9  18
TORSDOF 4
ENDMDL
MODEL 5
REMARK VINA RESULT:      -8.2      0.839      1.004
REMARK  Name = 
REMARK  5 active torsions:
REMARK  status: ('A' for Active; 'I' for Inactive)
REMARK    1  A    between atoms: C_1  and  C_2
REMARK    2  A    between atoms: C_6  and  C_7
REMARK    3  A    between atoms: C_15  and  O_16
REMARK    4  A    between atoms: O_16  and  C_17
REMARK    5  A    between atoms: C_17  and  C_18
REMARK                            x       y       z     vdW  Elec       q    Type
REMARK                         _______ _______ _______ _____ _____    ______ ____
ROOT
ATOM      1  C   UNL     1       5.897   5.110  17.396  0.00  0.00    +0.000 C 
ATOM      2  O   UNL     1       6.254   4.141  16.727  0.00  0.00    +0.000 OA
ATOM      3  N   UNL     1       4.622   5.179  17.950  0.00  0.00    +0.000 N 
ATOM      4  C   UNL     1       3.724   4.046  17.809  0.00  0.00    +0.000 C 
ATOM      5  C   UNL     1       2.328   4.667  17.777  0.00  0.00    +0.000 C 
ATOM      6  C   UNL     1       1.203   3.723  18.171  0.00  0.00    +0.000 C 
ATOM      7  C   UNL     1       1.286   3.285  19.625  0.00  0.00    +0.000 C 
ATOM      8  C   UNL     1       1.289   4.490  20.549  0.00  0.00    +0.000 C 
ATOM      9  C   UNL     1       2.320   5.581  20.196  0.00  0.00    +0.000 C 
ATOM     10  C   UNL     1       2.461   5.900  18.686  0.00  0.00    +0.000 C 
ATOM     11  C   UNL     1       3.882   6.388  18.318  0.00  0.00    +0.000 C 
ENDROOT
BRANCH   1  17
ATOM     12  C   UNL     1       8.036   5.393  19.827  0.00  0.00    +0.000 C 
ATOM     13  C   UNL     1       7.694   6.299  18.707  0.00  0.00    +0.000 A 
ATOM     14  O   UNL     1       8.357   7.489  18.687  0.00  0.00    +0.000 OA
ATOM     15  C   UNL     1       7.882   8.193  17.630  0.00  0.00    +0.000 A 
ATOM     16  C   UNL     1       6.933   7.462  16.958  0.00  0.00    +0.000 A 
ATOM     17  C   UNL     1       6.813   6.214  17.638  0.00  0.00    +0.000 A 
ENDBRANCH   1  17
BRANCH   9  18
ATOM     18  O   UNL     1       2.129   6.774  21.007  0.00  0.00    +0.000 OA
BRANCH  18  19
ATOM     19  C   UNL     1       0.892   7.466  20.770  0.00  0.00    +0.000 C 
BRANCH  19  20
ATOM     20  C   UNL     1       1.002   8.941  20.487  0.00  0.00    +0.000 A 
ATOM     21  C   UNL     1       1.127   9.501  19.220  0.00  0.00    +0.000 A 
ATOM     22  C   UNL     1       1.112  10.890  19.080  0.00  0.00    +0.000 A 
ATOM     23  C   UNL     1       0.972  11.676  20.215  0.00  0.00    +0.000 A 
ATOM     24  N   UNL     1       0.861  11.173  21.458  0.00  0.00    +0.000 NA
ATOM     25  C   UNL     1       0.877   9.827  21.563  0.00  0.00    +0.000 A 
ENDBRANCH  19  20
ENDBRANCH  18  19
ENDBRANCH   9  18
TORSDOF 4
ENDMDL
MODEL 6
REMARK VINA RESULT:      -8.2      2.190      3.047
REMARK  Name = 
REMARK  5 active torsions:
REMARK  status: ('A' for Active; 'I' for Inactive)
REMARK    1  A    between atoms: C_1  and  C_2
REMARK    2  A    between atoms: C_6  and  C_7
REMARK    3  A    between atoms: C_15  and  O_16
REMARK    4  A    between atoms: O_16  and  C_17
REMARK    5  A    between atoms: C_17  and  C_18
REMARK                            x       y       z     vdW  Elec       q    Type
REMARK                         _______ _______ _______ _____ _____    ______ ____
ROOT
ATOM      1  C   UNL     1       5.575   4.515  18.190  0.00  0.00    +0.000 C 
ATOM      2  O   UNL     1       6.054   3.745  19.022  0.00  0.00    +0.000 OA
ATOM      3  N   UNL     1       4.392   5.205  18.437  0.00  0.00    +0.000 N 
ATOM      4  C   UNL     1       3.755   5.079  19.737  0.00  0.00    +0.000 C 
ATOM      5  C   UNL     1       2.263   5.240  19.447  0.00  0.00    +0.000 C 
ATOM      6  C   UNL     1       1.428   5.683  20.638  0.00  0.00    +0.000 C 
ATOM      7  C   UNL     1       1.779   7.085  21.112  0.00  0.00    +0.000 C 
ATOM      8  C   UNL     1       1.627   8.087  19.980  0.00  0.00    +0.000 C 
ATOM      9  C   UNL     1       2.343   7.705  18.669  0.00  0.00    +0.000 C 
ATOM     10  C   UNL     1       2.229   6.215  18.258  0.00  0.00    +0.000 C 
ATOM     11  C   UNL     1       3.454   5.734  17.445  0.00  0.00    +0.000 C 
ENDROOT
BRANCH   1  17
ATOM     12  C   UNL     1       7.462   7.034  17.377  0.00  0.00    +0.000 C 
ATOM     13  C   UNL     1       7.028   5.843  16.613  0.00  0.00    +0.000 A 
ATOM     14  O   UNL     1       7.453   5.784  15.319  0.00  0.00    +0.000 OA
ATOM     15  C   UNL     1       6.923   4.662  14.775  0.00  0.00    +0.000 A 
ATOM     16  C   UNL     1       6.174   3.987  15.708  0.00  0.00    +0.000 A 
ATOM     17  C   UNL     1       6.248   4.737  16.920  0.00  0.00    +0.000 A 
ENDBRANCH   1  17
BRANCH   9  18
ATOM     18  O   UNL     1       1.992   8.615  17.589  0.00  0.00    +0.000 OA
BRANCH  18  19
ATOM     19  C   UNL     1       1.895   9.995  17.978  0.00  0.00    +0.000 C 
BRANCH  19  20
ATOM     20  C   UNL     1       0.506  10.509  18.250  0.00  0.00    +0.000 A 
ATOM     21  C   UNL     1      -0.663   9.950  17.745  0.00  0.00    +0.000 A 
ATOM     22  C   UNL     1      -1.899  10.453  18.157  0.00  0.00    +0.000 A 
ATOM     23  C   UNL     1      -1.924  11.502  19.065  0.00  0.00    +0.000 A 
ATOM     24  N   UNL     1      -0.816  12.079  19.567  0.00  0.00    +0.000 NA
ATOM     25  C   UNL     1       0.364  11.570  19.151  0.00  0.00    +0.000 A 
ENDBRANCH  19  20
ENDBRANCH  18  19
ENDBRANCH   9  18
TORSDOF 4
ENDMDL
MODEL 7
REMARK VINA RESULT:      -8.0      1.201      1.642
REMARK  Name = 
REMARK  5 active torsions:
REMARK  status: ('A' for Active; 'I' for Inactive)
REMARK    1  A    between atoms: C_1  and  C_2
REMARK    2  A    between atoms: C_6  and  C_7
REMARK    3  A    between atoms: C_15  and  O_16
REMARK    4  A    between atoms: O_16  and  C_17
REMARK    5  A    between atoms: C_17  and  C_18
REMARK                            x       y       z     vdW  Elec       q    Type
REMARK                         _______ _______ _______ _____ _____    ______ ____
ROOT
ATOM      1  C   UNL     1       5.219   4.084  16.991  0.00  0.00    +0.000 C 
ATOM      2  O   UNL     1       5.482   3.025  16.422  0.00  0.00    +0.000 OA
ATOM      3  N   UNL     1       4.039   4.246  17.711  0.00  0.00    +0.000 N 
ATOM      4  C   UNL     1       3.139   3.115  17.865  0.00  0.00    +0.000 C 
ATOM      5  C   UNL     1       1.749   3.744  17.951  0.00  0.00    +0.000 C 
ATOM      6  C   UNL     1       0.702   2.879  18.635  0.00  0.00    +0.000 C 
ATOM      7  C   UNL     1       1.002   2.650  20.108  0.00  0.00    +0.000 C 
ATOM      8  C   UNL     1       1.130   3.975  20.842  0.00  0.00    +0.000 C 
ATOM      9  C   UNL     1       2.089   4.992  20.189  0.00  0.00    +0.000 C 
ATOM     10  C   UNL     1       2.003   5.091  18.645  0.00  0.00    +0.000 C 
ATOM     11  C   UNL     1       3.350   5.504  18.007  0.00  0.00    +0.000 C 
ENDROOT
BRANCH   1  17
ATOM     12  C   UNL     1       7.053   4.993  14.467  0.00  0.00    +0.000 C 
ATOM     13  C   UNL     1       6.931   5.534  15.839  0.00  0.00    +0.000 A 
ATOM     14  O   UNL     1       7.750   6.582  16.136  0.00  0.00    +0.000 OA
ATOM     15  C   UNL     1       7.530   6.905  17.433  0.00  0.00    +0.000 A 
ATOM     16  C   UNL     1       6.567   6.088  17.973  0.00  0.00    +0.000 A 
ATOM     17  C   UNL     1       6.151   5.199  16.937  0.00  0.00    +0.000 A 
ENDBRANCH   1  17
BRANCH   9  18
ATOM     18  O   UNL     1       2.008   6.289  20.842  0.00  0.00    +0.000 OA
BRANCH  18  19
ATOM     19  C   UNL     1       1.861   7.402  19.945  0.00  0.00    +0.000 C 
BRANCH  19  20
ATOM     20  C   UNL     1       1.258   8.651  20.533  0.00  0.00    +0.000 A 
ATOM     21  C   UNL     1       0.645   9.661  19.797  0.00  0.00    +0.000 A 
ATOM     22  C   UNL     1       0.028  10.719  20.468  0.00  0.00    +0.000 A 
ATOM     23  C   UNL     1       0.043  10.731  21.855  0.00  0.00    +0.000 A 
ATOM     24  N   UNL     1       0.636   9.781  22.601  0.00  0.00    +0.000 NA
ATOM     25  C   UNL     1       1.224   8.770  21.926  0.00  0.00    +0.000 A 
ENDBRANCH  19  20
ENDBRANCH  18  19
ENDBRANCH   9  18
TORSDOF 4
ENDMDL
MODEL 8
REMARK VINA RESULT:      -7.9      2.422      3.200
REMARK  Name = 
REMARK  5 active torsions:
REMARK  status: ('A' for Active; 'I' for Inactive)
REMARK    1  A    between atoms: C_1  and  C_2
REMARK    2  A    between atoms: C_6  and  C_7
REMARK    3  A    between atoms: C_15  and  O_16
REMARK    4  A    between atoms: O_16  and  C_17
REMARK    5  A    between atoms: C_17  and  C_18
REMARK                            x       y       z     vdW  Elec       q    Type
REMARK                         _______ _______ _______ _____ _____    ______ ____
ROOT
ATOM      1  C   UNL     1       5.528   4.531  18.246  0.00  0.00    +0.000 C 
ATOM      2  O   UNL     1       5.929   3.677  19.036  0.00  0.00    +0.000 OA
ATOM      3  N   UNL     1       4.362   5.252  18.488  0.00  0.00    +0.000 N 
ATOM      4  C   UNL     1       3.651   5.053  19.739  0.00  0.00    +0.000 C 
ATOM      5  C   UNL     1       2.185   5.304  19.387  0.00  0.00    +0.000 C 
ATOM      6  C   UNL     1       1.305   5.689  20.566  0.00  0.00    +0.000 C 
ATOM      7  C   UNL     1       1.686   7.032  21.168  0.00  0.00    +0.000 C 
ATOM      8  C   UNL     1       1.637   8.126  20.115  0.00  0.00    +0.000 C 
ATOM      9  C   UNL     1       2.407   7.815  18.815  0.00  0.00    +0.000 C 
ATOM     10  C   UNL     1       2.255   6.369  18.281  0.00  0.00    +0.000 C 
ATOM     11  C   UNL     1       3.501   5.898  17.495  0.00  0.00    +0.000 C 
ENDROOT
BRANCH   1  17
ATOM     12  C   UNL     1       7.508   7.052  17.714  0.00  0.00    +0.000 C 
ATOM     13  C   UNL     1       7.095   5.926  16.847  0.00  0.00    +0.000 A 
ATOM     14  O   UNL     1       7.593   5.944  15.579  0.00  0.00    +0.000 OA
ATOM     15  C   UNL     1       7.073   4.874  14.931  0.00  0.00    +0.000 A 
ATOM     16  C   UNL     1       6.258   4.156  15.772  0.00  0.00    +0.000 A 
ATOM     17  C   UNL     1       6.278   4.821  17.034  0.00  0.00    +0.000 A 
ENDBRANCH   1  17
BRANCH   9  18
ATOM     18  O   UNL     1       2.153   8.822  17.796  0.00  0.00    +0.000 OA
BRANCH  18  19
ATOM     19  C   UNL     1       0.972   9.610  18.016  0.00  0.00    +0.000 C 
BRANCH  19  20
ATOM     20  C   UNL     1       1.198  11.040  18.432  0.00  0.00    +0.000 A 
ATOM     21  C   UNL     1       0.376  11.757  19.295  0.00  0.00    +0.000 A 
ATOM     22  C   UNL     1       0.752  13.043  19.690  0.00  0.00    +0.000 A 
ATOM     23  C   UNL     1       1.941  13.569  19.209  0.00  0.00    +0.000 A 
ATOM     24  N   UNL     1       2.758  12.912  18.364  0.00  0.00    +0.000 NA
ATOM     25  C   UNL     1       2.369  11.671  18.000  0.00  0.00    +0.000 A 
ENDBRANCH  19  20
ENDBRANCH  18  19
ENDBRANCH   9  18
TORSDOF 4
ENDMDL
MODEL 9
REMARK VINA RESULT:      -7.7      1.710      2.225
REMARK  Name = 
REMARK  5 active torsions:
REMARK  status: ('A' for Active; 'I' for Inactive)
REMARK    1  A    between atoms: C_1  and  C_2
REMARK    2  A    between atoms: C_6  and  C_7
REMARK    3  A    between atoms: C_15  and  O_16
REMARK    4  A    between atoms: O_16  and  C_17
REMARK    5  A    between atoms: C_17  and  C_18
REMARK                            x       y       z     vdW  Elec       q    Type
REMARK                         _______ _______ _______ _____ _____    ______ ____
ROOT
ATOM      1  C   UNL     1       4.854   3.139  16.666  0.00  0.00    +0.000 C 
ATOM      2  O   UNL     1       4.885   1.915  16.554  0.00  0.00    +0.000 OA
ATOM      3  N   UNL     1       3.911   3.771  17.471  0.00  0.00    +0.000 N 
ATOM      4  C   UNL     1       2.998   2.963  18.263  0.00  0.00    +0.000 C 
ATOM      5  C   UNL     1       1.726   3.804  18.353  0.00  0.00    +0.000 C 
ATOM      6  C   UNL     1       0.825   3.470  19.532  0.00  0.00    +0.000 C 
ATOM      7  C   UNL     1       1.471   3.786  20.872  0.00  0.00    +0.000 C 
ATOM      8  C   UNL     1       1.880   5.248  20.940  0.00  0.00    +0.000 C 
ATOM      9  C   UNL     1       2.714   5.748  19.743  0.00  0.00    +0.000 C 
ATOM     10  C   UNL     1       2.248   5.250  18.352  0.00  0.00    +0.000 C 
ATOM     11  C   UNL     1       3.416   5.143  17.343  0.00  0.00    +0.000 C 
ENDROOT
BRANCH   1  17
ATOM     12  C   UNL     1       7.361   4.758  17.954  0.00  0.00    +0.000 C 
ATOM     13  C   UNL     1       6.866   4.658  16.564  0.00  0.00    +0.000 A 
ATOM     14  O   UNL     1       7.544   5.396  15.640  0.00  0.00    +0.000 OA
ATOM     15  C   UNL     1       6.923   5.214  14.450  0.00  0.00    +0.000 A 
ATOM     16  C   UNL     1       5.862   4.354  14.591  0.00  0.00    +0.000 A 
ATOM     17  C   UNL     1       5.823   3.966  15.963  0.00  0.00    +0.000 A 
ENDBRANCH   1  17
BRANCH   9  18
ATOM     18  O   UNL     1       2.899   7.190  19.792  0.00  0.00    +0.000 OA
BRANCH  18  19
ATOM     19  C   UNL     1       1.793   7.952  19.281  0.00  0.00    +0.000 C 
BRANCH  19  20
ATOM     20  C   UNL     1       1.088   8.843  20.271  0.00  0.00    +0.000 A 
ATOM     21  C   UNL     1       1.017   8.609  21.640  0.00  0.00    +0.000 A 
ATOM     22  C   UNL     1       0.427   9.566  22.469  0.00  0.00    +0.000 A 
ATOM     23  C   UNL     1      -0.073  10.727  21.898  0.00  0.00    +0.000 A 
ATOM     24  N   UNL     1      -0.035  10.984  20.577  0.00  0.00    +0.000 NA
ATOM     25  C   UNL     1       0.543  10.042  19.801  0.00  0.00    +0.000 A 
ENDBRANCH  19  20
ENDBRANCH  18  19
ENDBRANCH   9  18
TORSDOF 4
ENDMDL
