MODEL 1
REMARK VINA RESULT:      -8.4      0.000      0.000
REMARK  Name = 
REMARK  5 active torsions:
REMARK  status: ('A' for Active; 'I' for Inactive)
REMARK    1  A    between atoms: C_1  and  N_2
REMARK    2  A    between atoms: C_7  and  C_8
REMARK    3  A    between atoms: C_11  and  O_12
REMARK    4  A    between atoms: O_12  and  C_13
REMARK    5  A    between atoms: C_13  and  C_15
REMARK                            x       y       z     vdW  Elec       q    Type
REMARK                         _______ _______ _______ _____ _____    ______ ____
ROOT
ATOM      1  C   UNL     1       1.478   2.724  21.672  0.00  0.00    +0.000 C 
ATOM      2  N   UNL     1       2.196   3.266  20.545  0.00  0.00    +0.000 NA
ATOM      3  C   UNL     1       2.948   2.302  19.763  0.00  0.00    +0.000 C 
ATOM      4  C   UNL     1       2.021   1.994  18.587  0.00  0.00    +0.000 C 
ATOM      5  C   UNL     1       1.135   3.218  18.420  0.00  0.00    +0.000 C 
ATOM      6  C   UNL     1       1.557   4.151  19.568  0.00  0.00    +0.000 C 
ATOM      7  C   UNL     1       2.647   5.116  19.018  0.00  0.00    +0.000 C 
ATOM      8  C   UNL     1       4.091   4.563  19.117  0.00  0.00    +0.000 C 
ATOM      9  C   UNL     1       4.246   3.080  19.552  0.00  0.00    +0.000 C 
ENDROOT
BRANCH   7  10
ATOM     10  C   UNL     1       2.419   6.574  19.326  0.00  0.00    +0.000 C 
ATOM     11  N   UNL     1       2.261   6.946  20.630  0.00  0.00    +0.000 N 
ATOM     12  O   UNL     1       2.348   7.433  18.450  0.00  0.00    +0.000 OA
ATOM     13  H   UNL     1       2.195   7.941  20.794  0.00  0.00    +0.000 HD
ATOM     14  H   UNL     1       2.738   6.397  21.343  0.00  0.00    +0.000 HD
ENDBRANCH   7  10
BRANCH   8  15
ATOM     15  O   UNL     1       5.117   5.389  19.746  0.00  0.00    +0.000 OA
BRANCH  15  16
ATOM     16  C   UNL     1       6.375   5.464  19.252  0.00  0.00    +0.000 C 
ATOM     17  O   UNL     1       7.411   5.402  19.901  0.00  0.00    +0.000 OA
BRANCH  16  18
ATOM     18  C   UNL     1       6.317   5.501  17.747  0.00  0.00    +0.000 A 
ATOM     19  C   UNL     1       7.023   4.523  17.024  0.00  0.00    +0.000 A 
ATOM     20  C   UNL     1       6.882   4.439  15.634  0.00  0.00    +0.000 A 
ATOM     21  C   UNL     1       6.039   5.322  14.958  0.00  0.00    +0.000 A 
ATOM     22  C   UNL     1       5.354   6.307  15.665  0.00  0.00    +0.000 A 
ATOM     23  C   UNL     1       5.493   6.394  17.055  0.00  0.00    +0.000 A 
ENDBRANCH  16  18
ENDBRANCH  15  16
ENDBRANCH   8  15
TORSDOF 4
ENDMDL
MODEL 2
REMARK VINA RESULT:      -8.0      0.125      1.061
REMARK  Name = 
REMARK  5 active torsions:
REMARK  status: ('A' for Active; 'I' for Inactive)
REMARK    1  A    between atoms: C_1  and  N_2
REMARK    2  A    between atoms: C_7  and  C_8
REMARK    3  A    between atoms: C_11  and  O_12
REMARK    4  A    between atoms: O_12  and  C_13
REMARK    5  A    between atoms: C_13  and  C_15
REMARK                            x       y       z     vdW  Elec       q    Type
REMARK                         _______ _______ _______ _____ _____    ______ ____
ROOT
ATOM      1  C   UNL     1       1.390   2.814  21.789  0.00  0.00    +0.000 C 
ATOM      2  N   UNL     1       2.116   3.306  20.645  0.00  0.00    +0.000 NA
ATOM      3  C   UNL     1       2.852   2.303  19.897  0.00  0.00    +0.000 C 
ATOM      4  C   UNL     1       1.919   1.968  18.732  0.00  0.00    +0.000 C 
ATOM      5  C   UNL     1       1.054   3.200  18.522  0.00  0.00    +0.000 C 
ATOM      6  C   UNL     1       1.491   4.166  19.637  0.00  0.00    +0.000 C 
ATOM      7  C   UNL     1       2.595   5.094  19.054  0.00  0.00    +0.000 C 
ATOM      8  C   UNL     1       4.030   4.522  19.173  0.00  0.00    +0.000 C 
ATOM      9  C   UNL     1       4.162   3.053  19.658  0.00  0.00    +0.000 C 
ENDROOT
BRANCH   7  10
ATOM     10  C   UNL     1       2.391   6.565  19.310  0.00  0.00    +0.000 C 
ATOM     11  N   UNL     1       2.297   6.992  20.604  0.00  0.00    +0.000 N 
ATOM     12  O   UNL     1       2.283   7.387  18.404  0.00  0.00    +0.000 OA
ATOM     13  H   UNL     1       2.244   7.994  20.729  0.00  0.00    +0.000 HD
ATOM     14  H   UNL     1       2.803   6.470  21.317  0.00  0.00    +0.000 HD
ENDBRANCH   7  10
BRANCH   8  15
ATOM     15  O   UNL     1       5.069   5.352  19.772  0.00  0.00    +0.000 OA
BRANCH  15  16
ATOM     16  C   UNL     1       6.305   5.454  19.228  0.00  0.00    +0.000 C 
ATOM     17  O   UNL     1       7.361   5.526  19.843  0.00  0.00    +0.000 OA
BRANCH  16  18
ATOM     18  C   UNL     1       6.200   5.329  17.730  0.00  0.00    +0.000 A 
ATOM     19  C   UNL     1       5.403   6.254  17.034  0.00  0.00    +0.000 A 
ATOM     20  C   UNL     1       5.390   6.257  15.634  0.00  0.00    +0.000 A 
ATOM     21  C   UNL     1       6.171   5.345  14.922  0.00  0.00    +0.000 A 
ATOM     22  C   UNL     1       6.945   4.411  15.606  0.00  0.00    +0.000 A 
ATOM     23  C   UNL     1       6.959   4.405  17.004  0.00  0.00    +0.000 A 
ENDBRANCH  16  18
ENDBRANCH  15  16
ENDBRANCH   8  15
TORSDOF 4
ENDMDL
MODEL 3
REMARK VINA RESULT:      -7.8      2.458      5.578
REMARK  Name = 
REMARK  5 active torsions:
REMARK  status: ('A' for Active; 'I' for Inactive)
REMARK    1  A    between atoms: C_1  and  N_2
REMARK    2  A    between atoms: C_7  and  C_8
REMARK    3  A    between atoms: C_11  and  O_12
REMARK    4  A    between atoms: O_12  and  C_13
REMARK    5  A    between atoms: C_13  and  C_15
REMARK                            x       y       z     vdW  Elec       q    Type
REMARK                         _______ _______ _______ _____ _____    ______ ____
ROOT
ATOM      1  C   UNL     1       4.833   6.928  15.415  0.00  0.00    +0.000 C 
ATOM      2  N   UNL     1       5.478   5.839  16.106  0.00  0.00    +0.000 NA
ATOM      3  C   UNL     1       5.138   4.511  15.629  0.00  0.00    +0.000 C 
ATOM      4  C   UNL     1       6.298   4.156  14.699  0.00  0.00    +0.000 C 
ATOM      5  C   UNL     1       7.488   4.970  15.184  0.00  0.00    +0.000 C 
ATOM      6  C   UNL     1       6.923   5.814  16.340  0.00  0.00    +0.000 C 
ATOM      7  C   UNL     1       7.176   5.035  17.663  0.00  0.00    +0.000 C 
ATOM      8  C   UNL     1       6.056   4.029  18.030  0.00  0.00    +0.000 C 
ATOM      9  C   UNL     1       4.955   3.785  16.962  0.00  0.00    +0.000 C 
ENDROOT
BRANCH   7  10
ATOM     10  C   UNL     1       7.796   5.846  18.771  0.00  0.00    +0.000 C 
ATOM     11  N   UNL     1       8.005   5.244  19.979  0.00  0.00    +0.000 N 
ATOM     12  O   UNL     1       8.099   7.029  18.636  0.00  0.00    +0.000 OA
ATOM     13  H   UNL     1       8.498   5.801  20.664  0.00  0.00    +0.000 HD
ATOM     14  H   UNL     1       8.189   4.243  19.987  0.00  0.00    +0.000 HD
ENDBRANCH   7  10
BRANCH   8  15
ATOM     15  O   UNL     1       5.468   4.089  19.363  0.00  0.00    +0.000 OA
BRANCH  15  16
ATOM     16  C   UNL     1       4.744   3.064  19.872  0.00  0.00    +0.000 C 
ATOM     17  O   UNL     1       5.192   2.026  20.341  0.00  0.00    +0.000 OA
BRANCH  16  18
ATOM     18  C   UNL     1       3.288   3.451  19.900  0.00  0.00    +0.000 A 
ATOM     19  C   UNL     1       2.334   2.501  19.493  0.00  0.00    +0.000 A 
ATOM     20  C   UNL     1       0.969   2.772  19.635  0.00  0.00    +0.000 A 
ATOM     21  C   UNL     1       0.546   3.983  20.184  0.00  0.00    +0.000 A 
ATOM     22  C   UNL     1       1.485   4.937  20.569  0.00  0.00    +0.000 A 
ATOM     23  C   UNL     1       2.850   4.670  20.427  0.00  0.00    +0.000 A 
ENDBRANCH  16  18
ENDBRANCH  15  16
ENDBRANCH   8  15
TORSDOF 4
ENDMDL
MODEL 4
REMARK VINA RESULT:      -7.8      2.123      3.724
REMARK  Name = 
REMARK  5 active torsions:
REMARK  status: ('A' for Active; 'I' for Inactive)
REMARK    1  A    between atoms: C_1  and  N_2
REMARK    2  A    between atoms: C_7  and  C_8
REMARK    3  A    between atoms: C_11  and  O_12
REMARK    4  A    between atoms: O_12  and  C_13
REMARK    5  A    between atoms: C_13  and  C_15
REMARK                            x       y       z     vdW  Elec       q    Type
REMARK                         _______ _______ _______ _____ _____    ______ ____
ROOT
ATOM      1  C   UNL     1       0.321   2.531  18.934  0.00  0.00    +0.000 C 
ATOM      2  N   UNL     1       1.603   3.148  19.164  0.00  0.00    +0.000 NA
ATOM      3  C   UNL     1       1.641   4.588  18.993  0.00  0.00    +0.000 C 
ATOM      4  C   UNL     1       1.511   5.123  20.420  0.00  0.00    +0.000 C 
ATOM      5  C   UNL     1       2.045   4.026  21.327  0.00  0.00    +0.000 C 
ATOM      6  C   UNL     1       2.393   2.875  20.367  0.00  0.00    +0.000 C 
ATOM      7  C   UNL     1       3.896   3.012  19.990  0.00  0.00    +0.000 C 
ATOM      8  C   UNL     1       4.162   3.930  18.770  0.00  0.00    +0.000 C 
ATOM      9  C   UNL     1       2.952   4.734  18.220  0.00  0.00    +0.000 C 
ENDROOT
BRANCH   7  10
ATOM     10  C   UNL     1       4.702   1.745  20.117  0.00  0.00    +0.000 C 
ATOM     11  N   UNL     1       4.607   0.812  19.124  0.00  0.00    +0.000 N 
ATOM     12  O   UNL     1       5.421   1.511  21.085  0.00  0.00    +0.000 OA
ATOM     13  H   UNL     1       5.227   0.019  19.212  0.00  0.00    +0.000 HD
ATOM     14  H   UNL     1       4.414   1.139  18.179  0.00  0.00    +0.000 HD
ENDBRANCH   7  10
BRANCH   8  15
ATOM     15  O   UNL     1       4.976   3.420  17.672  0.00  0.00    +0.000 OA
BRANCH  15  16
ATOM     16  C   UNL     1       5.446   4.231  16.694  0.00  0.00    +0.000 C 
ATOM     17  O   UNL     1       5.058   4.263  15.534  0.00  0.00    +0.000 OA
BRANCH  16  18
ATOM     18  C   UNL     1       6.441   5.196  17.285  0.00  0.00    +0.000 A 
ATOM     19  C   UNL     1       6.419   6.532  16.849  0.00  0.00    +0.000 A 
ATOM     20  C   UNL     1       7.231   7.488  17.472  0.00  0.00    +0.000 A 
ATOM     21  C   UNL     1       8.063   7.120  18.530  0.00  0.00    +0.000 A 
ATOM     22  C   UNL     1       8.106   5.794  18.952  0.00  0.00    +0.000 A 
ATOM     23  C   UNL     1       7.296   4.837  18.331  0.00  0.00    +0.000 A 
ENDBRANCH  16  18
ENDBRANCH  15  16
ENDBRANCH   8  15
TORSDOF 4
ENDMDL
MODEL 5
REMARK VINA RESULT:      -7.8      3.071      4.328
REMARK  Name = 
REMARK  5 active torsions:
REMARK  status: ('A' for Active; 'I' for Inactive)
REMARK    1  A    between atoms: C_1  and  N_2
REMARK    2  A    between atoms: C_7  and  C_8
REMARK    3  A    between atoms: C_11  and  O_12
REMARK    4  A    between atoms: O_12  and  C_13
REMARK    5  A    between atoms: C_13  and  C_15
REMARK                            x       y       z     vdW  Elec       q    Type
REMARK                         _______ _______ _______ _____ _____    ______ ____
ROOT
ATOM      1  C   UNL     1       4.049   2.660  19.885  0.00  0.00    +0.000 C 
ATOM      2  N   UNL     1       4.311   3.630  18.852  0.00  0.00    +0.000 NA
ATOM      3  C   UNL     1       3.196   3.916  17.969  0.00  0.00    +0.000 C 
ATOM      4  C   UNL     1       2.601   5.201  18.547  0.00  0.00    +0.000 C 
ATOM      5  C   UNL     1       3.739   5.896  19.279  0.00  0.00    +0.000 C 
ATOM      6  C   UNL     1       4.927   4.928  19.140  0.00  0.00    +0.000 C 
ATOM      7  C   UNL     1       5.743   5.356  17.887  0.00  0.00    +0.000 C 
ATOM      8  C   UNL     1       5.247   4.723  16.562  0.00  0.00    +0.000 C 
ATOM      9  C   UNL     1       3.915   3.927  16.620  0.00  0.00    +0.000 C 
ENDROOT
BRANCH   7  10
ATOM     10  C   UNL     1       7.229   5.477  18.106  0.00  0.00    +0.000 C 
ATOM     11  N   UNL     1       7.981   4.337  18.106  0.00  0.00    +0.000 N 
ATOM     12  O   UNL     1       7.783   6.555  18.307  0.00  0.00    +0.000 OA
ATOM     13  H   UNL     1       8.980   4.475  18.173  0.00  0.00    +0.000 HD
ATOM     14  H   UNL     1       7.666   3.558  17.531  0.00  0.00    +0.000 HD
ENDBRANCH   7  10
BRANCH   8  15
ATOM     15  O   UNL     1       6.212   4.041  15.706  0.00  0.00    +0.000 OA
BRANCH  15  16
ATOM     16  C   UNL     1       6.773   4.651  14.635  0.00  0.00    +0.000 C 
ATOM     17  O   UNL     1       7.628   5.526  14.668  0.00  0.00    +0.000 OA
BRANCH  16  18
ATOM     18  C   UNL     1       6.282   3.989  13.373  0.00  0.00    +0.000 A 
ATOM     19  C   UNL     1       7.217   3.341  12.548  0.00  0.00    +0.000 A 
ATOM     20  C   UNL     1       6.784   2.599  11.443  0.00  0.00    +0.000 A 
ATOM     21  C   UNL     1       5.422   2.495  11.157  0.00  0.00    +0.000 A 
ATOM     22  C   UNL     1       4.492   3.152  11.958  0.00  0.00    +0.000 A 
ATOM     23  C   UNL     1       4.922   3.896  13.062  0.00  0.00    +0.000 A 
ENDBRANCH  16  18
ENDBRANCH  15  16
ENDBRANCH   8  15
TORSDOF 4
ENDMDL
MODEL 6
REMARK VINA RESULT:      -7.8      2.409      5.648
REMARK  Name = 
REMARK  5 active torsions:
REMARK  status: ('A' for Active; 'I' for Inactive)
REMARK    1  A    between atoms: C_1  and  N_2
REMARK    2  A    between atoms: C_7  and  C_8
REMARK    3  A    between atoms: C_11  and  O_12
REMARK    4  A    between atoms: O_12  and  C_13
REMARK    5  A    between atoms: C_13  and  C_15
REMARK                            x       y       z     vdW  Elec       q    Type
REMARK                         _______ _______ _______ _____ _____    ______ ____
ROOT
ATOM      1  C   UNL     1       4.869   6.942  15.529  0.00  0.00    +0.000 C 
ATOM      2  N   UNL     1       5.442   5.812  16.216  0.00  0.00    +0.000 NA
ATOM      3  C   UNL     1       5.102   4.512  15.667  0.00  0.00    +0.000 C 
ATOM      4  C   UNL     1       6.312   4.163  14.799  0.00  0.00    +0.000 C 
ATOM      5  C   UNL     1       7.486   4.926  15.391  0.00  0.00    +0.000 C 
ATOM      6  C   UNL     1       6.868   5.740  16.541  0.00  0.00    +0.000 C 
ATOM      7  C   UNL     1       7.017   4.905  17.845  0.00  0.00    +0.000 C 
ATOM      8  C   UNL     1       5.852   3.915  18.100  0.00  0.00    +0.000 C 
ATOM      9  C   UNL     1       4.817   3.741  16.956  0.00  0.00    +0.000 C 
ENDROOT
BRANCH   7  10
ATOM     10  C   UNL     1       7.583   5.658  19.022  0.00  0.00    +0.000 C 
ATOM     11  N   UNL     1       8.125   6.892  18.803  0.00  0.00    +0.000 N 
ATOM     12  O   UNL     1       7.595   5.197  20.160  0.00  0.00    +0.000 OA
ATOM     13  H   UNL     1       8.416   7.393  19.631  0.00  0.00    +0.000 HD
ATOM     14  H   UNL     1       7.746   7.451  18.041  0.00  0.00    +0.000 HD
ENDBRANCH   7  10
BRANCH   8  15
ATOM     15  O   UNL     1       5.181   3.941  19.395  0.00  0.00    +0.000 OA
BRANCH  15  16
ATOM     16  C   UNL     1       4.624   2.830  19.933  0.00  0.00    +0.000 C 
ATOM     17  O   UNL     1       5.226   1.902  20.458  0.00  0.00    +0.000 OA
BRANCH  16  18
ATOM     18  C   UNL     1       3.124   2.966  19.912  0.00  0.00    +0.000 A 
ATOM     19  C   UNL     1       2.536   4.020  20.633  0.00  0.00    +0.000 A 
ATOM     20  C   UNL     1       1.162   4.263  20.527  0.00  0.00    +0.000 A 
ATOM     21  C   UNL     1       0.369   3.464  19.703  0.00  0.00    +0.000 A 
ATOM     22  C   UNL     1       0.940   2.405  19.004  0.00  0.00    +0.000 A 
ATOM     23  C   UNL     1       2.313   2.158  19.108  0.00  0.00    +0.000 A 
ENDBRANCH  16  18
ENDBRANCH  15  16
ENDBRANCH   8  15
TORSDOF 4
ENDMDL
MODEL 7
REMARK VINA RESULT:      -7.7      2.451      3.963
REMARK  Name = 
REMARK  5 active torsions:
REMARK  status: ('A' for Active; 'I' for Inactive)
REMARK    1  A    between atoms: C_1  and  N_2
REMARK    2  A    between atoms: C_7  and  C_8
REMARK    3  A    between atoms: C_11  and  O_12
REMARK    4  A    between atoms: O_12  and  C_13
REMARK    5  A    between atoms: C_13  and  C_15
REMARK                            x       y       z     vdW  Elec       q    Type
REMARK                         _______ _______ _______ _____ _____    ______ ____
ROOT
ATOM      1  C   UNL     1       4.151   2.624  18.489  0.00  0.00    +0.000 C 
ATOM      2  N   UNL     1       4.473   4.011  18.265  0.00  0.00    +0.000 NA
ATOM      3  C   UNL     1       3.500   4.759  17.491  0.00  0.00    +0.000 C 
ATOM      4  C   UNL     1       2.671   5.478  18.556  0.00  0.00    +0.000 C 
ATOM      5  C   UNL     1       3.579   5.619  19.768  0.00  0.00    +0.000 C 
ATOM      6  C   UNL     1       4.876   4.902  19.355  0.00  0.00    +0.000 C 
ATOM      7  C   UNL     1       5.840   5.970  18.764  0.00  0.00    +0.000 C 
ATOM      8  C   UNL     1       5.655   6.219  17.246  0.00  0.00    +0.000 C 
ATOM      9  C   UNL     1       4.433   5.542  16.568  0.00  0.00    +0.000 C 
ENDROOT
BRANCH   7  10
ATOM     10  C   UNL     1       7.243   5.936  19.315  0.00  0.00    +0.000 C 
ATOM     11  N   UNL     1       8.171   6.785  18.782  0.00  0.00    +0.000 N 
ATOM     12  O   UNL     1       7.586   5.163  20.205  0.00  0.00    +0.000 OA
ATOM     13  H   UNL     1       9.072   6.785  19.238  0.00  0.00    +0.000 HD
ATOM     14  H   UNL     1       7.845   7.676  18.413  0.00  0.00    +0.000 HD
ENDBRANCH   7  10
BRANCH   8  15
ATOM     15  O   UNL     1       6.824   6.151  16.376  0.00  0.00    +0.000 OA
BRANCH  15  16
ATOM     16  C   UNL     1       7.372   4.969  16.007  0.00  0.00    +0.000 C 
ATOM     17  O   UNL     1       7.934   4.172  16.746  0.00  0.00    +0.000 OA
BRANCH  16  18
ATOM     18  C   UNL     1       7.067   4.713  14.554  0.00  0.00    +0.000 A 
ATOM     19  C   UNL     1       7.844   5.364  13.580  0.00  0.00    +0.000 A 
ATOM     20  C   UNL     1       7.685   5.047  12.226  0.00  0.00    +0.000 A 
ATOM     21  C   UNL     1       6.756   4.081  11.836  0.00  0.00    +0.000 A 
ATOM     22  C   UNL     1       5.968   3.449  12.793  0.00  0.00    +0.000 A 
ATOM     23  C   UNL     1       6.124   3.764  14.146  0.00  0.00    +0.000 A 
ENDBRANCH  16  18
ENDBRANCH  15  16
ENDBRANCH   8  15
TORSDOF 4
ENDMDL
MODEL 8
REMARK VINA RESULT:      -7.6      2.373      5.631
REMARK  Name = 
REMARK  5 active torsions:
REMARK  status: ('A' for Active; 'I' for Inactive)
REMARK    1  A    between atoms: C_1  and  N_2
REMARK    2  A    between atoms: C_7  and  C_8
REMARK    3  A    between atoms: C_11  and  O_12
REMARK    4  A    between atoms: O_12  and  C_13
REMARK    5  A    between atoms: C_13  and  C_15
REMARK                            x       y       z     vdW  Elec       q    Type
REMARK                         _______ _______ _______ _____ _____    ______ ____
ROOT
ATOM      1  C   UNL     1       4.905   6.887  15.233  0.00  0.00    +0.000 C 
ATOM      2  N   UNL     1       5.497   5.827  16.011  0.00  0.00    +0.000 NA
ATOM      3  C   UNL     1       5.109   4.482  15.629  0.00  0.00    +0.000 C 
ATOM      4  C   UNL     1       6.264   4.014  14.743  0.00  0.00    +0.000 C 
ATOM      5  C   UNL     1       7.480   4.813  15.184  0.00  0.00    +0.000 C 
ATOM      6  C   UNL     1       6.938   5.762  16.267  0.00  0.00    +0.000 C 
ATOM      7  C   UNL     1       7.145   5.073  17.647  0.00  0.00    +0.000 C 
ATOM      8  C   UNL     1       5.980   4.142  18.070  0.00  0.00    +0.000 C 
ATOM      9  C   UNL     1       4.882   3.864  17.008  0.00  0.00    +0.000 C 
ENDROOT
BRANCH   7  10
ATOM     10  C   UNL     1       7.785   5.939  18.701  0.00  0.00    +0.000 C 
ATOM     11  N   UNL     1       8.049   5.388  19.922  0.00  0.00    +0.000 N 
ATOM     12  O   UNL     1       8.056   7.122  18.511  0.00  0.00    +0.000 OA
ATOM     13  H   UNL     1       8.553   5.980  20.567  0.00  0.00    +0.000 HD
ATOM     14  H   UNL     1       8.256   4.391  19.961  0.00  0.00    +0.000 HD
ENDBRANCH   7  10
BRANCH   8  15
ATOM     15  O   UNL     1       5.381   4.324  19.388  0.00  0.00    +0.000 OA
BRANCH  15  16
ATOM     16  C   UNL     1       4.300   5.117  19.578  0.00  0.00    +0.000 C 
ATOM     17  O   UNL     1       4.224   6.309  19.313  0.00  0.00    +0.000 OA
BRANCH  16  18
ATOM     18  C   UNL     1       3.142   4.274  20.046  0.00  0.00    +0.000 A 
ATOM     19  C   UNL     1       3.410   3.158  20.858  0.00  0.00    +0.000 A 
ATOM     20  C   UNL     1       2.356   2.433  21.426  0.00  0.00    +0.000 A 
ATOM     21  C   UNL     1       1.034   2.816  21.193  0.00  0.00    +0.000 A 
ATOM     22  C   UNL     1       0.762   3.906  20.372  0.00  0.00    +0.000 A 
ATOM     23  C   UNL     1       1.813   4.632  19.802  0.00  0.00    +0.000 A 
ENDBRANCH  16  18
ENDBRANCH  15  16
ENDBRANCH   8  15
TORSDOF 4
ENDMDL
MODEL 9
REMARK VINA RESULT:      -7.6      2.577      3.827
REMARK  Name = 
REMARK  5 active torsions:
REMARK  status: ('A' for Active; 'I' for Inactive)
REMARK    1  A    between atoms: C_1  and  N_2
REMARK    2  A    between atoms: C_7  and  C_8
REMARK    3  A    between atoms: C_11  and  O_12
REMARK    4  A    between atoms: O_12  and  C_13
REMARK    5  A    between atoms: C_13  and  C_15
REMARK                            x       y       z     vdW  Elec       q    Type
REMARK                         _______ _______ _______ _____ _____    ______ ____
ROOT
ATOM      1  C   UNL     1       3.957   2.318  20.199  0.00  0.00    +0.000 C 
ATOM      2  N   UNL     1       4.196   3.385  19.259  0.00  0.00    +0.000 NA
ATOM      3  C   UNL     1       3.181   3.552  18.236  0.00  0.00    +0.000 C 
ATOM      4  C   UNL     1       2.309   4.686  18.777  0.00  0.00    +0.000 C 
ATOM      5  C   UNL     1       3.205   5.499  19.697  0.00  0.00    +0.000 C 
ATOM      6  C   UNL     1       4.544   4.741  19.692  0.00  0.00    +0.000 C 
ATOM      7  C   UNL     1       5.443   5.375  18.592  0.00  0.00    +0.000 C 
ATOM      8  C   UNL     1       5.245   4.763  17.182  0.00  0.00    +0.000 C 
ATOM      9  C   UNL     1       4.067   3.766  17.009  0.00  0.00    +0.000 C 
ENDROOT
BRANCH   7  10
ATOM     10  C   UNL     1       6.844   5.712  19.032  0.00  0.00    +0.000 C 
ATOM     11  N   UNL     1       7.596   6.530  18.237  0.00  0.00    +0.000 N 
ATOM     12  O   UNL     1       7.341   5.265  20.063  0.00  0.00    +0.000 OA
ATOM     13  H   UNL     1       8.495   6.795  18.612  0.00  0.00    +0.000 HD
ATOM     14  H   UNL     1       7.110   7.229  17.678  0.00  0.00    +0.000 HD
ENDBRANCH   7  10
BRANCH   8  15
ATOM     15  O   UNL     1       6.417   4.300  16.447  0.00  0.00    +0.000 OA
BRANCH  15  16
ATOM     16  C   UNL     1       6.935   5.002  15.412  0.00  0.00    +0.000 C 
ATOM     17  O   UNL     1       7.686   5.965  15.497  0.00  0.00    +0.000 OA
BRANCH  16  18
ATOM     18  C   UNL     1       6.554   4.332  14.118  0.00  0.00    +0.000 A 
ATOM     19  C   UNL     1       5.219   3.928  13.939  0.00  0.00    +0.000 A 
ATOM     20  C   UNL     1       4.795   3.430  12.702  0.00  0.00    +0.000 A 
ATOM     21  C   UNL     1       5.693   3.335  11.638  0.00  0.00    +0.000 A 
ATOM     22  C   UNL     1       7.021   3.713  11.814  0.00  0.00    +0.000 A 
ATOM     23  C   UNL     1       7.448   4.210  13.050  0.00  0.00    +0.000 A 
ENDBRANCH  16  18
ENDBRANCH  15  16
ENDBRANCH   8  15
TORSDOF 4
ENDMDL
