MODEL 1
REMARK VINA RESULT:      -8.3      0.000      0.000
REMARK  Name = 
REMARK  6 active torsions:
REMARK  status: ('A' for Active; 'I' for Inactive)
REMARK    1  A    between atoms: C_4  and  C_5
REMARK    2  A    between atoms: C_5  and  C_6
REMARK    3  A    between atoms: C_6  and  C_7
REMARK    4  A    between atoms: C_7  and  S_8
REMARK    5  A    between atoms: S_8  and  C_9
REMARK    6  A    between atoms: C_13  and  C_14
REMARK                            x       y       z     vdW  Elec       q    Type
REMARK                         _______ _______ _______ _____ _____    ______ ____
ROOT
ATOM      1  C   UNL     1       6.679   5.233  16.950  0.00  0.00    +0.000 A 
ATOM      2  N   UNL     1       7.289   4.977  15.794  0.00  0.00    +0.000 NA
ATOM      3  S   UNL     1       6.224   3.986  14.965  0.00  0.00    +0.000 S 
ATOM      4  N   UNL     1       4.964   3.891  16.067  0.00  0.00    +0.000 NA
ATOM      5  C   UNL     1       5.366   4.611  17.117  0.00  0.00    +0.000 A 
ENDROOT
BRANCH   5   6
ATOM      6  C   UNL     1       4.584   4.604  18.397  0.00  0.00    +0.000 C 
ATOM      7  C   UNL     1       4.394   3.310  19.181  0.00  0.00    +0.000 C 
ATOM      8  N   UNL     1       3.266   3.613  20.125  0.00  0.00    +0.000 NA
ATOM      9  C   UNL     1       2.047   2.898  19.706  0.00  0.00    +0.000 C 
ATOM     10  C   UNL     1       1.667   3.159  18.242  0.00  0.00    +0.000 C 
ATOM     11  C   UNL     1       2.003   4.579  17.753  0.00  0.00    +0.000 C 
ATOM     12  C   UNL     1       3.200   5.256  18.464  0.00  0.00    +0.000 C 
ATOM     13  C   UNL     1       2.989   5.064  19.964  0.00  0.00    +0.000 C 
ENDBRANCH   5   6
BRANCH   1  14
ATOM     14  S   UNL     1       7.471   6.187  18.208  0.00  0.00    +0.000 S 
BRANCH  14  15
ATOM     15  C   UNL     1       7.279   7.911  17.658  0.00  0.00    +0.000 C 
BRANCH  15  16
ATOM     16  C   UNL     1       8.565   8.682  18.004  0.00  0.00    +0.000 C 
BRANCH  16  17
ATOM     17  C   UNL     1       8.314  10.190  18.117  0.00  0.00    +0.000 C 
BRANCH  17  21
ATOM     18  C   UNL     1      11.687  12.199  19.938  0.00  0.00    +0.000 A 
ATOM     19  C   UNL     1      11.685  11.943  18.568  0.00  0.00    +0.000 A 
ATOM     20  C   UNL     1      10.592  11.297  17.978  0.00  0.00    +0.000 A 
ATOM     21  C   UNL     1       9.488  10.907  18.754  0.00  0.00    +0.000 A 
ATOM     22  C   UNL     1       9.510  11.169  20.131  0.00  0.00    +0.000 A 
ATOM     23  C   UNL     1      10.603  11.814  20.717  0.00  0.00    +0.000 A 
ENDBRANCH  17  21
ENDBRANCH  16  17
ENDBRANCH  15  16
ENDBRANCH  14  15
ENDBRANCH   1  14
TORSDOF 6
ENDMDL
MODEL 2
REMARK VINA RESULT:      -8.1      0.705      1.254
REMARK  Name = 
REMARK  6 active torsions:
REMARK  status: ('A' for Active; 'I' for Inactive)
REMARK    1  A    between atoms: C_4  and  C_5
REMARK    2  A    between atoms: C_5  and  C_6
REMARK    3  A    between atoms: C_6  and  C_7
REMARK    4  A    between atoms: C_7  and  S_8
REMARK    5  A    between atoms: S_8  and  C_9
REMARK    6  A    between atoms: C_13  and  C_14
REMARK                            x       y       z     vdW  Elec       q    Type
REMARK                         _______ _______ _______ _____ _____    ______ ____
ROOT
ATOM      1  C   UNL     1       6.754   4.836  16.679  0.00  0.00    +0.000 A 
ATOM      2  N   UNL     1       7.364   4.803  15.495  0.00  0.00    +0.000 NA
ATOM      3  S   UNL     1       6.312   3.961  14.501  0.00  0.00    +0.000 S 
ATOM      4  N   UNL     1       5.057   3.648  15.568  0.00  0.00    +0.000 NA
ATOM      5  C   UNL     1       5.452   4.172  16.731  0.00  0.00    +0.000 A 
ENDROOT
BRANCH   5   6
ATOM      6  C   UNL     1       4.674   3.921  17.989  0.00  0.00    +0.000 C 
ATOM      7  C   UNL     1       3.799   2.680  18.123  0.00  0.00    +0.000 C 
ATOM      8  N   UNL     1       2.906   2.984  19.292  0.00  0.00    +0.000 NA
ATOM      9  C   UNL     1       1.530   3.237  18.828  0.00  0.00    +0.000 C 
ATOM     10  C   UNL     1       1.449   4.315  17.739  0.00  0.00    +0.000 C 
ATOM     11  C   UNL     1       2.490   5.438  17.892  0.00  0.00    +0.000 C 
ATOM     12  C   UNL     1       3.806   5.025  18.598  0.00  0.00    +0.000 C 
ATOM     13  C   UNL     1       3.410   4.261  19.859  0.00  0.00    +0.000 C 
ENDBRANCH   5   6
BRANCH   1  14
ATOM     14  S   UNL     1       7.535   5.560  18.088  0.00  0.00    +0.000 S 
BRANCH  14  15
ATOM     15  C   UNL     1       7.136   7.331  17.969  0.00  0.00    +0.000 C 
BRANCH  15  16
ATOM     16  C   UNL     1       8.374   8.142  18.388  0.00  0.00    +0.000 C 
BRANCH  16  17
ATOM     17  C   UNL     1       8.304   9.591  17.890  0.00  0.00    +0.000 C 
BRANCH  17  21
ATOM     18  C   UNL     1      11.185  12.137  19.876  0.00  0.00    +0.000 A 
ATOM     19  C   UNL     1      10.237  11.442  20.624  0.00  0.00    +0.000 A 
ATOM     20  C   UNL     1       9.308  10.615  19.982  0.00  0.00    +0.000 A 
ATOM     21  C   UNL     1       9.323  10.471  18.585  0.00  0.00    +0.000 A 
ATOM     22  C   UNL     1      10.282  11.181  17.848  0.00  0.00    +0.000 A 
ATOM     23  C   UNL     1      11.208  12.007  18.493  0.00  0.00    +0.000 A 
ENDBRANCH  17  21
ENDBRANCH  16  17
ENDBRANCH  15  16
ENDBRANCH  14  15
ENDBRANCH   1  14
TORSDOF 6
ENDMDL
MODEL 3
REMARK VINA RESULT:      -7.9      0.543      1.141
REMARK  Name = 
REMARK  6 active torsions:
REMARK  status: ('A' for Active; 'I' for Inactive)
REMARK    1  A    between atoms: C_4  and  C_5
REMARK    2  A    between atoms: C_5  and  C_6
REMARK    3  A    between atoms: C_6  and  C_7
REMARK    4  A    between atoms: C_7  and  S_8
REMARK    5  A    between atoms: S_8  and  C_9
REMARK    6  A    between atoms: C_13  and  C_14
REMARK                            x       y       z     vdW  Elec       q    Type
REMARK                         _______ _______ _______ _____ _____    ______ ____
ROOT
ATOM      1  C   UNL     1       6.024   5.771  16.776  0.00  0.00    +0.000 A 
ATOM      2  N   UNL     1       6.744   5.627  15.664  0.00  0.00    +0.000 NA
ATOM      3  S   UNL     1       6.244   4.163  15.023  0.00  0.00    +0.000 S 
ATOM      4  N   UNL     1       5.088   3.708  16.150  0.00  0.00    +0.000 NA
ATOM      5  C   UNL     1       5.094   4.681  17.064  0.00  0.00    +0.000 A 
ENDROOT
BRANCH   5   6
ATOM      6  C   UNL     1       4.323   4.535  18.344  0.00  0.00    +0.000 C 
ATOM      7  C   UNL     1       4.357   3.224  19.121  0.00  0.00    +0.000 C 
ATOM      8  N   UNL     1       3.193   3.327  20.066  0.00  0.00    +0.000 NA
ATOM      9  C   UNL     1       2.113   2.417  19.643  0.00  0.00    +0.000 C 
ATOM     10  C   UNL     1       1.694   2.616  18.180  0.00  0.00    +0.000 C 
ATOM     11  C   UNL     1       1.784   4.075  17.698  0.00  0.00    +0.000 C 
ATOM     12  C   UNL     1       2.850   4.942  18.413  0.00  0.00    +0.000 C 
ATOM     13  C   UNL     1       2.674   4.710  19.913  0.00  0.00    +0.000 C 
ENDBRANCH   5   6
BRANCH   1  14
ATOM     14  S   UNL     1       6.273   7.150  17.851  0.00  0.00    +0.000 S 
BRANCH  14  15
ATOM     15  C   UNL     1       7.792   7.938  17.234  0.00  0.00    +0.000 C 
BRANCH  15  16
ATOM     16  C   UNL     1       8.360   8.844  18.340  0.00  0.00    +0.000 C 
BRANCH  16  17
ATOM     17  C   UNL     1       8.518  10.293  17.869  0.00  0.00    +0.000 C 
BRANCH  17  21
ATOM     18  C   UNL     1      11.826  12.291  19.815  0.00  0.00    +0.000 A 
ATOM     19  C   UNL     1      10.768  11.796  20.574  0.00  0.00    +0.000 A 
ATOM     20  C   UNL     1       9.699  11.145  19.944  0.00  0.00    +0.000 A 
ATOM     21  C   UNL     1       9.684  10.980  18.550  0.00  0.00    +0.000 A 
ATOM     22  C   UNL     1      10.756  11.489  17.803  0.00  0.00    +0.000 A 
ATOM     23  C   UNL     1      11.821  12.138  18.434  0.00  0.00    +0.000 A 
ENDBRANCH  17  21
ENDBRANCH  16  17
ENDBRANCH  15  16
ENDBRANCH  14  15
ENDBRANCH   1  14
TORSDOF 6
ENDMDL
MODEL 4
REMARK VINA RESULT:      -7.7      0.844      1.161
REMARK  Name = 
REMARK  6 active torsions:
REMARK  status: ('A' for Active; 'I' for Inactive)
REMARK    1  A    between atoms: C_4  and  C_5
REMARK    2  A    between atoms: C_5  and  C_6
REMARK    3  A    between atoms: C_6  and  C_7
REMARK    4  A    between atoms: C_7  and  S_8
REMARK    5  A    between atoms: S_8  and  C_9
REMARK    6  A    between atoms: C_13  and  C_14
REMARK                            x       y       z     vdW  Elec       q    Type
REMARK                         _______ _______ _______ _____ _____    ______ ____
ROOT
ATOM      1  C   UNL     1       6.497   5.606  16.913  0.00  0.00    +0.000 A 
ATOM      2  N   UNL     1       7.145   5.449  15.758  0.00  0.00    +0.000 NA
ATOM      3  S   UNL     1       6.228   4.338  14.906  0.00  0.00    +0.000 S 
ATOM      4  N   UNL     1       4.983   4.059  15.995  0.00  0.00    +0.000 NA
ATOM      5  C   UNL     1       5.278   4.811  17.058  0.00  0.00    +0.000 A 
ENDROOT
BRANCH   5   6
ATOM      6  C   UNL     1       4.493   4.681  18.331  0.00  0.00    +0.000 C 
ATOM      7  C   UNL     1       4.453   3.355  19.082  0.00  0.00    +0.000 C 
ATOM      8  N   UNL     1       3.291   3.501  20.023  0.00  0.00    +0.000 NA
ATOM      9  C   UNL     1       2.167   2.658  19.576  0.00  0.00    +0.000 C 
ATOM     10  C   UNL     1       1.768   2.907  18.115  0.00  0.00    +0.000 C 
ATOM     11  C   UNL     1       1.937   4.368  17.662  0.00  0.00    +0.000 C 
ATOM     12  C   UNL     1       3.042   5.164  18.400  0.00  0.00    +0.000 C 
ATOM     13  C   UNL     1       2.846   4.913  19.894  0.00  0.00    +0.000 C 
ENDBRANCH   5   6
BRANCH   1  14
ATOM     14  S   UNL     1       7.145   6.638  18.190  0.00  0.00    +0.000 S 
BRANCH  14  15
ATOM     15  C   UNL     1       8.141   7.879  17.309  0.00  0.00    +0.000 C 
BRANCH  15  16
ATOM     16  C   UNL     1       7.911   9.251  17.966  0.00  0.00    +0.000 C 
BRANCH  16  17
ATOM     17  C   UNL     1       9.041   9.619  18.934  0.00  0.00    +0.000 C 
BRANCH  17  21
ATOM     18  C   UNL     1      10.797  13.444  17.929  0.00  0.00    +0.000 A 
ATOM     19  C   UNL     1       9.474  13.173  17.585  0.00  0.00    +0.000 A 
ATOM     20  C   UNL     1       8.905  11.937  17.914  0.00  0.00    +0.000 A 
ATOM     21  C   UNL     1       9.653  10.963  18.596  0.00  0.00    +0.000 A 
ATOM     22  C   UNL     1      10.984  11.252  18.930  0.00  0.00    +0.000 A 
ATOM     23  C   UNL     1      11.549  12.487  18.599  0.00  0.00    +0.000 A 
ENDBRANCH  17  21
ENDBRANCH  16  17
ENDBRANCH  15  16
ENDBRANCH  14  15
ENDBRANCH   1  14
TORSDOF 6
ENDMDL
MODEL 5
REMARK VINA RESULT:      -7.7      0.917      1.206
REMARK  Name = 
REMARK  6 active torsions:
REMARK  status: ('A' for Active; 'I' for Inactive)
REMARK    1  A    between atoms: C_4  and  C_5
REMARK    2  A    between atoms: C_5  and  C_6
REMARK    3  A    between atoms: C_6  and  C_7
REMARK    4  A    between atoms: C_7  and  S_8
REMARK    5  A    between atoms: S_8  and  C_9
REMARK    6  A    between atoms: C_13  and  C_14
REMARK                            x       y       z     vdW  Elec       q    Type
REMARK                         _______ _______ _______ _____ _____    ______ ____
ROOT
ATOM      1  C   UNL     1       6.004   5.833  16.722  0.00  0.00    +0.000 A 
ATOM      2  N   UNL     1       6.735   5.669  15.620  0.00  0.00    +0.000 NA
ATOM      3  S   UNL     1       6.399   4.108  15.118  0.00  0.00    +0.000 S 
ATOM      4  N   UNL     1       5.300   3.632  16.292  0.00  0.00    +0.000 NA
ATOM      5  C   UNL     1       5.199   4.678  17.116  0.00  0.00    +0.000 A 
ENDROOT
BRANCH   5   6
ATOM      6  C   UNL     1       4.449   4.564  18.411  0.00  0.00    +0.000 C 
ATOM      7  C   UNL     1       4.293   3.212  19.098  0.00  0.00    +0.000 C 
ATOM      8  N   UNL     1       3.186   3.430  20.090  0.00  0.00    +0.000 NA
ATOM      9  C   UNL     1       1.964   2.734  19.649  0.00  0.00    +0.000 C 
ATOM     10  C   UNL     1       1.544   3.101  18.219  0.00  0.00    +0.000 C 
ATOM     11  C   UNL     1       1.853   4.558  17.831  0.00  0.00    +0.000 C 
ATOM     12  C   UNL     1       3.062   5.193  18.562  0.00  0.00    +0.000 C 
ATOM     13  C   UNL     1       2.892   4.885  20.048  0.00  0.00    +0.000 C 
ENDBRANCH   5   6
BRANCH   1  14
ATOM     14  S   UNL     1       6.099   7.322  17.667  0.00  0.00    +0.000 S 
BRANCH  14  15
ATOM     15  C   UNL     1       7.863   7.769  17.631  0.00  0.00    +0.000 C 
BRANCH  15  16
ATOM     16  C   UNL     1       7.983   9.300  17.734  0.00  0.00    +0.000 C 
BRANCH  16  17
ATOM     17  C   UNL     1       8.892   9.726  18.893  0.00  0.00    +0.000 C 
BRANCH  17  21
ATOM     18  C   UNL     1      11.014  13.397  18.030  0.00  0.00    +0.000 A 
ATOM     19  C   UNL     1      11.656  12.365  18.710  0.00  0.00    +0.000 A 
ATOM     20  C   UNL     1      10.971  11.175  18.985  0.00  0.00    +0.000 A 
ATOM     21  C   UNL     1       9.638  11.006  18.577  0.00  0.00    +0.000 A 
ATOM     22  C   UNL     1       9.006  12.058  17.897  0.00  0.00    +0.000 A 
ATOM     23  C   UNL     1       9.694  13.245  17.624  0.00  0.00    +0.000 A 
ENDBRANCH  17  21
ENDBRANCH  16  17
ENDBRANCH  15  16
ENDBRANCH  14  15
ENDBRANCH   1  14
TORSDOF 6
ENDMDL
MODEL 6
REMARK VINA RESULT:      -7.3      0.978      1.713
REMARK  Name = 
REMARK  6 active torsions:
REMARK  status: ('A' for Active; 'I' for Inactive)
REMARK    1  A    between atoms: C_4  and  C_5
REMARK    2  A    between atoms: C_5  and  C_6
REMARK    3  A    between atoms: C_6  and  C_7
REMARK    4  A    between atoms: C_7  and  S_8
REMARK    5  A    between atoms: S_8  and  C_9
REMARK    6  A    between atoms: C_13  and  C_14
REMARK                            x       y       z     vdW  Elec       q    Type
REMARK                         _______ _______ _______ _____ _____    ______ ____
ROOT
ATOM      1  C   UNL     1       6.759   5.522  16.307  0.00  0.00    +0.000 A 
ATOM      2  N   UNL     1       7.623   5.226  15.336  0.00  0.00    +0.000 NA
ATOM      3  S   UNL     1       6.682   4.563  14.120  0.00  0.00    +0.000 S 
ATOM      4  N   UNL     1       5.159   4.665  14.813  0.00  0.00    +0.000 NA
ATOM      5  C   UNL     1       5.363   5.195  16.022  0.00  0.00    +0.000 A 
ENDROOT
BRANCH   5   6
ATOM      6  C   UNL     1       4.251   5.263  17.027  0.00  0.00    +0.000 C 
ATOM      7  C   UNL     1       4.529   5.702  18.461  0.00  0.00    +0.000 C 
ATOM      8  N   UNL     1       3.312   5.261  19.223  0.00  0.00    +0.000 NA
ATOM      9  C   UNL     1       3.643   4.113  20.088  0.00  0.00    +0.000 C 
ATOM     10  C   UNL     1       4.304   2.956  19.328  0.00  0.00    +0.000 C 
ATOM     11  C   UNL     1       3.798   2.786  17.884  0.00  0.00    +0.000 C 
ATOM     12  C   UNL     1       3.292   4.083  17.205  0.00  0.00    +0.000 C 
ATOM     13  C   UNL     1       2.356   4.766  18.200  0.00  0.00    +0.000 C 
ENDBRANCH   5   6
BRANCH   1  14
ATOM     14  S   UNL     1       7.312   6.176  17.851  0.00  0.00    +0.000 S 
BRANCH  14  15
ATOM     15  C   UNL     1       7.145   7.978  17.666  0.00  0.00    +0.000 C 
BRANCH  15  16
ATOM     16  C   UNL     1       8.421   8.647  18.205  0.00  0.00    +0.000 C 
BRANCH  16  17
ATOM     17  C   UNL     1       8.596  10.069  17.660  0.00  0.00    +0.000 C 
BRANCH  17  21
ATOM     18  C   UNL     1      11.330  12.409  20.063  0.00  0.00    +0.000 A 
ATOM     19  C   UNL     1      10.253  11.762  20.665  0.00  0.00    +0.000 A 
ATOM     20  C   UNL     1       9.370  11.001  19.888  0.00  0.00    +0.000 A 
ATOM     21  C   UNL     1       9.562  10.877  18.502  0.00  0.00    +0.000 A 
ATOM     22  C   UNL     1      10.650  11.539  17.914  0.00  0.00    +0.000 A 
ATOM     23  C   UNL     1      11.529  12.297  18.693  0.00  0.00    +0.000 A 
ENDBRANCH  17  21
ENDBRANCH  16  17
ENDBRANCH  15  16
ENDBRANCH  14  15
ENDBRANCH   1  14
TORSDOF 6
ENDMDL
MODEL 7
REMARK VINA RESULT:      -7.2      4.384      6.253
REMARK  Name = 
REMARK  6 active torsions:
REMARK  status: ('A' for Active; 'I' for Inactive)
REMARK    1  A    between atoms: C_4  and  C_5
REMARK    2  A    between atoms: C_5  and  C_6
REMARK    3  A    between atoms: C_6  and  C_7
REMARK    4  A    between atoms: C_7  and  S_8
REMARK    5  A    between atoms: S_8  and  C_9
REMARK    6  A    between atoms: C_13  and  C_14
REMARK                            x       y       z     vdW  Elec       q    Type
REMARK                         _______ _______ _______ _____ _____    ______ ____
ROOT
ATOM      1  C   UNL     1       3.412   6.877  18.029  0.00  0.00    +0.000 A 
ATOM      2  N   UNL     1       2.918   8.095  17.811  0.00  0.00    +0.000 NA
ATOM      3  S   UNL     1       1.923   8.390  19.124  0.00  0.00    +0.000 S 
ATOM      4  N   UNL     1       2.127   6.972  19.995  0.00  0.00    +0.000 NA
ATOM      5  C   UNL     1       2.958   6.229  19.259  0.00  0.00    +0.000 A 
ENDROOT
BRANCH   5   6
ATOM      6  C   UNL     1       3.228   4.797  19.617  0.00  0.00    +0.000 C 
ATOM      7  C   UNL     1       3.336   3.735  18.529  0.00  0.00    +0.000 C 
ATOM      8  N   UNL     1       3.200   2.435  19.269  0.00  0.00    +0.000 NA
ATOM      9  C   UNL     1       1.892   1.820  18.980  0.00  0.00    +0.000 C 
ATOM     10  C   UNL     1       0.710   2.763  19.240  0.00  0.00    +0.000 C 
ATOM     11  C   UNL     1       0.928   3.728  20.419  0.00  0.00    +0.000 C 
ATOM     12  C   UNL     1       2.405   4.100  20.703  0.00  0.00    +0.000 C 
ATOM     13  C   UNL     1       3.196   2.794  20.711  0.00  0.00    +0.000 C 
ENDBRANCH   5   6
BRANCH   1  14
ATOM     14  S   UNL     1       4.465   6.094  16.847  0.00  0.00    +0.000 S 
BRANCH  14  15
ATOM     15  C   UNL     1       6.136   6.268  17.543  0.00  0.00    +0.000 C 
BRANCH  15  16
ATOM     16  C   UNL     1       7.068   5.265  16.841  0.00  0.00    +0.000 C 
BRANCH  16  17
ATOM     17  C   UNL     1       6.284   4.221  16.038  0.00  0.00    +0.000 C 
BRANCH  17  21
ATOM     18  C   UNL     1       7.205   4.439  11.816  0.00  0.00    +0.000 A 
ATOM     19  C   UNL     1       7.866   5.271  12.716  0.00  0.00    +0.000 A 
ATOM     20  C   UNL     1       7.572   5.197  14.083  0.00  0.00    +0.000 A 
ATOM     21  C   UNL     1       6.616   4.286  14.561  0.00  0.00    +0.000 A 
ATOM     22  C   UNL     1       5.958   3.460  13.639  0.00  0.00    +0.000 A 
ATOM     23  C   UNL     1       6.254   3.536  12.275  0.00  0.00    +0.000 A 
ENDBRANCH  17  21
ENDBRANCH  16  17
ENDBRANCH  15  16
ENDBRANCH  14  15
ENDBRANCH   1  14
TORSDOF 6
ENDMDL
MODEL 8
REMARK VINA RESULT:      -7.2      4.239      7.212
REMARK  Name = 
REMARK  6 active torsions:
REMARK  status: ('A' for Active; 'I' for Inactive)
REMARK    1  A    between atoms: C_4  and  C_5
REMARK    2  A    between atoms: C_5  and  C_6
REMARK    3  A    between atoms: C_6  and  C_7
REMARK    4  A    between atoms: C_7  and  S_8
REMARK    5  A    between atoms: S_8  and  C_9
REMARK    6  A    between atoms: C_13  and  C_14
REMARK                            x       y       z     vdW  Elec       q    Type
REMARK                         _______ _______ _______ _____ _____    ______ ____
ROOT
ATOM      1  C   UNL     1       6.194   6.052  17.636  0.00  0.00    +0.000 A 
ATOM      2  N   UNL     1       7.456   6.356  17.936  0.00  0.00    +0.000 NA
ATOM      3  S   UNL     1       7.689   5.728  19.470  0.00  0.00    +0.000 S 
ATOM      4  N   UNL     1       6.185   5.044  19.759  0.00  0.00    +0.000 NA
ATOM      5  C   UNL     1       5.464   5.320  18.670  0.00  0.00    +0.000 A 
ENDROOT
BRANCH   5   6
ATOM      6  C   UNL     1       3.990   5.038  18.634  0.00  0.00    +0.000 C 
ATOM      7  C   UNL     1       3.079   5.541  19.748  0.00  0.00    +0.000 C 
ATOM      8  N   UNL     1       1.818   4.743  19.580  0.00  0.00    +0.000 NA
ATOM      9  C   UNL     1       1.693   3.756  20.668  0.00  0.00    +0.000 C 
ATOM     10  C   UNL     1       2.932   2.862  20.818  0.00  0.00    +0.000 C 
ATOM     11  C   UNL     1       3.636   2.543  19.487  0.00  0.00    +0.000 C 
ATOM     12  C   UNL     1       3.479   3.617  18.382  0.00  0.00    +0.000 C 
ATOM     13  C   UNL     1       1.995   3.975  18.321  0.00  0.00    +0.000 C 
ENDBRANCH   5   6
BRANCH   1  14
ATOM     14  S   UNL     1       5.459   6.594  16.124  0.00  0.00    +0.000 S 
BRANCH  14  15
ATOM     15  C   UNL     1       5.246   5.071  15.152  0.00  0.00    +0.000 C 
BRANCH  15  16
ATOM     16  C   UNL     1       6.634   4.554  14.737  0.00  0.00    +0.000 C 
BRANCH  16  17
ATOM     17  C   UNL     1       6.921   4.811  13.254  0.00  0.00    +0.000 C 
BRANCH  17  21
ATOM     18  C   UNL     1       5.993   1.379  10.788  0.00  0.00    +0.000 A 
ATOM     19  C   UNL     1       7.320   1.729  11.022  0.00  0.00    +0.000 A 
ATOM     20  C   UNL     1       7.621   2.837  11.824  0.00  0.00    +0.000 A 
ATOM     21  C   UNL     1       6.595   3.601  12.403  0.00  0.00    +0.000 A 
ATOM     22  C   UNL     1       5.264   3.235  12.153  0.00  0.00    +0.000 A 
ATOM     23  C   UNL     1       4.968   2.129  11.352  0.00  0.00    +0.000 A 
ENDBRANCH  17  21
ENDBRANCH  16  17
ENDBRANCH  15  16
ENDBRANCH  14  15
ENDBRANCH   1  14
TORSDOF 6
ENDMDL
MODEL 9
REMARK VINA RESULT:      -7.2      4.233      7.230
REMARK  Name = 
REMARK  6 active torsions:
REMARK  status: ('A' for Active; 'I' for Inactive)
REMARK    1  A    between atoms: C_4  and  C_5
REMARK    2  A    between atoms: C_5  and  C_6
REMARK    3  A    between atoms: C_6  and  C_7
REMARK    4  A    between atoms: C_7  and  S_8
REMARK    5  A    between atoms: S_8  and  C_9
REMARK    6  A    between atoms: C_13  and  C_14
REMARK                            x       y       z     vdW  Elec       q    Type
REMARK                         _______ _______ _______ _____ _____    ______ ____
ROOT
ATOM      1  C   UNL     1       6.167   6.089  17.623  0.00  0.00    +0.000 A 
ATOM      2  N   UNL     1       7.424   6.407  17.931  0.00  0.00    +0.000 NA
ATOM      3  S   UNL     1       7.661   5.764  19.458  0.00  0.00    +0.000 S 
ATOM      4  N   UNL     1       6.166   5.055  19.734  0.00  0.00    +0.000 NA
ATOM      5  C   UNL     1       5.445   5.334  18.645  0.00  0.00    +0.000 A 
ENDROOT
BRANCH   5   6
ATOM      6  C   UNL     1       3.975   5.031  18.601  0.00  0.00    +0.000 C 
ATOM      7  C   UNL     1       3.054   5.503  19.720  0.00  0.00    +0.000 C 
ATOM      8  N   UNL     1       1.805   4.689  19.536  0.00  0.00    +0.000 NA
ATOM      9  C   UNL     1       1.692   3.683  20.608  0.00  0.00    +0.000 C 
ATOM     10  C   UNL     1       2.944   2.806  20.747  0.00  0.00    +0.000 C 
ATOM     11  C   UNL     1       3.655   2.518  19.413  0.00  0.00    +0.000 C 
ATOM     12  C   UNL     1       3.485   3.607  18.325  0.00  0.00    +0.000 C 
ATOM     13  C   UNL     1       1.996   3.944  18.266  0.00  0.00    +0.000 C 
ENDBRANCH   5   6
BRANCH   1  14
ATOM     14  S   UNL     1       5.430   6.639  16.115  0.00  0.00    +0.000 S 
BRANCH  14  15
ATOM     15  C   UNL     1       5.188   5.117  15.147  0.00  0.00    +0.000 C 
BRANCH  15  16
ATOM     16  C   UNL     1       6.567   4.522  14.814  0.00  0.00    +0.000 C 
BRANCH  16  17
ATOM     17  C   UNL     1       6.969   4.788  13.359  0.00  0.00    +0.000 C 
BRANCH  17  21
ATOM     18  C   UNL     1       5.848   1.482  10.802  0.00  0.00    +0.000 A 
ATOM     19  C   UNL     1       4.863   2.268  11.395  0.00  0.00    +0.000 A 
ATOM     20  C   UNL     1       5.225   3.341  12.218  0.00  0.00    +0.000 A 
ATOM     21  C   UNL     1       6.578   3.639  12.452  0.00  0.00    +0.000 A 
ATOM     22  C   UNL     1       7.555   2.833  11.850  0.00  0.00    +0.000 A 
ATOM     23  C   UNL     1       7.189   1.763  11.028  0.00  0.00    +0.000 A 
ENDBRANCH  17  21
ENDBRANCH  16  17
ENDBRANCH  15  16
ENDBRANCH  14  15
ENDBRANCH   1  14
TORSDOF 6
ENDMDL
