MODEL 1
REMARK VINA RESULT:      -8.5      0.000      0.000
REMARK  Name = 
REMARK  6 active torsions:
REMARK  status: ('A' for Active; 'I' for Inactive)
REMARK    1  A    between atoms: C_1  and  C_2
REMARK    2  A    between atoms: C_4  and  N_5
REMARK    3  A    between atoms: N_5  and  C_6
REMARK    4  A    between atoms: C_15  and  S_16
REMARK    5  A    between atoms: S_16  and  C_17
REMARK    6  A    between atoms: C_17  and  C_18
REMARK                            x       y       z     vdW  Elec       q    Type
REMARK                         _______ _______ _______ _____ _____    ______ ____
ROOT
ATOM      1  C   UNL     1       1.031   1.982  18.889  0.00  0.00    +0.000 C 
ATOM      2  C   UNL     1       2.081   3.037  19.146  0.00  0.00    +0.000 A 
ATOM      3  C   UNL     1       1.620   4.282  19.830  0.00  0.00    +0.000 A 
ATOM      4  C   UNL     1       2.553   5.214  20.100  0.00  0.00    +0.000 A 
ATOM      5  N   UNL     1       3.883   4.946  19.719  0.00  0.00    +0.000 N 
ATOM      6  N   UNL     1       4.983   5.724  19.882  0.00  0.00    +0.000 NA
ATOM      7  C   UNL     1       5.927   5.007  19.268  0.00  0.00    +0.000 A 
ATOM      8  N   UNL     1       5.513   3.822  18.737  0.00  0.00    +0.000 NA
ATOM      9  C   UNL     1       4.230   3.775  19.037  0.00  0.00    +0.000 A 
ATOM     10  N   UNL     1       3.305   2.806  18.766  0.00  0.00    +0.000 NA
ENDROOT
BRANCH   4  11
ATOM     11  N   UNL     1       2.268   6.427  20.735  0.00  0.00    +0.000 N 
ATOM     12  H   UNL     1       3.016   6.682  21.390  0.00  0.00    +0.000 HD
BRANCH  11  13
ATOM     13  C   UNL     1       1.858   7.580  20.014  0.00  0.00    +0.000 A 
ATOM     14  C   UNL     1       1.169   8.594  20.693  0.00  0.00    +0.000 A 
ATOM     15  C   UNL     1       0.746   9.742  20.018  0.00  0.00    +0.000 A 
ATOM     16  C   UNL     1       1.040   9.893  18.669  0.00  0.00    +0.000 A 
ATOM     17  F   UNL     1       0.621  10.984  18.017  0.00  0.00    +0.000 F 
ATOM     18  C   UNL     1       1.767   8.927  17.987  0.00  0.00    +0.000 A 
ATOM     19  C   UNL     1       2.185   7.778  18.662  0.00  0.00    +0.000 A 
ENDBRANCH  11  13
ENDBRANCH   4  11
BRANCH   7  20
ATOM     20  S   UNL     1       7.572   5.586  19.238  0.00  0.00    +0.000 S 
BRANCH  20  21
ATOM     21  C   UNL     1       7.592   6.616  17.745  0.00  0.00    +0.000 C 
BRANCH  21  22
ATOM     22  C   UNL     1       6.879   5.932  16.593  0.00  0.00    +0.000 A 
ATOM     23  C   UNL     1       7.446   4.805  15.973  0.00  0.00    +0.000 A 
ATOM     24  C   UNL     1       6.801   4.180  14.900  0.00  0.00    +0.000 A 
ATOM     25  C   UNL     1       5.588   4.681  14.442  0.00  0.00    +0.000 A 
ATOM     26  F   UNL     1       4.972   4.083  13.413  0.00  0.00    +0.000 F 
ATOM     27  C   UNL     1       5.013   5.798  15.032  0.00  0.00    +0.000 A 
ATOM     28  C   UNL     1       5.656   6.426  16.104  0.00  0.00    +0.000 A 
ENDBRANCH  21  22
ENDBRANCH  20  21
ENDBRANCH   7  20
TORSDOF 5
ENDMDL
MODEL 2
REMARK VINA RESULT:      -8.5      4.329      6.804
REMARK  Name = 
REMARK  6 active torsions:
REMARK  status: ('A' for Active; 'I' for Inactive)
REMARK    1  A    between atoms: C_1  and  C_2
REMARK    2  A    between atoms: C_4  and  N_5
REMARK    3  A    between atoms: N_5  and  C_6
REMARK    4  A    between atoms: C_15  and  S_16
REMARK    5  A    between atoms: S_16  and  C_17
REMARK    6  A    between atoms: C_17  and  C_18
REMARK                            x       y       z     vdW  Elec       q    Type
REMARK                         _______ _______ _______ _____ _____    ______ ____
ROOT
ATOM      1  C   UNL     1       6.126   3.763  13.432  0.00  0.00    +0.000 C 
ATOM      2  C   UNL     1       6.335   4.376  14.797  0.00  0.00    +0.000 A 
ATOM      3  C   UNL     1       5.721   3.654  15.952  0.00  0.00    +0.000 A 
ATOM      4  C   UNL     1       5.933   4.167  17.178  0.00  0.00    +0.000 A 
ATOM      5  N   UNL     1       6.711   5.338  17.278  0.00  0.00    +0.000 N 
ATOM      6  N   UNL     1       7.056   6.033  18.392  0.00  0.00    +0.000 NA
ATOM      7  C   UNL     1       7.716   7.073  17.880  0.00  0.00    +0.000 A 
ATOM      8  N   UNL     1       7.831   7.088  16.522  0.00  0.00    +0.000 NA
ATOM      9  C   UNL     1       7.214   5.985  16.144  0.00  0.00    +0.000 A 
ATOM     10  N   UNL     1       7.027   5.475  14.889  0.00  0.00    +0.000 NA
ENDROOT
BRANCH   4  11
ATOM     11  N   UNL     1       5.420   3.600  18.349  0.00  0.00    +0.000 N 
ATOM     12  H   UNL     1       5.786   4.081  19.179  0.00  0.00    +0.000 HD
BRANCH  11  13
ATOM     13  C   UNL     1       4.033   3.347  18.522  0.00  0.00    +0.000 A 
ATOM     14  C   UNL     1       3.635   2.336  19.407  0.00  0.00    +0.000 A 
ATOM     15  C   UNL     1       2.280   2.054  19.602  0.00  0.00    +0.000 A 
ATOM     16  C   UNL     1       1.320   2.806  18.938  0.00  0.00    +0.000 A 
ATOM     17  F   UNL     1       0.022   2.527  19.111  0.00  0.00    +0.000 F 
ATOM     18  C   UNL     1       1.688   3.848  18.098  0.00  0.00    +0.000 A 
ATOM     19  C   UNL     1       3.042   4.125  17.899  0.00  0.00    +0.000 A 
ENDBRANCH  11  13
ENDBRANCH   4  11
BRANCH   7  20
ATOM     20  S   UNL     1       8.410   8.268  18.945  0.00  0.00    +0.000 S 
BRANCH  20  21
ATOM     21  C   UNL     1       8.417   9.755  17.906  0.00  0.00    +0.000 C 
BRANCH  21  22
ATOM     22  C   UNL     1       9.198  10.881  18.559  0.00  0.00    +0.000 A 
ATOM     23  C   UNL     1       9.412  12.090  17.876  0.00  0.00    +0.000 A 
ATOM     24  C   UNL     1      10.145  13.125  18.466  0.00  0.00    +0.000 A 
ATOM     25  C   UNL     1      10.667  12.954  19.744  0.00  0.00    +0.000 A 
ATOM     26  F   UNL     1      11.371  13.945  20.308  0.00  0.00    +0.000 F 
ATOM     27  C   UNL     1      10.476  11.766  20.436  0.00  0.00    +0.000 A 
ATOM     28  C   UNL     1       9.746  10.729  19.846  0.00  0.00    +0.000 A 
ENDBRANCH  21  22
ENDBRANCH  20  21
ENDBRANCH   7  20
TORSDOF 5
ENDMDL
MODEL 3
REMARK VINA RESULT:      -8.4      2.250      2.813
REMARK  Name = 
REMARK  6 active torsions:
REMARK  status: ('A' for Active; 'I' for Inactive)
REMARK    1  A    between atoms: C_1  and  C_2
REMARK    2  A    between atoms: C_4  and  N_5
REMARK    3  A    between atoms: N_5  and  C_6
REMARK    4  A    between atoms: C_15  and  S_16
REMARK    5  A    between atoms: S_16  and  C_17
REMARK    6  A    between atoms: C_17  and  C_18
REMARK                            x       y       z     vdW  Elec       q    Type
REMARK                         _______ _______ _______ _____ _____    ______ ____
ROOT
ATOM      1  C   UNL     1       1.223   2.557  21.764  0.00  0.00    +0.000 C 
ATOM      2  C   UNL     1       1.935   3.341  20.687  0.00  0.00    +0.000 A 
ATOM      3  C   UNL     1       2.125   4.800  20.940  0.00  0.00    +0.000 A 
ATOM      4  C   UNL     1       2.793   5.503  20.007  0.00  0.00    +0.000 A 
ATOM      5  N   UNL     1       3.258   4.812  18.869  0.00  0.00    +0.000 N 
ATOM      6  N   UNL     1       3.947   5.300  17.806  0.00  0.00    +0.000 NA
ATOM      7  C   UNL     1       4.042   4.227  17.018  0.00  0.00    +0.000 A 
ATOM      8  N   UNL     1       3.477   3.086  17.505  0.00  0.00    +0.000 NA
ATOM      9  C   UNL     1       2.999   3.451  18.679  0.00  0.00    +0.000 A 
ATOM     10  N   UNL     1       2.338   2.712  19.620  0.00  0.00    +0.000 NA
ENDROOT
BRANCH   4  11
ATOM     11  N   UNL     1       3.045   6.874  20.109  0.00  0.00    +0.000 N 
ATOM     12  H   UNL     1       3.981   7.102  19.753  0.00  0.00    +0.000 HD
BRANCH  11  13
ATOM     13  C   UNL     1       2.116   7.849  19.656  0.00  0.00    +0.000 A 
ATOM     14  C   UNL     1       1.269   8.462  20.589  0.00  0.00    +0.000 A 
ATOM     15  C   UNL     1       0.339   9.422  20.183  0.00  0.00    +0.000 A 
ATOM     16  C   UNL     1       0.279   9.798  18.847  0.00  0.00    +0.000 A 
ATOM     17  F   UNL     1      -0.622  10.706  18.453  0.00  0.00    +0.000 F 
ATOM     18  C   UNL     1       1.144   9.245  17.913  0.00  0.00    +0.000 A 
ATOM     19  C   UNL     1       2.069   8.281  18.319  0.00  0.00    +0.000 A 
ENDBRANCH  11  13
ENDBRANCH   4  11
BRANCH   7  20
ATOM     20  S   UNL     1       4.899   4.339  15.502  0.00  0.00    +0.000 S 
BRANCH  20  21
ATOM     21  C   UNL     1       6.614   4.034  16.005  0.00  0.00    +0.000 C 
BRANCH  21  22
ATOM     22  C   UNL     1       7.151   5.172  16.854  0.00  0.00    +0.000 A 
ATOM     23  C   UNL     1       7.652   4.924  18.143  0.00  0.00    +0.000 A 
ATOM     24  C   UNL     1       8.132   5.971  18.937  0.00  0.00    +0.000 A 
ATOM     25  C   UNL     1       8.112   7.271  18.444  0.00  0.00    +0.000 A 
ATOM     26  F   UNL     1       8.570   8.274  19.206  0.00  0.00    +0.000 F 
ATOM     27  C   UNL     1       7.614   7.543  17.178  0.00  0.00    +0.000 A 
ATOM     28  C   UNL     1       7.131   6.498  16.383  0.00  0.00    +0.000 A 
ENDBRANCH  21  22
ENDBRANCH  20  21
ENDBRANCH   7  20
TORSDOF 5
ENDMDL
MODEL 4
REMARK VINA RESULT:      -8.3      0.232      1.332
REMARK  Name = 
REMARK  6 active torsions:
REMARK  status: ('A' for Active; 'I' for Inactive)
REMARK    1  A    between atoms: C_1  and  C_2
REMARK    2  A    between atoms: C_4  and  N_5
REMARK    3  A    between atoms: N_5  and  C_6
REMARK    4  A    between atoms: C_15  and  S_16
REMARK    5  A    between atoms: S_16  and  C_17
REMARK    6  A    between atoms: C_17  and  C_18
REMARK                            x       y       z     vdW  Elec       q    Type
REMARK                         _______ _______ _______ _____ _____    ______ ____
ROOT
ATOM      1  C   UNL     1       0.722   2.304  18.804  0.00  0.00    +0.000 C 
ATOM      2  C   UNL     1       1.839   3.278  19.098  0.00  0.00    +0.000 A 
ATOM      3  C   UNL     1       1.458   4.531  19.817  0.00  0.00    +0.000 A 
ATOM      4  C   UNL     1       2.450   5.388  20.121  0.00  0.00    +0.000 A 
ATOM      5  N   UNL     1       3.762   5.042  19.739  0.00  0.00    +0.000 N 
ATOM      6  N   UNL     1       4.911   5.738  19.932  0.00  0.00    +0.000 NA
ATOM      7  C   UNL     1       5.808   4.977  19.301  0.00  0.00    +0.000 A 
ATOM      8  N   UNL     1       5.320   3.839  18.732  0.00  0.00    +0.000 NA
ATOM      9  C   UNL     1       4.034   3.870  19.024  0.00  0.00    +0.000 A 
ATOM     10  N   UNL     1       3.047   2.975  18.719  0.00  0.00    +0.000 NA
ENDROOT
BRANCH   4  11
ATOM     11  N   UNL     1       2.244   6.598  20.790  0.00  0.00    +0.000 N 
ATOM     12  H   UNL     1       3.069   6.856  21.345  0.00  0.00    +0.000 HD
BRANCH  11  13
ATOM     13  C   UNL     1       1.739   7.750  20.131  0.00  0.00    +0.000 A 
ATOM     14  C   UNL     1       2.094   7.976  18.794  0.00  0.00    +0.000 A 
ATOM     15  C   UNL     1       1.621   9.100  18.112  0.00  0.00    +0.000 A 
ATOM     16  C   UNL     1       0.764   9.984  18.756  0.00  0.00    +0.000 A 
ATOM     17  F   UNL     1       0.323  11.070  18.109  0.00  0.00    +0.000 F 
ATOM     18  C   UNL     1       0.355   9.754  20.062  0.00  0.00    +0.000 A 
ATOM     19  C   UNL     1       0.833   8.633  20.744  0.00  0.00    +0.000 A 
ENDBRANCH  11  13
ENDBRANCH   4  11
BRANCH   7  20
ATOM     20  S   UNL     1       7.490   5.443  19.298  0.00  0.00    +0.000 S 
BRANCH  20  21
ATOM     21  C   UNL     1       7.592   6.510  17.835  0.00  0.00    +0.000 C 
BRANCH  21  22
ATOM     22  C   UNL     1       6.896   5.880  16.642  0.00  0.00    +0.000 A 
ATOM     23  C   UNL     1       5.700   6.425  16.145  0.00  0.00    +0.000 A 
ATOM     24  C   UNL     1       5.046   5.838  15.056  0.00  0.00    +0.000 A 
ATOM     25  C   UNL     1       5.585   4.703  14.462  0.00  0.00    +0.000 A 
ATOM     26  F   UNL     1       4.957   4.140  13.420  0.00  0.00    +0.000 F 
ATOM     27  C   UNL     1       6.761   4.141  14.941  0.00  0.00    +0.000 A 
ATOM     28  C   UNL     1       7.415   4.724  16.030  0.00  0.00    +0.000 A 
ENDBRANCH  21  22
ENDBRANCH  20  21
ENDBRANCH   7  20
TORSDOF 5
ENDMDL
MODEL 5
REMARK VINA RESULT:      -8.3      4.236      6.391
REMARK  Name = 
REMARK  6 active torsions:
REMARK  status: ('A' for Active; 'I' for Inactive)
REMARK    1  A    between atoms: C_1  and  C_2
REMARK    2  A    between atoms: C_4  and  N_5
REMARK    3  A    between atoms: N_5  and  C_6
REMARK    4  A    between atoms: C_15  and  S_16
REMARK    5  A    between atoms: S_16  and  C_17
REMARK    6  A    between atoms: C_17  and  C_18
REMARK                            x       y       z     vdW  Elec       q    Type
REMARK                         _______ _______ _______ _____ _____    ______ ____
ROOT
ATOM      1  C   UNL     1       5.449   3.943  13.458  0.00  0.00    +0.000 C 
ATOM      2  C   UNL     1       5.819   4.454  14.831  0.00  0.00    +0.000 A 
ATOM      3  C   UNL     1       5.244   3.714  15.994  0.00  0.00    +0.000 A 
ATOM      4  C   UNL     1       5.598   4.134  17.223  0.00  0.00    +0.000 A 
ATOM      5  N   UNL     1       6.477   5.233  17.318  0.00  0.00    +0.000 N 
ATOM      6  N   UNL     1       6.968   5.829  18.433  0.00  0.00    +0.000 NA
ATOM      7  C   UNL     1       7.669   6.844  17.922  0.00  0.00    +0.000 A 
ATOM      8  N   UNL     1       7.672   6.931  16.561  0.00  0.00    +0.000 NA
ATOM      9  C   UNL     1       6.937   5.905  16.180  0.00  0.00    +0.000 A 
ATOM     10  N   UNL     1       6.606   5.488  14.922  0.00  0.00    +0.000 NA
ENDROOT
BRANCH   4  11
ATOM     11  N   UNL     1       5.138   3.540  18.402  0.00  0.00    +0.000 N 
ATOM     12  H   UNL     1       5.780   3.727  19.182  0.00  0.00    +0.000 HD
BRANCH  11  13
ATOM     13  C   UNL     1       3.797   3.684  18.849  0.00  0.00    +0.000 A 
ATOM     14  C   UNL     1       3.557   4.313  20.078  0.00  0.00    +0.000 A 
ATOM     15  C   UNL     1       2.253   4.471  20.554  0.00  0.00    +0.000 A 
ATOM     16  C   UNL     1       1.183   4.030  19.784  0.00  0.00    +0.000 A 
ATOM     17  F   UNL     1      -0.066   4.165  20.246  0.00  0.00    +0.000 F 
ATOM     18  C   UNL     1       1.393   3.453  18.540  0.00  0.00    +0.000 A 
ATOM     19  C   UNL     1       2.697   3.291  18.068  0.00  0.00    +0.000 A 
ENDBRANCH  11  13
ENDBRANCH   4  11
BRANCH   7  20
ATOM     20  S   UNL     1       8.545   7.915  18.985  0.00  0.00    +0.000 S 
BRANCH  20  21
ATOM     21  C   UNL     1       8.375   9.515  18.148  0.00  0.00    +0.000 C 
BRANCH  21  22
ATOM     22  C   UNL     1       9.385  10.520  18.670  0.00  0.00    +0.000 A 
ATOM     23  C   UNL     1      10.308  11.122  17.797  0.00  0.00    +0.000 A 
ATOM     24  C   UNL     1      11.252  12.037  18.275  0.00  0.00    +0.000 A 
ATOM     25  C   UNL     1      11.278  12.353  19.629  0.00  0.00    +0.000 A 
ATOM     26  F   UNL     1      12.184  13.227  20.087  0.00  0.00    +0.000 F 
ATOM     27  C   UNL     1      10.383  11.764  20.513  0.00  0.00    +0.000 A 
ATOM     28  C   UNL     1       9.440  10.848  20.038  0.00  0.00    +0.000 A 
ENDBRANCH  21  22
ENDBRANCH  20  21
ENDBRANCH   7  20
TORSDOF 5
ENDMDL
MODEL 6
REMARK VINA RESULT:      -8.1      3.663      5.951
REMARK  Name = 
REMARK  6 active torsions:
REMARK  status: ('A' for Active; 'I' for Inactive)
REMARK    1  A    between atoms: C_1  and  C_2
REMARK    2  A    between atoms: C_4  and  N_5
REMARK    3  A    between atoms: N_5  and  C_6
REMARK    4  A    between atoms: C_15  and  S_16
REMARK    5  A    between atoms: S_16  and  C_17
REMARK    6  A    between atoms: C_17  and  C_18
REMARK                            x       y       z     vdW  Elec       q    Type
REMARK                         _______ _______ _______ _____ _____    ______ ____
ROOT
ATOM      1  C   UNL     1      -0.065   9.599  23.167  0.00  0.00    +0.000 C 
ATOM      2  C   UNL     1       0.466   9.216  21.806  0.00  0.00    +0.000 A 
ATOM      3  C   UNL     1       0.008  10.049  20.654  0.00  0.00    +0.000 A 
ATOM      4  C   UNL     1       0.505   9.743  19.441  0.00  0.00    +0.000 A 
ATOM      5  N   UNL     1       1.412   8.668  19.351  0.00  0.00    +0.000 N 
ATOM      6  N   UNL     1       2.038   8.178  18.251  0.00  0.00    +0.000 NA
ATOM      7  C   UNL     1       2.698   7.130  18.748  0.00  0.00    +0.000 A 
ATOM      8  N   UNL     1       2.553   6.923  20.087  0.00  0.00    +0.000 NA
ATOM      9  C   UNL     1       1.757   7.903  20.470  0.00  0.00    +0.000 A 
ATOM     10  N   UNL     1       1.280   8.203  21.715  0.00  0.00    +0.000 NA
ENDROOT
BRANCH   4  11
ATOM     11  N   UNL     1       0.166  10.435  18.273  0.00  0.00    +0.000 N 
ATOM     12  H   UNL     1       0.707  10.088  17.472  0.00  0.00    +0.000 HD
BRANCH  11  13
ATOM     13  C   UNL     1      -1.183  10.638  17.880  0.00  0.00    +0.000 A 
ATOM     14  C   UNL     1      -1.759   9.757  16.954  0.00  0.00    +0.000 A 
ATOM     15  C   UNL     1      -3.082   9.927  16.539  0.00  0.00    +0.000 A 
ATOM     16  C   UNL     1      -3.843  10.958  17.075  0.00  0.00    +0.000 A 
ATOM     17  F   UNL     1      -5.107  11.132  16.666  0.00  0.00    +0.000 F 
ATOM     18  C   UNL     1      -3.312  11.810  18.033  0.00  0.00    +0.000 A 
ATOM     19  C   UNL     1      -1.988  11.643  18.443  0.00  0.00    +0.000 A 
ENDBRANCH  11  13
ENDBRANCH   4  11
BRANCH   7  20
ATOM     20  S   UNL     1       3.710   6.168  17.701  0.00  0.00    +0.000 S 
BRANCH  20  21
ATOM     21  C   UNL     1       2.698   4.686  17.441  0.00  0.00    +0.000 C 
BRANCH  21  22
ATOM     22  C   UNL     1       2.424   3.968  18.750  0.00  0.00    +0.000 A 
ATOM     23  C   UNL     1       3.482   3.438  19.507  0.00  0.00    +0.000 A 
ATOM     24  C   UNL     1       3.235   2.761  20.706  0.00  0.00    +0.000 A 
ATOM     25  C   UNL     1       1.926   2.611  21.152  0.00  0.00    +0.000 A 
ATOM     26  F   UNL     1       1.689   1.961  22.299  0.00  0.00    +0.000 F 
ATOM     27  C   UNL     1       0.863   3.118  20.418  0.00  0.00    +0.000 A 
ATOM     28  C   UNL     1       1.108   3.794  19.217  0.00  0.00    +0.000 A 
ENDBRANCH  21  22
ENDBRANCH  20  21
ENDBRANCH   7  20
TORSDOF 5
ENDMDL
MODEL 7
REMARK VINA RESULT:      -8.0      3.209      7.522
REMARK  Name = 
REMARK  6 active torsions:
REMARK  status: ('A' for Active; 'I' for Inactive)
REMARK    1  A    between atoms: C_1  and  C_2
REMARK    2  A    between atoms: C_4  and  N_5
REMARK    3  A    between atoms: N_5  and  C_6
REMARK    4  A    between atoms: C_15  and  S_16
REMARK    5  A    between atoms: S_16  and  C_17
REMARK    6  A    between atoms: C_17  and  C_18
REMARK                            x       y       z     vdW  Elec       q    Type
REMARK                         _______ _______ _______ _____ _____    ______ ____
ROOT
ATOM      1  C   UNL     1       7.452   4.986  16.007  0.00  0.00    +0.000 C 
ATOM      2  C   UNL     1       6.077   5.325  16.532  0.00  0.00    +0.000 A 
ATOM      3  C   UNL     1       5.142   4.179  16.739  0.00  0.00    +0.000 A 
ATOM      4  C   UNL     1       3.927   4.462  17.245  0.00  0.00    +0.000 A 
ATOM      5  N   UNL     1       3.632   5.809  17.537  0.00  0.00    +0.000 N 
ATOM      6  N   UNL     1       2.488   6.334  18.046  0.00  0.00    +0.000 NA
ATOM      7  C   UNL     1       2.750   7.643  18.031  0.00  0.00    +0.000 A 
ATOM      8  N   UNL     1       3.982   7.992  17.564  0.00  0.00    +0.000 NA
ATOM      9  C   UNL     1       4.544   6.836  17.270  0.00  0.00    +0.000 A 
ATOM     10  N   UNL     1       5.790   6.572  16.773  0.00  0.00    +0.000 NA
ENDROOT
BRANCH   4  11
ATOM     11  N   UNL     1       2.950   3.493  17.491  0.00  0.00    +0.000 N 
ATOM     12  H   UNL     1       3.182   2.611  17.019  0.00  0.00    +0.000 HD
BRANCH  11  13
ATOM     13  C   UNL     1       2.472   3.216  18.799  0.00  0.00    +0.000 A 
ATOM     14  C   UNL     1       1.088   3.188  19.022  0.00  0.00    +0.000 A 
ATOM     15  C   UNL     1       0.578   2.924  20.296  0.00  0.00    +0.000 A 
ATOM     16  C   UNL     1       1.451   2.653  21.343  0.00  0.00    +0.000 A 
ATOM     17  F   UNL     1       0.964   2.416  22.568  0.00  0.00    +0.000 F 
ATOM     18  C   UNL     1       2.823   2.623  21.135  0.00  0.00    +0.000 A 
ATOM     19  C   UNL     1       3.331   2.893  19.863  0.00  0.00    +0.000 A 
ENDBRANCH  11  13
ENDBRANCH   4  11
BRANCH   7  20
ATOM     20  S   UNL     1       1.565   8.770  18.641  0.00  0.00    +0.000 S 
BRANCH  20  21
ATOM     21  C   UNL     1       1.449   8.300  20.389  0.00  0.00    +0.000 C 
BRANCH  21  22
ATOM     22  C   UNL     1       0.655   9.322  21.183  0.00  0.00    +0.000 A 
ATOM     23  C   UNL     1       0.471  10.623  20.687  0.00  0.00    +0.000 A 
ATOM     24  C   UNL     1      -0.246  11.574  21.421  0.00  0.00    +0.000 A 
ATOM     25  C   UNL     1      -0.781  11.226  22.657  0.00  0.00    +0.000 A 
ATOM     26  F   UNL     1      -1.465  12.137  23.361  0.00  0.00    +0.000 F 
ATOM     27  C   UNL     1      -0.605   9.949  23.173  0.00  0.00    +0.000 A 
ATOM     28  C   UNL     1       0.114   8.998  22.441  0.00  0.00    +0.000 A 
ENDBRANCH  21  22
ENDBRANCH  20  21
ENDBRANCH   7  20
TORSDOF 5
ENDMDL
MODEL 8
REMARK VINA RESULT:      -7.9      2.362      7.178
REMARK  Name = 
REMARK  6 active torsions:
REMARK  status: ('A' for Active; 'I' for Inactive)
REMARK    1  A    between atoms: C_1  and  C_2
REMARK    2  A    between atoms: C_4  and  N_5
REMARK    3  A    between atoms: N_5  and  C_6
REMARK    4  A    between atoms: C_15  and  S_16
REMARK    5  A    between atoms: S_16  and  C_17
REMARK    6  A    between atoms: C_17  and  C_18
REMARK                            x       y       z     vdW  Elec       q    Type
REMARK                         _______ _______ _______ _____ _____    ______ ____
ROOT
ATOM      1  C   UNL     1       8.393   7.314  18.792  0.00  0.00    +0.000 C 
ATOM      2  C   UNL     1       7.327   6.374  18.280  0.00  0.00    +0.000 A 
ATOM      3  C   UNL     1       6.906   6.554  16.859  0.00  0.00    +0.000 A 
ATOM      4  C   UNL     1       5.985   5.697  16.379  0.00  0.00    +0.000 A 
ATOM      5  N   UNL     1       5.491   4.704  17.248  0.00  0.00    +0.000 N 
ATOM      6  N   UNL     1       4.570   3.740  16.995  0.00  0.00    +0.000 NA
ATOM      7  C   UNL     1       4.442   3.155  18.188  0.00  0.00    +0.000 A 
ATOM      8  N   UNL     1       5.225   3.665  19.181  0.00  0.00    +0.000 NA
ATOM      9  C   UNL     1       5.899   4.628  18.584  0.00  0.00    +0.000 A 
ATOM     10  N   UNL     1       6.845   5.475  19.091  0.00  0.00    +0.000 NA
ENDROOT
BRANCH   4  11
ATOM     11  N   UNL     1       5.497   5.746  15.069  0.00  0.00    +0.000 N 
ATOM     12  H   UNL     1       5.416   6.717  14.744  0.00  0.00    +0.000 HD
BRANCH  11  13
ATOM     13  C   UNL     1       6.039   4.943  14.030  0.00  0.00    +0.000 A 
ATOM     14  C   UNL     1       5.275   3.882  13.526  0.00  0.00    +0.000 A 
ATOM     15  C   UNL     1       5.774   3.067  12.507  0.00  0.00    +0.000 A 
ATOM     16  C   UNL     1       7.025   3.333  11.965  0.00  0.00    +0.000 A 
ATOM     17  F   UNL     1       7.512   2.544  11.000  0.00  0.00    +0.000 F 
ATOM     18  C   UNL     1       7.778   4.411  12.410  0.00  0.00    +0.000 A 
ATOM     19  C   UNL     1       7.280   5.221  13.433  0.00  0.00    +0.000 A 
ENDBRANCH  11  13
ENDBRANCH   4  11
BRANCH   7  20
ATOM     20  S   UNL     1       3.367   1.794  18.375  0.00  0.00    +0.000 S 
BRANCH  20  21
ATOM     21  C   UNL     1       1.737   2.588  18.388  0.00  0.00    +0.000 C 
BRANCH  21  22
ATOM     22  C   UNL     1       1.819   4.008  18.919  0.00  0.00    +0.000 A 
ATOM     23  C   UNL     1       2.031   5.086  18.043  0.00  0.00    +0.000 A 
ATOM     24  C   UNL     1       2.124   6.394  18.529  0.00  0.00    +0.000 A 
ATOM     25  C   UNL     1       2.006   6.630  19.894  0.00  0.00    +0.000 A 
ATOM     26  F   UNL     1       2.098   7.883  20.359  0.00  0.00    +0.000 F 
ATOM     27  C   UNL     1       1.805   5.581  20.781  0.00  0.00    +0.000 A 
ATOM     28  C   UNL     1       1.714   4.271  20.297  0.00  0.00    +0.000 A 
ENDBRANCH  21  22
ENDBRANCH  20  21
ENDBRANCH   7  20
TORSDOF 5
ENDMDL
MODEL 9
REMARK VINA RESULT:      -7.9      3.132      7.352
REMARK  Name = 
REMARK  6 active torsions:
REMARK  status: ('A' for Active; 'I' for Inactive)
REMARK    1  A    between atoms: C_1  and  C_2
REMARK    2  A    between atoms: C_4  and  N_5
REMARK    3  A    between atoms: N_5  and  C_6
REMARK    4  A    between atoms: C_15  and  S_16
REMARK    5  A    between atoms: S_16  and  C_17
REMARK    6  A    between atoms: C_17  and  C_18
REMARK                            x       y       z     vdW  Elec       q    Type
REMARK                         _______ _______ _______ _____ _____    ______ ____
ROOT
ATOM      1  C   UNL     1       7.241   4.550  15.313  0.00  0.00    +0.000 C 
ATOM      2  C   UNL     1       5.948   4.978  15.967  0.00  0.00    +0.000 A 
ATOM      3  C   UNL     1       4.951   3.900  16.241  0.00  0.00    +0.000 A 
ATOM      4  C   UNL     1       3.812   4.261  16.860  0.00  0.00    +0.000 A 
ATOM      5  N   UNL     1       3.646   5.620  17.196  0.00  0.00    +0.000 N 
ATOM      6  N   UNL     1       2.595   6.217  17.814  0.00  0.00    +0.000 NA
ATOM      7  C   UNL     1       2.952   7.502  17.795  0.00  0.00    +0.000 A 
ATOM      8  N   UNL     1       4.160   7.770  17.223  0.00  0.00    +0.000 NA
ATOM      9  C   UNL     1       4.605   6.582  16.862  0.00  0.00    +0.000 A 
ATOM     10  N   UNL     1       5.778   6.238  16.251  0.00  0.00    +0.000 NA
ENDROOT
BRANCH   4  11
ATOM     11  N   UNL     1       2.790   3.361  17.180  0.00  0.00    +0.000 N 
ATOM     12  H   UNL     1       2.951   2.451  16.732  0.00  0.00    +0.000 HD
BRANCH  11  13
ATOM     13  C   UNL     1       2.350   3.161  18.515  0.00  0.00    +0.000 A 
ATOM     14  C   UNL     1       3.307   2.997  19.526  0.00  0.00    +0.000 A 
ATOM     15  C   UNL     1       2.914   2.793  20.851  0.00  0.00    +0.000 A 
ATOM     16  C   UNL     1       1.563   2.787  21.173  0.00  0.00    +0.000 A 
ATOM     17  F   UNL     1       1.184   2.575  22.440  0.00  0.00    +0.000 F 
ATOM     18  C   UNL     1       0.598   3.000  20.199  0.00  0.00    +0.000 A 
ATOM     19  C   UNL     1       0.992   3.198  18.874  0.00  0.00    +0.000 A 
ENDBRANCH  11  13
ENDBRANCH   4  11
BRANCH   7  20
ATOM     20  S   UNL     1       1.915   8.701  18.526  0.00  0.00    +0.000 S 
BRANCH  20  21
ATOM     21  C   UNL     1       1.641   8.015  20.182  0.00  0.00    +0.000 C 
BRANCH  21  22
ATOM     22  C   UNL     1       0.796   8.948  21.032  0.00  0.00    +0.000 A 
ATOM     23  C   UNL     1       0.870   8.897  22.434  0.00  0.00    +0.000 A 
ATOM     24  C   UNL     1       0.081   9.742  23.222  0.00  0.00    +0.000 A 
ATOM     25  C   UNL     1      -0.786  10.641  22.610  0.00  0.00    +0.000 A 
ATOM     26  F   UNL     1      -1.542  11.448  23.366  0.00  0.00    +0.000 F 
ATOM     27  C   UNL     1      -0.883  10.703  21.227  0.00  0.00    +0.000 A 
ATOM     28  C   UNL     1      -0.098   9.858  20.437  0.00  0.00    +0.000 A 
ENDBRANCH  21  22
ENDBRANCH  20  21
ENDBRANCH   7  20
TORSDOF 5
ENDMDL
