MODEL 1
REMARK VINA RESULT:      -6.7      0.000      0.000
REMARK  Name = 
REMARK  5 active torsions:
REMARK  status: ('A' for Active; 'I' for Inactive)
REMARK    1  A    between atoms: C_1  and  C_2
REMARK    2  A    between atoms: C_6  and  C_7
REMARK    3  A    between atoms: C_7  and  O_9
REMARK    4  A    between atoms: O_9  and  C_10
REMARK    5  A    between atoms: C_10  and  C_11
REMARK                            x       y       z     vdW  Elec       q    Type
REMARK                         _______ _______ _______ _____ _____    ______ ____
ROOT
ATOM      1  C   UNL     1       2.880   6.470  19.039  0.00  0.00    +0.000 C 
ATOM      2  O   UNL     1       2.366   7.486  19.480  0.00  0.00    +0.000 OA
ENDROOT
BRANCH   1   8
ATOM      3  C   UNL     1       1.379   2.554  21.865  0.00  0.00    +0.000 C 
ATOM      4  C   UNL     1       1.524   3.226  20.532  0.00  0.00    +0.000 A 
ATOM      5  C   UNL     1       1.075   2.595  19.364  0.00  0.00    +0.000 A 
ATOM      6  C   UNL     1       1.218   3.218  18.125  0.00  0.00    +0.000 A 
ATOM      7  C   UNL     1       1.809   4.478  18.044  0.00  0.00    +0.000 A 
ATOM      8  C   UNL     1       2.261   5.127  19.202  0.00  0.00    +0.000 A 
ATOM      9  C   UNL     1       2.120   4.495  20.444  0.00  0.00    +0.000 A 
ENDBRANCH   1   8
BRANCH   1  10
ATOM     10  O   UNL     1       4.046   6.414  18.348  0.00  0.00    +0.000 OA
BRANCH  10  11
ATOM     11  C   UNL     1       5.056   5.566  18.919  0.00  0.00    +0.000 C 
BRANCH  11  12
ATOM     12  C   UNL     1       5.919   5.085  17.805  0.00  0.00    +0.000 A 
ATOM     13  C   UNL     1       7.284   4.872  17.803  0.00  0.00    +0.000 A 
ATOM     14  N   UNL     1       7.828   4.468  16.599  0.00  0.00    +0.000 NA
ATOM     15  C   UNL     1       6.871   4.375  15.703  0.00  0.00    +0.000 A 
ATOM     16  S   UNL     1       5.288   4.755  16.244  0.00  0.00    +0.000 S 
ENDBRANCH  11  12
ENDBRANCH  10  11
ENDBRANCH   1  10
TORSDOF 4
ENDMDL
MODEL 2
REMARK VINA RESULT:      -6.4      2.800      5.688
REMARK  Name = 
REMARK  5 active torsions:
REMARK  status: ('A' for Active; 'I' for Inactive)
REMARK    1  A    between atoms: C_1  and  C_2
REMARK    2  A    between atoms: C_6  and  C_7
REMARK    3  A    between atoms: C_7  and  O_9
REMARK    4  A    between atoms: O_9  and  C_10
REMARK    5  A    between atoms: C_10  and  C_11
REMARK                            x       y       z     vdW  Elec       q    Type
REMARK                         _______ _______ _______ _____ _____    ______ ____
ROOT
ATOM      1  C   UNL     1       3.222   5.071  17.754  0.00  0.00    +0.000 C 
ATOM      2  O   UNL     1       2.846   6.082  18.328  0.00  0.00    +0.000 OA
ENDROOT
BRANCH   1   8
ATOM      3  C   UNL     1       6.657   4.352  14.112  0.00  0.00    +0.000 C 
ATOM      4  C   UNL     1       6.303   4.552  15.556  0.00  0.00    +0.000 A 
ATOM      5  C   UNL     1       7.303   4.576  16.538  0.00  0.00    +0.000 A 
ATOM      6  C   UNL     1       6.970   4.753  17.880  0.00  0.00    +0.000 A 
ATOM      7  C   UNL     1       5.636   4.911  18.251  0.00  0.00    +0.000 A 
ATOM      8  C   UNL     1       4.622   4.895  17.284  0.00  0.00    +0.000 A 
ATOM      9  C   UNL     1       4.960   4.711  15.936  0.00  0.00    +0.000 A 
ENDBRANCH   1   8
BRANCH   1  10
ATOM     10  O   UNL     1       2.450   3.991  17.477  0.00  0.00    +0.000 OA
BRANCH  10  11
ATOM     11  C   UNL     1       2.893   2.756  18.060  0.00  0.00    +0.000 C 
BRANCH  11  12
ATOM     12  C   UNL     1       2.534   2.788  19.505  0.00  0.00    +0.000 A 
ATOM     13  C   UNL     1       3.341   2.538  20.598  0.00  0.00    +0.000 A 
ATOM     14  N   UNL     1       2.718   2.592  21.830  0.00  0.00    +0.000 NA
ATOM     15  C   UNL     1       1.448   2.886  21.659  0.00  0.00    +0.000 A 
ATOM     16  S   UNL     1       0.937   3.116  20.038  0.00  0.00    +0.000 S 
ENDBRANCH  11  12
ENDBRANCH  10  11
ENDBRANCH   1  10
TORSDOF 4
ENDMDL
MODEL 3
REMARK VINA RESULT:      -6.2      2.947      5.542
REMARK  Name = 
REMARK  5 active torsions:
REMARK  status: ('A' for Active; 'I' for Inactive)
REMARK    1  A    between atoms: C_1  and  C_2
REMARK    2  A    between atoms: C_6  and  C_7
REMARK    3  A    between atoms: C_7  and  O_9
REMARK    4  A    between atoms: O_9  and  C_10
REMARK    5  A    between atoms: C_10  and  C_11
REMARK                            x       y       z     vdW  Elec       q    Type
REMARK                         _______ _______ _______ _____ _____    ______ ____
ROOT
ATOM      1  C   UNL     1       5.893   5.048  19.227  0.00  0.00    +0.000 C 
ATOM      2  O   UNL     1       6.955   5.244  19.799  0.00  0.00    +0.000 OA
ENDROOT
BRANCH   1   8
ATOM      3  C   UNL     1       6.383   3.891  14.328  0.00  0.00    +0.000 C 
ATOM      4  C   UNL     1       5.917   4.815  15.414  0.00  0.00    +0.000 A 
ATOM      5  C   UNL     1       5.271   6.018  15.097  0.00  0.00    +0.000 A 
ATOM      6  C   UNL     1       4.847   6.879  16.109  0.00  0.00    +0.000 A 
ATOM      7  C   UNL     1       5.061   6.542  17.444  0.00  0.00    +0.000 A 
ATOM      8  C   UNL     1       5.701   5.341  17.781  0.00  0.00    +0.000 A 
ATOM      9  C   UNL     1       6.130   4.481  16.762  0.00  0.00    +0.000 A 
ENDBRANCH   1   8
BRANCH   1  10
ATOM     10  O   UNL     1       4.773   4.543  19.800  0.00  0.00    +0.000 OA
BRANCH  10  11
ATOM     11  C   UNL     1       4.520   3.155  19.531  0.00  0.00    +0.000 C 
BRANCH  11  12
ATOM     12  C   UNL     1       3.086   3.025  19.151  0.00  0.00    +0.000 A 
ATOM     13  C   UNL     1       2.497   3.252  17.923  0.00  0.00    +0.000 A 
ATOM     14  N   UNL     1       1.124   3.100  17.877  0.00  0.00    +0.000 NA
ATOM     15  C   UNL     1       0.688   2.757  19.069  0.00  0.00    +0.000 A 
ATOM     16  S   UNL     1       1.879   2.593  20.292  0.00  0.00    +0.000 S 
ENDBRANCH  11  12
ENDBRANCH  10  11
ENDBRANCH   1  10
TORSDOF 4
ENDMDL
MODEL 4
REMARK VINA RESULT:      -6.1      3.198      6.747
REMARK  Name = 
REMARK  5 active torsions:
REMARK  status: ('A' for Active; 'I' for Inactive)
REMARK    1  A    between atoms: C_1  and  C_2
REMARK    2  A    between atoms: C_6  and  C_7
REMARK    3  A    between atoms: C_7  and  O_9
REMARK    4  A    between atoms: O_9  and  C_10
REMARK    5  A    between atoms: C_10  and  C_11
REMARK                            x       y       z     vdW  Elec       q    Type
REMARK                         _______ _______ _______ _____ _____    ______ ____
ROOT
ATOM      1  C   UNL     1       5.957   5.217  15.829  0.00  0.00    +0.000 C 
ATOM      2  O   UNL     1       6.474   6.173  16.386  0.00  0.00    +0.000 OA
ENDROOT
BRANCH   1   8
ATOM      3  C   UNL     1       5.284   2.425  11.666  0.00  0.00    +0.000 C 
ATOM      4  C   UNL     1       6.040   3.469  12.433  0.00  0.00    +0.000 A 
ATOM      5  C   UNL     1       7.160   4.097  11.869  0.00  0.00    +0.000 A 
ATOM      6  C   UNL     1       7.865   5.061  12.588  0.00  0.00    +0.000 A 
ATOM      7  C   UNL     1       7.456   5.408  13.874  0.00  0.00    +0.000 A 
ATOM      8  C   UNL     1       6.336   4.795  14.454  0.00  0.00    +0.000 A 
ATOM      9  C   UNL     1       5.632   3.823  13.730  0.00  0.00    +0.000 A 
ENDBRANCH   1   8
BRANCH   1  10
ATOM     10  O   UNL     1       5.000   4.418  16.363  0.00  0.00    +0.000 OA
BRANCH  10  11
ATOM     11  C   UNL     1       4.297   4.972  17.487  0.00  0.00    +0.000 C 
BRANCH  11  12
ATOM     12  C   UNL     1       3.224   4.011  17.863  0.00  0.00    +0.000 A 
ATOM     13  C   UNL     1       1.863   4.117  17.656  0.00  0.00    +0.000 A 
ATOM     14  N   UNL     1       1.095   3.085  18.162  0.00  0.00    +0.000 NA
ATOM     15  C   UNL     1       1.883   2.207  18.743  0.00  0.00    +0.000 A 
ATOM     16  S   UNL     1       3.561   2.559  18.712  0.00  0.00    +0.000 S 
ENDBRANCH  11  12
ENDBRANCH  10  11
ENDBRANCH   1  10
TORSDOF 4
ENDMDL
MODEL 5
REMARK VINA RESULT:      -6.1      3.087      6.576
REMARK  Name = 
REMARK  5 active torsions:
REMARK  status: ('A' for Active; 'I' for Inactive)
REMARK    1  A    between atoms: C_1  and  C_2
REMARK    2  A    between atoms: C_6  and  C_7
REMARK    3  A    between atoms: C_7  and  O_9
REMARK    4  A    between atoms: O_9  and  C_10
REMARK    5  A    between atoms: C_10  and  C_11
REMARK                            x       y       z     vdW  Elec       q    Type
REMARK                         _______ _______ _______ _____ _____    ______ ____
ROOT
ATOM      1  C   UNL     1       6.215   4.658  16.007  0.00  0.00    +0.000 C 
ATOM      2  O   UNL     1       7.079   4.532  16.861  0.00  0.00    +0.000 OA
ENDROOT
BRANCH   1   8
ATOM      3  C   UNL     1       5.390   2.422  11.547  0.00  0.00    +0.000 C 
ATOM      4  C   UNL     1       6.120   3.421  12.395  0.00  0.00    +0.000 A 
ATOM      5  C   UNL     1       7.119   4.232  11.838  0.00  0.00    +0.000 A 
ATOM      6  C   UNL     1       7.802   5.154  12.630  0.00  0.00    +0.000 A 
ATOM      7  C   UNL     1       7.491   5.273  13.983  0.00  0.00    +0.000 A 
ATOM      8  C   UNL     1       6.493   4.474  14.558  0.00  0.00    +0.000 A 
ATOM      9  C   UNL     1       5.811   3.545  13.760  0.00  0.00    +0.000 A 
ENDBRANCH   1   8
BRANCH   1  10
ATOM     10  O   UNL     1       4.915   4.965  16.243  0.00  0.00    +0.000 OA
BRANCH  10  11
ATOM     11  C   UNL     1       4.590   5.242  17.615  0.00  0.00    +0.000 C 
BRANCH  11  12
ATOM     12  C   UNL     1       4.051   3.989  18.211  0.00  0.00    +0.000 A 
ATOM     13  C   UNL     1       4.529   3.274  19.292  0.00  0.00    +0.000 A 
ATOM     14  N   UNL     1       3.849   2.109  19.591  0.00  0.00    +0.000 NA
ATOM     15  C   UNL     1       2.862   1.955  18.737  0.00  0.00    +0.000 A 
ATOM     16  S   UNL     1       2.690   3.180  17.549  0.00  0.00    +0.000 S 
ENDBRANCH  11  12
ENDBRANCH  10  11
ENDBRANCH   1  10
TORSDOF 4
ENDMDL
MODEL 6
REMARK VINA RESULT:      -6.1      2.304      3.612
REMARK  Name = 
REMARK  5 active torsions:
REMARK  status: ('A' for Active; 'I' for Inactive)
REMARK    1  A    between atoms: C_1  and  C_2
REMARK    2  A    between atoms: C_6  and  C_7
REMARK    3  A    between atoms: C_7  and  O_9
REMARK    4  A    between atoms: O_9  and  C_10
REMARK    5  A    between atoms: C_10  and  C_11
REMARK                            x       y       z     vdW  Elec       q    Type
REMARK                         _______ _______ _______ _____ _____    ______ ____
ROOT
ATOM      1  C   UNL     1       2.808   3.601  17.704  0.00  0.00    +0.000 C 
ATOM      2  O   UNL     1       1.937   2.984  17.111  0.00  0.00    +0.000 OA
ENDROOT
BRANCH   1   8
ATOM      3  C   UNL     1       2.342   8.628  18.004  0.00  0.00    +0.000 C 
ATOM      4  C   UNL     1       2.291   7.269  18.637  0.00  0.00    +0.000 A 
ATOM      5  C   UNL     1       1.973   7.128  19.995  0.00  0.00    +0.000 A 
ATOM      6  C   UNL     1       1.935   5.864  20.583  0.00  0.00    +0.000 A 
ATOM      7  C   UNL     1       2.211   4.733  19.818  0.00  0.00    +0.000 A 
ATOM      8  C   UNL     1       2.527   4.853  18.457  0.00  0.00    +0.000 A 
ATOM      9  C   UNL     1       2.569   6.125  17.871  0.00  0.00    +0.000 A 
ENDBRANCH   1   8
BRANCH   1  10
ATOM     10  O   UNL     1       4.115   3.247  17.773  0.00  0.00    +0.000 OA
BRANCH  10  11
ATOM     11  C   UNL     1       4.999   4.000  16.928  0.00  0.00    +0.000 C 
BRANCH  11  12
ATOM     12  C   UNL     1       5.978   4.695  17.808  0.00  0.00    +0.000 A 
ATOM     13  C   UNL     1       6.027   4.722  19.188  0.00  0.00    +0.000 A 
ATOM     14  N   UNL     1       7.027   5.499  19.740  0.00  0.00    +0.000 NA
ATOM     15  C   UNL     1       7.728   6.049  18.773  0.00  0.00    +0.000 A 
ATOM     16  S   UNL     1       7.240   5.669  17.173  0.00  0.00    +0.000 S 
ENDBRANCH  11  12
ENDBRANCH  10  11
ENDBRANCH   1  10
TORSDOF 4
ENDMDL
MODEL 7
REMARK VINA RESULT:      -6.1      2.357      5.177
REMARK  Name = 
REMARK  5 active torsions:
REMARK  status: ('A' for Active; 'I' for Inactive)
REMARK    1  A    between atoms: C_1  and  C_2
REMARK    2  A    between atoms: C_6  and  C_7
REMARK    3  A    between atoms: C_7  and  O_9
REMARK    4  A    between atoms: O_9  and  C_10
REMARK    5  A    between atoms: C_10  and  C_11
REMARK                            x       y       z     vdW  Elec       q    Type
REMARK                         _______ _______ _______ _____ _____    ______ ____
ROOT
ATOM      1  C   UNL     1       4.030   6.457  18.285  0.00  0.00    +0.000 C 
ATOM      2  O   UNL     1       3.377   7.341  17.752  0.00  0.00    +0.000 OA
ENDROOT
BRANCH   1   8
ATOM      3  C   UNL     1       6.056   4.155  14.263  0.00  0.00    +0.000 C 
ATOM      4  C   UNL     1       6.157   4.653  15.675  0.00  0.00    +0.000 A 
ATOM      5  C   UNL     1       7.337   4.474  16.410  0.00  0.00    +0.000 A 
ATOM      6  C   UNL     1       7.425   4.931  17.724  0.00  0.00    +0.000 A 
ATOM      7  C   UNL     1       6.336   5.571  18.313  0.00  0.00    +0.000 A 
ATOM      8  C   UNL     1       5.149   5.764  17.592  0.00  0.00    +0.000 A 
ATOM      9  C   UNL     1       5.062   5.299  16.273  0.00  0.00    +0.000 A 
ENDBRANCH   1   8
BRANCH   1  10
ATOM     10  O   UNL     1       3.847   5.996  19.547  0.00  0.00    +0.000 OA
BRANCH  10  11
ATOM     11  C   UNL     1       2.580   5.363  19.791  0.00  0.00    +0.000 C 
BRANCH  11  12
ATOM     12  C   UNL     1       2.599   4.043  19.103  0.00  0.00    +0.000 A 
ATOM     13  C   UNL     1       1.737   3.564  18.136  0.00  0.00    +0.000 A 
ATOM     14  N   UNL     1       1.968   2.269  17.712  0.00  0.00    +0.000 NA
ATOM     15  C   UNL     1       3.005   1.783  18.358  0.00  0.00    +0.000 A 
ATOM     16  S   UNL     1       3.753   2.833  19.489  0.00  0.00    +0.000 S 
ENDBRANCH  11  12
ENDBRANCH  10  11
ENDBRANCH   1  10
TORSDOF 4
ENDMDL
MODEL 8
REMARK VINA RESULT:      -6.0      1.960      2.554
REMARK  Name = 
REMARK  5 active torsions:
REMARK  status: ('A' for Active; 'I' for Inactive)
REMARK    1  A    between atoms: C_1  and  C_2
REMARK    2  A    between atoms: C_6  and  C_7
REMARK    3  A    between atoms: C_7  and  O_9
REMARK    4  A    between atoms: O_9  and  C_10
REMARK    5  A    between atoms: C_10  and  C_11
REMARK                            x       y       z     vdW  Elec       q    Type
REMARK                         _______ _______ _______ _____ _____    ______ ____
ROOT
ATOM      1  C   UNL     1       4.193   5.233  16.859  0.00  0.00    +0.000 C 
ATOM      2  O   UNL     1       3.984   6.430  16.982  0.00  0.00    +0.000 OA
ENDROOT
BRANCH   1   8
ATOM      3  C   UNL     1       0.821   3.873  20.374  0.00  0.00    +0.000 C 
ATOM      4  C   UNL     1       1.872   3.520  19.363  0.00  0.00    +0.000 A 
ATOM      5  C   UNL     1       2.239   2.184  19.154  0.00  0.00    +0.000 A 
ATOM      6  C   UNL     1       3.222   1.860  18.220  0.00  0.00    +0.000 A 
ATOM      7  C   UNL     1       3.844   2.869  17.487  0.00  0.00    +0.000 A 
ATOM      8  C   UNL     1       3.488   4.211  17.678  0.00  0.00    +0.000 A 
ATOM      9  C   UNL     1       2.503   4.533  18.621  0.00  0.00    +0.000 A 
ENDBRANCH   1   8
BRANCH   1  10
ATOM     10  O   UNL     1       5.062   4.673  15.981  0.00  0.00    +0.000 OA
BRANCH  10  11
ATOM     11  C   UNL     1       6.237   5.450  15.702  0.00  0.00    +0.000 C 
BRANCH  11  12
ATOM     12  C   UNL     1       6.991   5.599  16.978  0.00  0.00    +0.000 A 
ATOM     13  C   UNL     1       7.423   4.613  17.842  0.00  0.00    +0.000 A 
ATOM     14  N   UNL     1       8.060   5.053  18.987  0.00  0.00    +0.000 NA
ATOM     15  C   UNL     1       8.106   6.366  18.976  0.00  0.00    +0.000 A 
ATOM     16  S   UNL     1       7.406   7.137  17.613  0.00  0.00    +0.000 S 
ENDBRANCH  11  12
ENDBRANCH  10  11
ENDBRANCH   1  10
TORSDOF 4
ENDMDL
MODEL 9
REMARK VINA RESULT:      -6.0      2.737      5.776
REMARK  Name = 
REMARK  5 active torsions:
REMARK  status: ('A' for Active; 'I' for Inactive)
REMARK    1  A    between atoms: C_1  and  C_2
REMARK    2  A    between atoms: C_6  and  C_7
REMARK    3  A    between atoms: C_7  and  O_9
REMARK    4  A    between atoms: O_9  and  C_10
REMARK    5  A    between atoms: C_10  and  C_11
REMARK                            x       y       z     vdW  Elec       q    Type
REMARK                         _______ _______ _______ _____ _____    ______ ____
ROOT
ATOM      1  C   UNL     1       4.990   4.351  19.229  0.00  0.00    +0.000 C 
ATOM      2  O   UNL     1       5.108   3.225  19.687  0.00  0.00    +0.000 OA
ENDROOT
BRANCH   1   8
ATOM      3  C   UNL     1       5.971   3.959  14.283  0.00  0.00    +0.000 C 
ATOM      4  C   UNL     1       6.181   4.626  15.610  0.00  0.00    +0.000 A 
ATOM      5  C   UNL     1       7.066   5.706  15.732  0.00  0.00    +0.000 A 
ATOM      6  C   UNL     1       7.265   6.320  16.968  0.00  0.00    +0.000 A 
ATOM      7  C   UNL     1       6.580   5.860  18.091  0.00  0.00    +0.000 A 
ATOM      8  C   UNL     1       5.687   4.785  17.989  0.00  0.00    +0.000 A 
ATOM      9  C   UNL     1       5.492   4.168  16.746  0.00  0.00    +0.000 A 
ENDBRANCH   1   8
BRANCH   1  10
ATOM     10  O   UNL     1       4.225   5.338  19.758  0.00  0.00    +0.000 OA
BRANCH  10  11
ATOM     11  C   UNL     1       3.047   5.670  19.005  0.00  0.00    +0.000 C 
BRANCH  11  12
ATOM     12  C   UNL     1       2.147   4.484  19.033  0.00  0.00    +0.000 A 
ATOM     13  C   UNL     1       1.722   3.701  17.978  0.00  0.00    +0.000 A 
ATOM     14  N   UNL     1       0.839   2.687  18.299  0.00  0.00    +0.000 NA
ATOM     15  C   UNL     1       0.608   2.711  19.593  0.00  0.00    +0.000 A 
ATOM     16  S   UNL     1       1.426   3.925  20.486  0.00  0.00    +0.000 S 
ENDBRANCH  11  12
ENDBRANCH  10  11
ENDBRANCH   1  10
TORSDOF 4
ENDMDL
