MODEL 1
REMARK VINA RESULT:      -8.1      0.000      0.000
REMARK  Name = 
REMARK  4 active torsions:
REMARK  status: ('A' for Active; 'I' for Inactive)
REMARK    1  A    between atoms: C_1  and  C_2
REMARK    2  A    between atoms: C_10  and  C_11
REMARK    3  A    between atoms: C_11  and  C_12
REMARK    4  A    between atoms: C_12  and  C_13
REMARK                            x       y       z     vdW  Elec       q    Type
REMARK                         _______ _______ _______ _____ _____    ______ ____
ROOT
ATOM      1  C   UNL     1       0.878   3.658  20.416  0.00  0.00    +0.000 C 
ATOM      2  C   UNL     1       2.189   4.143  19.906  0.00  0.00    +0.000 A 
ATOM      3  C   UNL     1       2.335   5.340  19.255  0.00  0.00    +0.000 A 
ATOM      4  N   UNL     1       3.505   5.778  18.759  0.00  0.00    +0.000 NA
ATOM      5  C   UNL     1       4.588   4.993  18.890  0.00  0.00    +0.000 A 
ATOM      6  N   UNL     1       5.728   5.327  18.194  0.00  0.00    +0.000 N 
ATOM      7  C   UNL     1       7.023   4.989  18.758  0.00  0.00    +0.000 C 
ATOM      8  C   UNL     1       7.790   6.305  18.706  0.00  0.00    +0.000 C 
ATOM      9  C   UNL     1       7.249   6.984  17.459  0.00  0.00    +0.000 C 
ATOM     10  C   UNL     1       5.768   6.558  17.402  0.00  0.00    +0.000 C 
ATOM     11  N   UNL     1       4.554   3.833  19.563  0.00  0.00    +0.000 NA
ATOM     12  C   UNL     1       3.361   3.434  20.053  0.00  0.00    +0.000 A 
ENDROOT
BRANCH  10  13
ATOM     13  C   UNL     1       5.353   6.291  15.945  0.00  0.00    +0.000 C 
BRANCH  13  14
ATOM     14  C   UNL     1       5.363   4.810  15.560  0.00  0.00    +0.000 C 
BRANCH  14  15
ATOM     15  C   UNL     1       6.061   4.582  14.246  0.00  0.00    +0.000 A 
ATOM     16  C   UNL     1       5.571   3.632  13.352  0.00  0.00    +0.000 A 
ATOM     17  C   UNL     1       6.237   3.440  12.147  0.00  0.00    +0.000 A 
ATOM     18  C   UNL     1       7.368   4.198  11.870  0.00  0.00    +0.000 A 
ATOM     19  C   UNL     1       7.790   5.115  12.817  0.00  0.00    +0.000 A 
ATOM     20  N   UNL     1       7.167   5.322  13.997  0.00  0.00    +0.000 NA
ENDBRANCH  14  15
ENDBRANCH  13  14
ENDBRANCH  10  13
TORSDOF 3
ENDMDL
MODEL 2
REMARK VINA RESULT:      -8.0      1.438      6.475
REMARK  Name = 
REMARK  4 active torsions:
REMARK  status: ('A' for Active; 'I' for Inactive)
REMARK    1  A    between atoms: C_1  and  C_2
REMARK    2  A    between atoms: C_10  and  C_11
REMARK    3  A    between atoms: C_11  and  C_12
REMARK    4  A    between atoms: C_12  and  C_13
REMARK                            x       y       z     vdW  Elec       q    Type
REMARK                         _______ _______ _______ _____ _____    ______ ____
ROOT
ATOM      1  C   UNL     1       6.681   3.613  11.857  0.00  0.00    +0.000 C 
ATOM      2  C   UNL     1       6.677   4.097  13.264  0.00  0.00    +0.000 A 
ATOM      3  C   UNL     1       5.871   3.555  14.232  0.00  0.00    +0.000 A 
ATOM      4  N   UNL     1       5.830   4.001  15.499  0.00  0.00    +0.000 NA
ATOM      5  C   UNL     1       6.606   5.046  15.833  0.00  0.00    +0.000 A 
ATOM      6  N   UNL     1       6.404   5.648  17.056  0.00  0.00    +0.000 N 
ATOM      7  C   UNL     1       7.533   6.259  17.735  0.00  0.00    +0.000 C 
ATOM      8  C   UNL     1       7.483   5.650  19.132  0.00  0.00    +0.000 C 
ATOM      9  C   UNL     1       5.997   5.446  19.378  0.00  0.00    +0.000 C 
ATOM     10  C   UNL     1       5.422   5.095  17.991  0.00  0.00    +0.000 C 
ATOM     11  N   UNL     1       7.469   5.603  14.970  0.00  0.00    +0.000 NA
ATOM     12  C   UNL     1       7.485   5.119  13.710  0.00  0.00    +0.000 A 
ENDROOT
BRANCH  10  13
ATOM     13  C   UNL     1       4.048   5.761  17.806  0.00  0.00    +0.000 C 
BRANCH  13  14
ATOM     14  C   UNL     1       2.900   4.769  17.613  0.00  0.00    +0.000 C 
BRANCH  14  15
ATOM     15  C   UNL     1       2.454   4.173  18.920  0.00  0.00    +0.000 A 
ATOM     16  C   UNL     1       2.356   4.975  20.056  0.00  0.00    +0.000 A 
ATOM     17  C   UNL     1       1.944   4.397  21.251  0.00  0.00    +0.000 A 
ATOM     18  C   UNL     1       1.644   3.041  21.279  0.00  0.00    +0.000 A 
ATOM     19  C   UNL     1       1.776   2.316  20.108  0.00  0.00    +0.000 A 
ATOM     20  N   UNL     1       2.176   2.849  18.933  0.00  0.00    +0.000 NA
ENDBRANCH  14  15
ENDBRANCH  13  14
ENDBRANCH  10  13
TORSDOF 3
ENDMDL
MODEL 3
REMARK VINA RESULT:      -7.9      1.346      6.416
REMARK  Name = 
REMARK  4 active torsions:
REMARK  status: ('A' for Active; 'I' for Inactive)
REMARK    1  A    between atoms: C_1  and  C_2
REMARK    2  A    between atoms: C_10  and  C_11
REMARK    3  A    between atoms: C_11  and  C_12
REMARK    4  A    between atoms: C_12  and  C_13
REMARK                            x       y       z     vdW  Elec       q    Type
REMARK                         _______ _______ _______ _____ _____    ______ ____
ROOT
ATOM      1  C   UNL     1       6.716   3.603  11.889  0.00  0.00    +0.000 C 
ATOM      2  C   UNL     1       6.701   4.091  13.295  0.00  0.00    +0.000 A 
ATOM      3  C   UNL     1       5.888   3.552  14.257  0.00  0.00    +0.000 A 
ATOM      4  N   UNL     1       5.837   4.002  15.523  0.00  0.00    +0.000 NA
ATOM      5  C   UNL     1       6.612   5.047  15.861  0.00  0.00    +0.000 A 
ATOM      6  N   UNL     1       6.401   5.652  17.080  0.00  0.00    +0.000 N 
ATOM      7  C   UNL     1       7.525   6.264  17.766  0.00  0.00    +0.000 C 
ATOM      8  C   UNL     1       7.464   5.659  19.164  0.00  0.00    +0.000 C 
ATOM      9  C   UNL     1       5.976   5.457  19.400  0.00  0.00    +0.000 C 
ATOM     10  C   UNL     1       5.412   5.102  18.009  0.00  0.00    +0.000 C 
ATOM     11  N   UNL     1       7.482   5.601  15.003  0.00  0.00    +0.000 NA
ATOM     12  C   UNL     1       7.507   5.113  13.744  0.00  0.00    +0.000 A 
ENDROOT
BRANCH  10  13
ATOM     13  C   UNL     1       4.040   5.770  17.812  0.00  0.00    +0.000 C 
BRANCH  13  14
ATOM     14  C   UNL     1       2.890   4.778  17.625  0.00  0.00    +0.000 C 
BRANCH  14  15
ATOM     15  C   UNL     1       2.428   4.208  18.938  0.00  0.00    +0.000 A 
ATOM     16  C   UNL     1       1.961   2.896  19.005  0.00  0.00    +0.000 A 
ATOM     17  C   UNL     1       1.538   2.396  20.230  0.00  0.00    +0.000 A 
ATOM     18  C   UNL     1       1.590   3.217  21.350  0.00  0.00    +0.000 A 
ATOM     19  C   UNL     1       2.061   4.509  21.195  0.00  0.00    +0.000 A 
ATOM     20  N   UNL     1       2.476   5.023  20.017  0.00  0.00    +0.000 NA
ENDBRANCH  14  15
ENDBRANCH  13  14
ENDBRANCH  10  13
TORSDOF 3
ENDMDL
MODEL 4
REMARK VINA RESULT:      -7.6      2.952      6.416
REMARK  Name = 
REMARK  4 active torsions:
REMARK  status: ('A' for Active; 'I' for Inactive)
REMARK    1  A    between atoms: C_1  and  C_2
REMARK    2  A    between atoms: C_10  and  C_11
REMARK    3  A    between atoms: C_11  and  C_12
REMARK    4  A    between atoms: C_12  and  C_13
REMARK                            x       y       z     vdW  Elec       q    Type
REMARK                         _______ _______ _______ _____ _____    ______ ____
ROOT
ATOM      1  C   UNL     1       8.030   7.809  17.628  0.00  0.00    +0.000 C 
ATOM      2  C   UNL     1       7.045   6.725  17.888  0.00  0.00    +0.000 A 
ATOM      3  C   UNL     1       5.894   6.577  17.158  0.00  0.00    +0.000 A 
ATOM      4  N   UNL     1       4.978   5.623  17.401  0.00  0.00    +0.000 NA
ATOM      5  C   UNL     1       5.190   4.781  18.426  0.00  0.00    +0.000 A 
ATOM      6  N   UNL     1       4.160   3.955  18.820  0.00  0.00    +0.000 N 
ATOM      7  C   UNL     1       4.476   2.655  19.385  0.00  0.00    +0.000 C 
ATOM      8  C   UNL     1       3.623   1.693  18.567  0.00  0.00    +0.000 C 
ATOM      9  C   UNL     1       2.382   2.507  18.241  0.00  0.00    +0.000 C 
ATOM     10  C   UNL     1       2.901   3.949  18.073  0.00  0.00    +0.000 C 
ATOM     11  N   UNL     1       6.314   4.812  19.159  0.00  0.00    +0.000 NA
ATOM     12  C   UNL     1       7.212   5.779  18.875  0.00  0.00    +0.000 A 
ENDROOT
BRANCH  10  13
ATOM     13  C   UNL     1       1.896   4.944  18.678  0.00  0.00    +0.000 C 
BRANCH  13  14
ATOM     14  C   UNL     1       2.523   5.944  19.651  0.00  0.00    +0.000 C 
BRANCH  14  15
ATOM     15  C   UNL     1       2.083   7.353  19.360  0.00  0.00    +0.000 A 
ATOM     16  C   UNL     1       2.315   7.912  18.105  0.00  0.00    +0.000 A 
ATOM     17  C   UNL     1       1.900   9.217  17.865  0.00  0.00    +0.000 A 
ATOM     18  C   UNL     1       1.271   9.925  18.882  0.00  0.00    +0.000 A 
ATOM     19  C   UNL     1       1.088   9.297  20.101  0.00  0.00    +0.000 A 
ATOM     20  N   UNL     1       1.481   8.032  20.365  0.00  0.00    +0.000 NA
ENDBRANCH  14  15
ENDBRANCH  13  14
ENDBRANCH  10  13
TORSDOF 3
ENDMDL
MODEL 5
REMARK VINA RESULT:      -7.6      0.827      1.204
REMARK  Name = 
REMARK  4 active torsions:
REMARK  status: ('A' for Active; 'I' for Inactive)
REMARK    1  A    between atoms: C_1  and  C_2
REMARK    2  A    between atoms: C_10  and  C_11
REMARK    3  A    between atoms: C_11  and  C_12
REMARK    4  A    between atoms: C_12  and  C_13
REMARK                            x       y       z     vdW  Elec       q    Type
REMARK                         _______ _______ _______ _____ _____    ______ ____
ROOT
ATOM      1  C   UNL     1       1.507   2.586  20.430  0.00  0.00    +0.000 C 
ATOM      2  C   UNL     1       2.708   3.304  19.923  0.00  0.00    +0.000 A 
ATOM      3  C   UNL     1       2.633   4.511  19.278  0.00  0.00    +0.000 A 
ATOM      4  N   UNL     1       3.704   5.157  18.785  0.00  0.00    +0.000 NA
ATOM      5  C   UNL     1       4.912   4.581  18.913  0.00  0.00    +0.000 A 
ATOM      6  N   UNL     1       5.972   5.120  18.218  0.00  0.00    +0.000 N 
ATOM      7  C   UNL     1       7.307   5.020  18.781  0.00  0.00    +0.000 C 
ATOM      8  C   UNL     1       7.823   6.454  18.736  0.00  0.00    +0.000 C 
ATOM      9  C   UNL     1       7.166   7.029  17.492  0.00  0.00    +0.000 C 
ATOM     10  C   UNL     1       5.787   6.342  17.432  0.00  0.00    +0.000 C 
ATOM     11  N   UNL     1       5.090   3.430  19.579  0.00  0.00    +0.000 NA
ATOM     12  C   UNL     1       3.989   2.819  20.067  0.00  0.00    +0.000 A 
ENDROOT
BRANCH  10  13
ATOM     13  C   UNL     1       5.426   6.010  15.974  0.00  0.00    +0.000 C 
BRANCH  13  14
ATOM     14  C   UNL     1       5.589   4.532  15.617  0.00  0.00    +0.000 C 
BRANCH  14  15
ATOM     15  C   UNL     1       6.142   4.352  14.229  0.00  0.00    +0.000 A 
ATOM     16  C   UNL     1       7.252   5.089  13.819  0.00  0.00    +0.000 A 
ATOM     17  C   UNL     1       7.740   4.905  12.531  0.00  0.00    +0.000 A 
ATOM     18  C   UNL     1       7.107   3.997  11.691  0.00  0.00    +0.000 A 
ATOM     19  C   UNL     1       6.006   3.313  12.175  0.00  0.00    +0.000 A 
ATOM     20  N   UNL     1       5.507   3.472  13.420  0.00  0.00    +0.000 NA
ENDBRANCH  14  15
ENDBRANCH  13  14
ENDBRANCH  10  13
TORSDOF 3
ENDMDL
MODEL 6
REMARK VINA RESULT:      -7.5      1.354      6.154
REMARK  Name = 
REMARK  4 active torsions:
REMARK  status: ('A' for Active; 'I' for Inactive)
REMARK    1  A    between atoms: C_1  and  C_2
REMARK    2  A    between atoms: C_10  and  C_11
REMARK    3  A    between atoms: C_11  and  C_12
REMARK    4  A    between atoms: C_12  and  C_13
REMARK                            x       y       z     vdW  Elec       q    Type
REMARK                         _______ _______ _______ _____ _____    ______ ____
ROOT
ATOM      1  C   UNL     1       6.086   3.303  12.208  0.00  0.00    +0.000 C 
ATOM      2  C   UNL     1       6.299   3.880  13.563  0.00  0.00    +0.000 A 
ATOM      3  C   UNL     1       5.734   3.348  14.693  0.00  0.00    +0.000 A 
ATOM      4  N   UNL     1       5.889   3.875  15.920  0.00  0.00    +0.000 NA
ATOM      5  C   UNL     1       6.622   4.995  16.045  0.00  0.00    +0.000 A 
ATOM      6  N   UNL     1       6.598   5.662  17.250  0.00  0.00    +0.000 N 
ATOM      7  C   UNL     1       7.777   6.399  17.670  0.00  0.00    +0.000 C 
ATOM      8  C   UNL     1       8.036   5.884  19.081  0.00  0.00    +0.000 C 
ATOM      9  C   UNL     1       6.644   5.590  19.615  0.00  0.00    +0.000 C 
ATOM     10  C   UNL     1       5.856   5.103  18.382  0.00  0.00    +0.000 C 
ATOM     11  N   UNL     1       7.261   5.553  15.006  0.00  0.00    +0.000 NA
ATOM     12  C   UNL     1       7.086   4.987  13.793  0.00  0.00    +0.000 A 
ENDROOT
BRANCH  10  13
ATOM     13  C   UNL     1       4.420   5.654  18.425  0.00  0.00    +0.000 C 
BRANCH  13  14
ATOM     14  C   UNL     1       3.662   5.307  19.707  0.00  0.00    +0.000 C 
BRANCH  14  15
ATOM     15  C   UNL     1       2.648   4.219  19.477  0.00  0.00    +0.000 A 
ATOM     16  C   UNL     1       1.375   4.321  20.036  0.00  0.00    +0.000 A 
ATOM     17  C   UNL     1       0.459   3.301  19.810  0.00  0.00    +0.000 A 
ATOM     18  C   UNL     1       0.838   2.211  19.036  0.00  0.00    +0.000 A 
ATOM     19  C   UNL     1       2.124   2.185  18.525  0.00  0.00    +0.000 A 
ATOM     20  N   UNL     1       3.036   3.160  18.730  0.00  0.00    +0.000 NA
ENDBRANCH  14  15
ENDBRANCH  13  14
ENDBRANCH  10  13
TORSDOF 3
ENDMDL
MODEL 7
REMARK VINA RESULT:      -7.4      2.267      6.558
REMARK  Name = 
REMARK  4 active torsions:
REMARK  status: ('A' for Active; 'I' for Inactive)
REMARK    1  A    between atoms: C_1  and  C_2
REMARK    2  A    between atoms: C_10  and  C_11
REMARK    3  A    between atoms: C_11  and  C_12
REMARK    4  A    between atoms: C_12  and  C_13
REMARK                            x       y       z     vdW  Elec       q    Type
REMARK                         _______ _______ _______ _____ _____    ______ ____
ROOT
ATOM      1  C   UNL     1       6.895   3.874  11.883  0.00  0.00    +0.000 C 
ATOM      2  C   UNL     1       6.804   4.287  13.310  0.00  0.00    +0.000 A 
ATOM      3  C   UNL     1       5.929   3.713  14.194  0.00  0.00    +0.000 A 
ATOM      4  N   UNL     1       5.811   4.096  15.477  0.00  0.00    +0.000 NA
ATOM      5  C   UNL     1       6.579   5.110  15.914  0.00  0.00    +0.000 A 
ATOM      6  N   UNL     1       6.306   5.653  17.149  0.00  0.00    +0.000 N 
ATOM      7  C   UNL     1       7.396   6.210  17.930  0.00  0.00    +0.000 C 
ATOM      8  C   UNL     1       7.246   5.534  19.288  0.00  0.00    +0.000 C 
ATOM      9  C   UNL     1       5.744   5.345  19.427  0.00  0.00    +0.000 C 
ATOM     10  C   UNL     1       5.257   5.072  17.990  0.00  0.00    +0.000 C 
ATOM     11  N   UNL     1       7.504   5.693  15.137  0.00  0.00    +0.000 NA
ATOM     12  C   UNL     1       7.596   5.271  13.858  0.00  0.00    +0.000 A 
ENDROOT
BRANCH  10  13
ATOM     13  C   UNL     1       3.908   5.771  17.750  0.00  0.00    +0.000 C 
BRANCH  13  14
ATOM     14  C   UNL     1       3.137   6.087  19.033  0.00  0.00    +0.000 C 
BRANCH  14  15
ATOM     15  C   UNL     1       2.476   7.437  18.967  0.00  0.00    +0.000 A 
ATOM     16  C   UNL     1       2.576   8.207  17.810  0.00  0.00    +0.000 A 
ATOM     17  C   UNL     1       1.958   9.452  17.778  0.00  0.00    +0.000 A 
ATOM     18  C   UNL     1       1.263   9.891  18.897  0.00  0.00    +0.000 A 
ATOM     19  C   UNL     1       1.220   9.067  20.008  0.00  0.00    +0.000 A 
ATOM     20  N   UNL     1       1.812   7.855  20.070  0.00  0.00    +0.000 NA
ENDBRANCH  14  15
ENDBRANCH  13  14
ENDBRANCH  10  13
TORSDOF 3
ENDMDL
MODEL 8
REMARK VINA RESULT:      -7.0      3.112      7.765
REMARK  Name = 
REMARK  4 active torsions:
REMARK  status: ('A' for Active; 'I' for Inactive)
REMARK    1  A    between atoms: C_1  and  C_2
REMARK    2  A    between atoms: C_10  and  C_11
REMARK    3  A    between atoms: C_11  and  C_12
REMARK    4  A    between atoms: C_12  and  C_13
REMARK                            x       y       z     vdW  Elec       q    Type
REMARK                         _______ _______ _______ _____ _____    ______ ____
ROOT
ATOM      1  C   UNL     1       7.520   6.504  17.090  0.00  0.00    +0.000 C 
ATOM      2  C   UNL     1       6.355   5.888  17.782  0.00  0.00    +0.000 A 
ATOM      3  C   UNL     1       5.072   6.341  17.619  0.00  0.00    +0.000 A 
ATOM      4  N   UNL     1       4.013   5.817  18.261  0.00  0.00    +0.000 NA
ATOM      5  C   UNL     1       4.225   4.809  19.124  0.00  0.00    +0.000 A 
ATOM      6  N   UNL     1       3.190   4.423  19.947  0.00  0.00    +0.000 N 
ATOM      7  C   UNL     1       3.103   3.035  20.365  0.00  0.00    +0.000 C 
ATOM      8  C   UNL     1       1.669   2.648  20.022  0.00  0.00    +0.000 C 
ATOM      9  C   UNL     1       0.892   3.937  20.232  0.00  0.00    +0.000 C 
ATOM     10  C   UNL     1       1.873   5.049  19.811  0.00  0.00    +0.000 C 
ATOM     11  N   UNL     1       5.436   4.263  19.305  0.00  0.00    +0.000 NA
ATOM     12  C   UNL     1       6.471   4.812  18.633  0.00  0.00    +0.000 A 
ENDROOT
BRANCH  10  13
ATOM     13  C   UNL     1       1.736   6.256  20.755  0.00  0.00    +0.000 C 
BRANCH  13  14
ATOM     14  C   UNL     1       1.885   7.609  20.056  0.00  0.00    +0.000 C 
BRANCH  14  15
ATOM     15  C   UNL     1       1.073   8.678  20.735  0.00  0.00    +0.000 A 
ATOM     16  C   UNL     1       0.830   8.605  22.106  0.00  0.00    +0.000 A 
ATOM     17  C   UNL     1       0.075   9.605  22.707  0.00  0.00    +0.000 A 
ATOM     18  C   UNL     1      -0.416  10.644  21.927  0.00  0.00    +0.000 A 
ATOM     19  C   UNL     1      -0.134  10.636  20.572  0.00  0.00    +0.000 A 
ATOM     20  N   UNL     1       0.595   9.678  19.959  0.00  0.00    +0.000 NA
ENDBRANCH  14  15
ENDBRANCH  13  14
ENDBRANCH  10  13
TORSDOF 3
ENDMDL
MODEL 9
REMARK VINA RESULT:      -7.0      3.094      7.763
REMARK  Name = 
REMARK  4 active torsions:
REMARK  status: ('A' for Active; 'I' for Inactive)
REMARK    1  A    between atoms: C_1  and  C_2
REMARK    2  A    between atoms: C_10  and  C_11
REMARK    3  A    between atoms: C_11  and  C_12
REMARK    4  A    between atoms: C_12  and  C_13
REMARK                            x       y       z     vdW  Elec       q    Type
REMARK                         _______ _______ _______ _____ _____    ______ ____
ROOT
ATOM      1  C   UNL     1       7.459   6.793  17.128  0.00  0.00    +0.000 C 
ATOM      2  C   UNL     1       6.336   6.094  17.811  0.00  0.00    +0.000 A 
ATOM      3  C   UNL     1       5.025   6.455  17.640  0.00  0.00    +0.000 A 
ATOM      4  N   UNL     1       4.002   5.856  18.275  0.00  0.00    +0.000 NA
ATOM      5  C   UNL     1       4.279   4.864  19.138  0.00  0.00    +0.000 A 
ATOM      6  N   UNL     1       3.268   4.404  19.953  0.00  0.00    +0.000 N 
ATOM      7  C   UNL     1       3.277   3.012  20.368  0.00  0.00    +0.000 C 
ATOM      8  C   UNL     1       1.876   2.525  20.015  0.00  0.00    +0.000 C 
ATOM      9  C   UNL     1       1.009   3.755  20.222  0.00  0.00    +0.000 C 
ATOM     10  C   UNL     1       1.912   4.935  19.809  0.00  0.00    +0.000 C 
ATOM     11  N   UNL     1       5.525   4.404  19.326  0.00  0.00    +0.000 NA
ATOM     12  C   UNL     1       6.522   5.027  18.661  0.00  0.00    +0.000 A 
ENDROOT
BRANCH  10  13
ATOM     13  C   UNL     1       1.683   6.128  20.754  0.00  0.00    +0.000 C 
BRANCH  13  14
ATOM     14  C   UNL     1       1.850   7.491  20.081  0.00  0.00    +0.000 C 
BRANCH  14  15
ATOM     15  C   UNL     1       1.082   8.565  20.804  0.00  0.00    +0.000 A 
ATOM     16  C   UNL     1       0.448   9.575  20.082  0.00  0.00    +0.000 A 
ATOM     17  C   UNL     1      -0.252  10.556  20.775  0.00  0.00    +0.000 A 
ATOM     18  C   UNL     1      -0.297  10.503  22.162  0.00  0.00    +0.000 A 
ATOM     19  C   UNL     1       0.368   9.470  22.801  0.00  0.00    +0.000 A 
ATOM     20  N   UNL     1       1.057   8.504  22.155  0.00  0.00    +0.000 NA
ENDBRANCH  14  15
ENDBRANCH  13  14
ENDBRANCH  10  13
TORSDOF 3
ENDMDL
