MODEL 1
REMARK VINA RESULT:      -7.7      0.000      0.000
REMARK  Name = 
REMARK  5 active torsions:
REMARK  status: ('A' for Active; 'I' for Inactive)
REMARK    1  A    between atoms: S_2  and  C_4
REMARK    2  A    between atoms: S_2  and  N_10
REMARK    3  A    between atoms: N_10  and  C_11
REMARK    4  A    between atoms: N_10  and  C_16
REMARK    5  A    between atoms: C_11  and  C_12
REMARK                            x       y       z     vdW  Elec       q    Type
REMARK                         _______ _______ _______ _____ _____    ______ ____
ROOT
ATOM      1  N   UNL     1       3.532   4.847  18.941  0.00  0.00    +0.000 NA
ENDROOT
BRANCH   1   2
ATOM      2  C   UNL     1       3.195   6.334  19.133  0.00  0.00    +0.000 C 
ATOM      3  C   UNL     1       2.096   6.586  20.173  0.00  0.00    +0.000 C 
ATOM      4  C   UNL     1       1.781   8.072  20.281  0.00  0.00    +0.000 C 
ATOM      5  O   UNL     1       1.447   8.610  19.003  0.00  0.00    +0.000 OA
ATOM      6  C   UNL     1       2.524   8.516  18.077  0.00  0.00    +0.000 C 
ATOM      7  C   UNL     1       2.887   7.059  17.820  0.00  0.00    +0.000 C 
ENDBRANCH   1   2
BRANCH   1   9
ATOM      8  O   UNL     1       5.313   3.096  19.496  0.00  0.00    +0.000 OA
ATOM      9  S   UNL     1       5.219   4.456  19.024  0.00  0.00    +0.000 S 
ATOM     10  O   UNL     1       5.920   5.533  19.682  0.00  0.00    +0.000 OA
BRANCH   9  11
ATOM     11  C   UNL     1       5.805   4.450  17.359  0.00  0.00    +0.000 A 
ATOM     12  C   UNL     1       4.935   4.336  16.282  0.00  0.00    +0.000 A 
ATOM     13  C   UNL     1       5.464   4.388  14.991  0.00  0.00    +0.000 A 
ATOM     14  C   UNL     1       6.836   4.554  14.846  0.00  0.00    +0.000 A 
ATOM     15  N   UNL     1       7.693   4.671  15.882  0.00  0.00    +0.000 NA
ATOM     16  C   UNL     1       7.158   4.636  17.125  0.00  0.00    +0.000 A 
ENDBRANCH   9  11
ENDBRANCH   1   9
BRANCH   1  17
ATOM     17  C   UNL     1       2.663   3.919  19.789  0.00  0.00    +0.000 C 
BRANCH  17  18
ATOM     18  C   UNL     1       1.358   3.374  19.187  0.00  0.00    +0.000 C 
ATOM     19  F   UNL     1       1.341   2.033  19.042  0.00  0.00    +0.000 F 
ATOM     20  F   UNL     1       0.303   3.696  19.974  0.00  0.00    +0.000 F 
ATOM     21  F   UNL     1       1.132   3.921  17.971  0.00  0.00    +0.000 F 
ENDBRANCH  17  18
ENDBRANCH   1  17
TORSDOF 5
ENDMDL
MODEL 2
REMARK VINA RESULT:      -7.6      0.534      1.027
REMARK  Name = 
REMARK  5 active torsions:
REMARK  status: ('A' for Active; 'I' for Inactive)
REMARK    1  A    between atoms: S_2  and  C_4
REMARK    2  A    between atoms: S_2  and  N_10
REMARK    3  A    between atoms: N_10  and  C_11
REMARK    4  A    between atoms: N_10  and  C_16
REMARK    5  A    between atoms: C_11  and  C_12
REMARK                            x       y       z     vdW  Elec       q    Type
REMARK                         _______ _______ _______ _____ _____    ______ ____
ROOT
ATOM      1  N   UNL     1       3.493   4.949  18.721  0.00  0.00    +0.000 NA
ENDROOT
BRANCH   1   2
ATOM      2  C   UNL     1       3.146   6.411  19.047  0.00  0.00    +0.000 C 
ATOM      3  C   UNL     1       2.059   6.559  20.119  0.00  0.00    +0.000 C 
ATOM      4  C   UNL     1       1.733   8.027  20.362  0.00  0.00    +0.000 C 
ATOM      5  O   UNL     1       1.377   8.672  19.141  0.00  0.00    +0.000 OA
ATOM      6  C   UNL     1       2.443   8.670  18.196  0.00  0.00    +0.000 C 
ATOM      7  C   UNL     1       2.814   7.245  17.807  0.00  0.00    +0.000 C 
ENDBRANCH   1   2
BRANCH   1   9
ATOM      8  O   UNL     1       5.217   3.152  19.310  0.00  0.00    +0.000 OA
ATOM      9  S   UNL     1       5.168   4.532  18.891  0.00  0.00    +0.000 S 
ATOM     10  O   UNL     1       5.837   5.572  19.637  0.00  0.00    +0.000 OA
BRANCH   9  11
ATOM     11  C   UNL     1       5.856   4.588  17.267  0.00  0.00    +0.000 A 
ATOM     12  C   UNL     1       5.277   3.901  16.207  0.00  0.00    +0.000 A 
ATOM     13  C   UNL     1       5.848   4.031  14.940  0.00  0.00    +0.000 A 
ATOM     14  C   UNL     1       6.965   4.844  14.799  0.00  0.00    +0.000 A 
ATOM     15  N   UNL     1       7.536   5.522  15.817  0.00  0.00    +0.000 NA
ATOM     16  C   UNL     1       6.956   5.397  17.034  0.00  0.00    +0.000 A 
ENDBRANCH   9  11
ENDBRANCH   1   9
BRANCH   1  17
ATOM     17  C   UNL     1       2.558   3.945  19.393  0.00  0.00    +0.000 C 
BRANCH  17  18
ATOM     18  C   UNL     1       1.463   3.274  18.548  0.00  0.00    +0.000 C 
ATOM     19  F   UNL     1       0.939   4.074  17.597  0.00  0.00    +0.000 F 
ATOM     20  F   UNL     1       1.956   2.183  17.914  0.00  0.00    +0.000 F 
ATOM     21  F   UNL     1       0.447   2.854  19.336  0.00  0.00    +0.000 F 
ENDBRANCH  17  18
ENDBRANCH   1  17
TORSDOF 5
ENDMDL
MODEL 3
REMARK VINA RESULT:      -7.4      2.303      3.453
REMARK  Name = 
REMARK  5 active torsions:
REMARK  status: ('A' for Active; 'I' for Inactive)
REMARK    1  A    between atoms: S_2  and  C_4
REMARK    2  A    between atoms: S_2  and  N_10
REMARK    3  A    between atoms: N_10  and  C_11
REMARK    4  A    between atoms: N_10  and  C_16
REMARK    5  A    between atoms: C_11  and  C_12
REMARK                            x       y       z     vdW  Elec       q    Type
REMARK                         _______ _______ _______ _____ _____    ______ ____
ROOT
ATOM      1  N   UNL     1       3.995   5.261  19.130  0.00  0.00    +0.000 NA
ENDROOT
BRANCH   1   2
ATOM      2  C   UNL     1       2.963   4.155  19.403  0.00  0.00    +0.000 C 
ATOM      3  C   UNL     1       2.036   3.875  18.213  0.00  0.00    +0.000 C 
ATOM      4  C   UNL     1       1.012   2.803  18.563  0.00  0.00    +0.000 C 
ATOM      5  O   UNL     1       0.287   3.164  19.737  0.00  0.00    +0.000 OA
ATOM      6  C   UNL     1       1.128   3.276  20.881  0.00  0.00    +0.000 C 
ATOM      7  C   UNL     1       2.158   4.381  20.686  0.00  0.00    +0.000 C 
ENDBRANCH   1   2
BRANCH   1   9
ATOM      8  O   UNL     1       5.661   3.343  19.434  0.00  0.00    +0.000 OA
ATOM      9  S   UNL     1       5.640   4.724  19.016  0.00  0.00    +0.000 S 
ATOM     10  O   UNL     1       6.500   5.710  19.626  0.00  0.00    +0.000 OA
BRANCH   9  11
ATOM     11  C   UNL     1       6.042   4.734  17.298  0.00  0.00    +0.000 A 
ATOM     12  C   UNL     1       5.379   3.918  16.390  0.00  0.00    +0.000 A 
ATOM     13  C   UNL     1       5.716   4.015  15.039  0.00  0.00    +0.000 A 
ATOM     14  C   UNL     1       6.697   4.926  14.667  0.00  0.00    +0.000 A 
ATOM     15  N   UNL     1       7.347   5.729  15.536  0.00  0.00    +0.000 NA
ATOM     16  C   UNL     1       6.992   5.632  16.839  0.00  0.00    +0.000 A 
ENDBRANCH   9  11
ENDBRANCH   1   9
BRANCH   1  17
ATOM     17  C   UNL     1       3.592   6.192  17.988  0.00  0.00    +0.000 C 
BRANCH  17  18
ATOM     18  C   UNL     1       2.729   7.424  18.307  0.00  0.00    +0.000 C 
ATOM     19  F   UNL     1       3.266   8.590  17.894  0.00  0.00    +0.000 F 
ATOM     20  F   UNL     1       1.517   7.319  17.712  0.00  0.00    +0.000 F 
ATOM     21  F   UNL     1       2.514   7.519  19.640  0.00  0.00    +0.000 F 
ENDBRANCH  17  18
ENDBRANCH   1  17
TORSDOF 5
ENDMDL
MODEL 4
REMARK VINA RESULT:      -7.3      2.742      5.418
REMARK  Name = 
REMARK  5 active torsions:
REMARK  status: ('A' for Active; 'I' for Inactive)
REMARK    1  A    between atoms: S_2  and  C_4
REMARK    2  A    between atoms: S_2  and  N_10
REMARK    3  A    between atoms: N_10  and  C_11
REMARK    4  A    between atoms: N_10  and  C_16
REMARK    5  A    between atoms: C_11  and  C_12
REMARK                            x       y       z     vdW  Elec       q    Type
REMARK                         _______ _______ _______ _____ _____    ______ ____
ROOT
ATOM      1  N   UNL     1       3.571   4.935  17.397  0.00  0.00    +0.000 NA
ENDROOT
BRANCH   1   2
ATOM      2  C   UNL     1       4.995   4.502  17.013  0.00  0.00    +0.000 C 
ATOM      3  C   UNL     1       6.075   5.022  17.970  0.00  0.00    +0.000 C 
ATOM      4  C   UNL     1       7.462   4.594  17.508  0.00  0.00    +0.000 C 
ATOM      5  O   UNL     1       7.692   5.004  16.161  0.00  0.00    +0.000 OA
ATOM      6  C   UNL     1       6.782   4.400  15.247  0.00  0.00    +0.000 C 
ATOM      7  C   UNL     1       5.351   4.816  15.557  0.00  0.00    +0.000 C 
ENDBRANCH   1   2
BRANCH   1   9
ATOM      8  O   UNL     1       3.003   2.484  16.936  0.00  0.00    +0.000 OA
ATOM      9  S   UNL     1       2.427   3.644  17.572  0.00  0.00    +0.000 S 
ATOM     10  O   UNL     1       1.115   4.127  17.214  0.00  0.00    +0.000 OA
BRANCH   9  11
ATOM     11  C   UNL     1       2.352   3.285  19.298  0.00  0.00    +0.000 A 
ATOM     12  C   UNL     1       1.186   3.471  20.030  0.00  0.00    +0.000 A 
ATOM     13  C   UNL     1       1.185   3.120  21.381  0.00  0.00    +0.000 A 
ATOM     14  C   UNL     1       2.350   2.596  21.928  0.00  0.00    +0.000 A 
ATOM     15  N   UNL     1       3.489   2.404  21.229  0.00  0.00    +0.000 NA
ATOM     16  C   UNL     1       3.463   2.734  19.916  0.00  0.00    +0.000 A 
ENDBRANCH   9  11
ENDBRANCH   1   9
BRANCH   1  17
ATOM     17  C   UNL     1       3.538   5.922  18.564  0.00  0.00    +0.000 C 
BRANCH  17  18
ATOM     18  C   UNL     1       2.782   7.250  18.388  0.00  0.00    +0.000 C 
ATOM     19  F   UNL     1       1.662   7.147  17.644  0.00  0.00    +0.000 F 
ATOM     20  F   UNL     1       2.408   7.744  19.592  0.00  0.00    +0.000 F 
ATOM     21  F   UNL     1       3.579   8.175  17.805  0.00  0.00    +0.000 F 
ENDBRANCH  17  18
ENDBRANCH   1  17
TORSDOF 5
ENDMDL
MODEL 5
REMARK VINA RESULT:      -7.1      2.681      5.269
REMARK  Name = 
REMARK  5 active torsions:
REMARK  status: ('A' for Active; 'I' for Inactive)
REMARK    1  A    between atoms: S_2  and  C_4
REMARK    2  A    between atoms: S_2  and  N_10
REMARK    3  A    between atoms: N_10  and  C_11
REMARK    4  A    between atoms: N_10  and  C_16
REMARK    5  A    between atoms: C_11  and  C_12
REMARK                            x       y       z     vdW  Elec       q    Type
REMARK                         _______ _______ _______ _____ _____    ______ ____
ROOT
ATOM      1  N   UNL     1       3.762   5.018  17.532  0.00  0.00    +0.000 NA
ENDROOT
BRANCH   1   2
ATOM      2  C   UNL     1       5.246   5.027  17.131  0.00  0.00    +0.000 C 
ATOM      3  C   UNL     1       6.047   6.170  17.768  0.00  0.00    +0.000 C 
ATOM      4  C   UNL     1       7.495   6.147  17.297  0.00  0.00    +0.000 C 
ATOM      5  O   UNL     1       7.561   6.171  15.872  0.00  0.00    +0.000 OA
ATOM      6  C   UNL     1       6.949   5.029  15.282  0.00  0.00    +0.000 C 
ATOM      7  C   UNL     1       5.465   4.979  15.617  0.00  0.00    +0.000 C 
ENDBRANCH   1   2
BRANCH   1   9
ATOM      8  O   UNL     1       4.064   2.485  17.331  0.00  0.00    +0.000 OA
ATOM      9  S   UNL     1       3.028   3.449  17.610  0.00  0.00    +0.000 S 
ATOM     10  O   UNL     1       1.795   3.470  16.859  0.00  0.00    +0.000 OA
BRANCH   9  11
ATOM     11  C   UNL     1       2.559   3.209  19.294  0.00  0.00    +0.000 A 
ATOM     12  C   UNL     1       1.255   3.418  19.724  0.00  0.00    +0.000 A 
ATOM     13  C   UNL     1       0.946   3.162  21.061  0.00  0.00    +0.000 A 
ATOM     14  C   UNL     1       1.958   2.706  21.897  0.00  0.00    +0.000 A 
ATOM     15  N   UNL     1       3.228   2.493  21.493  0.00  0.00    +0.000 NA
ATOM     16  C   UNL     1       3.503   2.730  20.189  0.00  0.00    +0.000 A 
ENDBRANCH   9  11
ENDBRANCH   1   9
BRANCH   1  17
ATOM     17  C   UNL     1       3.465   5.876  18.761  0.00  0.00    +0.000 C 
BRANCH  17  18
ATOM     18  C   UNL     1       2.531   7.088  18.609  0.00  0.00    +0.000 C 
ATOM     19  F   UNL     1       1.924   7.457  19.755  0.00  0.00    +0.000 F 
ATOM     20  F   UNL     1       3.222   8.165  18.166  0.00  0.00    +0.000 F 
ATOM     21  F   UNL     1       1.565   6.829  17.697  0.00  0.00    +0.000 F 
ENDBRANCH  17  18
ENDBRANCH   1  17
TORSDOF 5
ENDMDL
MODEL 6
REMARK VINA RESULT:      -7.1      0.677      1.370
REMARK  Name = 
REMARK  5 active torsions:
REMARK  status: ('A' for Active; 'I' for Inactive)
REMARK    1  A    between atoms: S_2  and  C_4
REMARK    2  A    between atoms: S_2  and  N_10
REMARK    3  A    between atoms: N_10  and  C_11
REMARK    4  A    between atoms: N_10  and  C_16
REMARK    5  A    between atoms: C_11  and  C_12
REMARK                            x       y       z     vdW  Elec       q    Type
REMARK                         _______ _______ _______ _____ _____    ______ ____
ROOT
ATOM      1  N   UNL     1       3.423   4.864  18.973  0.00  0.00    +0.000 NA
ENDROOT
BRANCH   1   2
ATOM      2  C   UNL     1       3.112   6.355  19.179  0.00  0.00    +0.000 C 
ATOM      3  C   UNL     1       2.013   6.615  20.217  0.00  0.00    +0.000 C 
ATOM      4  C   UNL     1       1.725   8.106  20.341  0.00  0.00    +0.000 C 
ATOM      5  O   UNL     1       1.406   8.664  19.067  0.00  0.00    +0.000 OA
ATOM      6  C   UNL     1       2.485   8.560  18.144  0.00  0.00    +0.000 C 
ATOM      7  C   UNL     1       2.823   7.100  17.873  0.00  0.00    +0.000 C 
ENDBRANCH   1   2
BRANCH   1   9
ATOM      8  O   UNL     1       5.180   3.068  19.454  0.00  0.00    +0.000 OA
ATOM      9  S   UNL     1       5.104   4.445  19.033  0.00  0.00    +0.000 S 
ATOM     10  O   UNL     1       5.824   5.488  19.726  0.00  0.00    +0.000 OA
BRANCH   9  11
ATOM     11  C   UNL     1       5.683   4.493  17.366  0.00  0.00    +0.000 A 
ATOM     12  C   UNL     1       7.015   4.741  17.064  0.00  0.00    +0.000 A 
ATOM     13  C   UNL     1       7.411   4.715  15.726  0.00  0.00    +0.000 A 
ATOM     14  C   UNL     1       6.452   4.438  14.759  0.00  0.00    +0.000 A 
ATOM     15  N   UNL     1       5.155   4.190  15.037  0.00  0.00    +0.000 NA
ATOM     16  C   UNL     1       4.796   4.202  16.342  0.00  0.00    +0.000 A 
ENDBRANCH   9  11
ENDBRANCH   1   9
BRANCH   1  17
ATOM     17  C   UNL     1       2.550   3.944  19.824  0.00  0.00    +0.000 C 
BRANCH  17  18
ATOM     18  C   UNL     1       1.418   3.159  19.142  0.00  0.00    +0.000 C 
ATOM     19  F   UNL     1       1.041   3.666  17.950  0.00  0.00    +0.000 F 
ATOM     20  F   UNL     1       1.798   1.878  18.920  0.00  0.00    +0.000 F 
ATOM     21  F   UNL     1       0.323   3.119  19.936  0.00  0.00    +0.000 F 
ENDBRANCH  17  18
ENDBRANCH   1  17
TORSDOF 5
ENDMDL
MODEL 7
REMARK VINA RESULT:      -7.0      2.908      5.204
REMARK  Name = 
REMARK  5 active torsions:
REMARK  status: ('A' for Active; 'I' for Inactive)
REMARK    1  A    between atoms: S_2  and  C_4
REMARK    2  A    between atoms: S_2  and  N_10
REMARK    3  A    between atoms: N_10  and  C_11
REMARK    4  A    between atoms: N_10  and  C_16
REMARK    5  A    between atoms: C_11  and  C_12
REMARK                            x       y       z     vdW  Elec       q    Type
REMARK                         _______ _______ _______ _____ _____    ______ ____
ROOT
ATOM      1  N   UNL     1       3.364   5.506  17.759  0.00  0.00    +0.000 NA
ENDROOT
BRANCH   1   2
ATOM      2  C   UNL     1       4.898   5.410  17.755  0.00  0.00    +0.000 C 
ATOM      3  C   UNL     1       5.528   5.599  19.140  0.00  0.00    +0.000 C 
ATOM      4  C   UNL     1       7.049   5.537  19.058  0.00  0.00    +0.000 C 
ATOM      5  O   UNL     1       7.540   6.481  18.109  0.00  0.00    +0.000 OA
ATOM      6  C   UNL     1       7.076   6.215  16.789  0.00  0.00    +0.000 C 
ATOM      7  C   UNL     1       5.559   6.325  16.720  0.00  0.00    +0.000 C 
ENDBRANCH   1   2
BRANCH   1   9
ATOM      8  O   UNL     1       3.411   3.053  17.032  0.00  0.00    +0.000 OA
ATOM      9  S   UNL     1       2.530   3.987  17.688  0.00  0.00    +0.000 S 
ATOM     10  O   UNL     1       1.183   4.213  17.218  0.00  0.00    +0.000 OA
BRANCH   9  11
ATOM     11  C   UNL     1       2.369   3.437  19.357  0.00  0.00    +0.000 A 
ATOM     12  C   UNL     1       1.150   3.475  20.022  0.00  0.00    +0.000 A 
ATOM     13  C   UNL     1       1.086   2.978  21.324  0.00  0.00    +0.000 A 
ATOM     14  C   UNL     1       2.246   2.466  21.893  0.00  0.00    +0.000 A 
ATOM     15  N   UNL     1       3.437   2.418  21.259  0.00  0.00    +0.000 NA
ATOM     16  C   UNL     1       3.472   2.888  19.990  0.00  0.00    +0.000 A 
ENDBRANCH   9  11
ENDBRANCH   1   9
BRANCH   1  17
ATOM     17  C   UNL     1       2.822   6.433  18.845  0.00  0.00    +0.000 C 
BRANCH  17  18
ATOM     18  C   UNL     1       2.355   7.843  18.448  0.00  0.00    +0.000 C 
ATOM     19  F   UNL     1       1.849   8.560  19.472  0.00  0.00    +0.000 F 
ATOM     20  F   UNL     1       3.387   8.559  17.942  0.00  0.00    +0.000 F 
ATOM     21  F   UNL     1       1.405   7.775  17.487  0.00  0.00    +0.000 F 
ENDBRANCH  17  18
ENDBRANCH   1  17
TORSDOF 5
ENDMDL
MODEL 8
REMARK VINA RESULT:      -6.9      2.791      5.499
REMARK  Name = 
REMARK  5 active torsions:
REMARK  status: ('A' for Active; 'I' for Inactive)
REMARK    1  A    between atoms: S_2  and  C_4
REMARK    2  A    between atoms: S_2  and  N_10
REMARK    3  A    between atoms: N_10  and  C_11
REMARK    4  A    between atoms: N_10  and  C_16
REMARK    5  A    between atoms: C_11  and  C_12
REMARK                            x       y       z     vdW  Elec       q    Type
REMARK                         _______ _______ _______ _____ _____    ______ ____
ROOT
ATOM      1  N   UNL     1       3.461   5.053  17.394  0.00  0.00    +0.000 NA
ENDROOT
BRANCH   1   2
ATOM      2  C   UNL     1       4.888   4.587  17.065  0.00  0.00    +0.000 C 
ATOM      3  C   UNL     1       5.938   5.060  18.079  0.00  0.00    +0.000 C 
ATOM      4  C   UNL     1       7.332   4.602  17.672  0.00  0.00    +0.000 C 
ATOM      5  O   UNL     1       7.634   5.029  16.345  0.00  0.00    +0.000 OA
ATOM      6  C   UNL     1       6.751   4.467  15.380  0.00  0.00    +0.000 C 
ATOM      7  C   UNL     1       5.319   4.918  15.634  0.00  0.00    +0.000 C 
ENDBRANCH   1   2
BRANCH   1   9
ATOM      8  O   UNL     1       2.778   2.677  16.735  0.00  0.00    +0.000 OA
ATOM      9  S   UNL     1       2.279   3.789  17.506  0.00  0.00    +0.000 S 
ATOM     10  O   UNL     1       0.970   4.348  17.265  0.00  0.00    +0.000 OA
BRANCH   9  11
ATOM     11  C   UNL     1       2.275   3.269  19.192  0.00  0.00    +0.000 A 
ATOM     12  C   UNL     1       3.403   2.721  19.789  0.00  0.00    +0.000 A 
ATOM     13  C   UNL     1       3.342   2.377  21.140  0.00  0.00    +0.000 A 
ATOM     14  C   UNL     1       2.154   2.602  21.825  0.00  0.00    +0.000 A 
ATOM     15  N   UNL     1       1.051   3.137  21.261  0.00  0.00    +0.000 NA
ATOM     16  C   UNL     1       1.137   3.481  19.955  0.00  0.00    +0.000 A 
ENDBRANCH   9  11
ENDBRANCH   1   9
BRANCH   1  17
ATOM     17  C   UNL     1       3.403   6.029  18.569  0.00  0.00    +0.000 C 
BRANCH  17  18
ATOM     18  C   UNL     1       2.724   7.393  18.363  0.00  0.00    +0.000 C 
ATOM     19  F   UNL     1       1.621   7.345  17.589  0.00  0.00    +0.000 F 
ATOM     20  F   UNL     1       2.344   7.916  19.554  0.00  0.00    +0.000 F 
ATOM     21  F   UNL     1       3.585   8.270  17.797  0.00  0.00    +0.000 F 
ENDBRANCH  17  18
ENDBRANCH   1  17
TORSDOF 5
ENDMDL
MODEL 9
REMARK VINA RESULT:      -6.8      2.345      3.361
REMARK  Name = 
REMARK  5 active torsions:
REMARK  status: ('A' for Active; 'I' for Inactive)
REMARK    1  A    between atoms: S_2  and  C_4
REMARK    2  A    between atoms: S_2  and  N_10
REMARK    3  A    between atoms: N_10  and  C_11
REMARK    4  A    between atoms: N_10  and  C_16
REMARK    5  A    between atoms: C_11  and  C_12
REMARK                            x       y       z     vdW  Elec       q    Type
REMARK                         _______ _______ _______ _____ _____    ______ ____
ROOT
ATOM      1  N   UNL     1       3.940   5.524  19.176  0.00  0.00    +0.000 NA
ENDROOT
BRANCH   1   2
ATOM      2  C   UNL     1       2.671   4.690  19.415  0.00  0.00    +0.000 C 
ATOM      3  C   UNL     1       2.631   4.012  20.790  0.00  0.00    +0.000 C 
ATOM      4  C   UNL     1       1.372   3.168  20.944  0.00  0.00    +0.000 C 
ATOM      5  O   UNL     1       1.262   2.229  19.877  0.00  0.00    +0.000 OA
ATOM      6  C   UNL     1       1.144   2.862  18.607  0.00  0.00    +0.000 C 
ATOM      7  C   UNL     1       2.389   3.683  18.296  0.00  0.00    +0.000 C 
ENDBRANCH   1   2
BRANCH   1   9
ATOM      8  O   UNL     1       5.077   3.238  19.341  0.00  0.00    +0.000 OA
ATOM      9  S   UNL     1       5.411   4.614  19.066  0.00  0.00    +0.000 S 
ATOM     10  O   UNL     1       6.445   5.301  19.803  0.00  0.00    +0.000 OA
BRANCH   9  11
ATOM     11  C   UNL     1       5.905   4.682  17.373  0.00  0.00    +0.000 A 
ATOM     12  C   UNL     1       5.243   3.955  16.392  0.00  0.00    +0.000 A 
ATOM     13  C   UNL     1       5.657   4.095  15.066  0.00  0.00    +0.000 A 
ATOM     14  C   UNL     1       6.712   4.958  14.792  0.00  0.00    +0.000 A 
ATOM     15  N   UNL     1       7.362   5.673  15.733  0.00  0.00    +0.000 NA
ATOM     16  C   UNL     1       6.933   5.537  17.009  0.00  0.00    +0.000 A 
ENDBRANCH   9  11
ENDBRANCH   1   9
BRANCH   1  17
ATOM     17  C   UNL     1       3.785   6.545  18.050  0.00  0.00    +0.000 C 
BRANCH  17  18
ATOM     18  C   UNL     1       2.680   7.609  18.163  0.00  0.00    +0.000 C 
ATOM     19  F   UNL     1       1.520   7.257  17.572  0.00  0.00    +0.000 F 
ATOM     20  F   UNL     1       2.397   7.861  19.463  0.00  0.00    +0.000 F 
ATOM     21  F   UNL     1       3.087   8.774  17.608  0.00  0.00    +0.000 F 
ENDBRANCH  17  18
ENDBRANCH   1  17
TORSDOF 5
ENDMDL
