MODEL 1
REMARK VINA RESULT:      -8.2      0.000      0.000
REMARK  Name = 
REMARK  9 active torsions:
REMARK  status: ('A' for Active; 'I' for Inactive)
REMARK    1  A    between atoms: C_1  and  O_2
REMARK    2  A    between atoms: O_2  and  C_3
REMARK    3  A    between atoms: C_5  and  N_6
REMARK    4  A    between atoms: N_6  and  S_7
REMARK    5  A    between atoms: S_7  and  C_8
REMARK    6  A    between atoms: C_13  and  N_14
REMARK    7  A    between atoms: N_14  and  C_15
REMARK    8  A    between atoms: C_19  and  N_20
REMARK    9  A    between atoms: C_28  and  N_29
REMARK                            x       y       z     vdW  Elec       q    Type
REMARK                         _______ _______ _______ _____ _____    ______ ____
ROOT
ATOM      1  C   UNL     1       3.942   5.844  18.988  0.00  0.00    +0.000 A 
ATOM      2  C   UNL     1       4.727   5.820  17.712  0.00  0.00    +0.000 A 
ATOM      3  C   UNL     1       4.484   6.339  16.393  0.00  0.00    +0.000 A 
ATOM      4  C   UNL     1       5.309   6.082  15.270  0.00  0.00    +0.000 A 
ATOM      5  C   UNL     1       6.461   5.294  15.453  0.00  0.00    +0.000 A 
ATOM      6  C   UNL     1       6.739   4.753  16.692  0.00  0.00    +0.000 A 
ATOM      7  C   UNL     1       5.840   4.927  17.724  0.00  0.00    +0.000 A 
ATOM      8  N   UNL     1       5.933   3.976  18.625  0.00  0.00    +0.000 NA
ATOM      9  C   UNL     1       4.794   3.753  19.240  0.00  0.00    +0.000 A 
ATOM     10  C   UNL     1       3.811   2.945  18.629  0.00  0.00    +0.000 A 
ATOM     11  C   UNL     1       2.473   3.118  19.031  0.00  0.00    +0.000 A 
ATOM     12  C   UNL     1       2.270   3.559  20.337  0.00  0.00    +0.000 A 
ATOM     13  C   UNL     1       3.301   4.314  20.866  0.00  0.00    +0.000 A 
ATOM     14  C   UNL     1       4.225   4.774  19.921  0.00  0.00    +0.000 A 
ENDROOT
BRANCH   5  15
ATOM     15  N   UNL     1       7.307   4.906  14.299  0.00  0.00    +0.000 N 
ATOM     16  O   UNL     1       6.995   3.873  13.685  0.00  0.00    +0.000 OA
ATOM     17  O   UNL     1       8.275   5.621  14.025  0.00  0.00    +0.000 OA
ENDBRANCH   5  15
BRANCH  11  18
ATOM     18  N   UNL     1       1.544   3.699  18.009  0.00  0.00    +0.000 N 
ATOM     19  O   UNL     1       1.806   3.499  16.811  0.00  0.00    +0.000 OA
ATOM     20  O   UNL     1       0.619   4.410  18.422  0.00  0.00    +0.000 OA
ENDBRANCH  11  18
BRANCH   1  21
ATOM     21  N   UNL     1       2.698   6.557  19.268  0.00  0.00    +0.000 N 
ATOM     22  H   UNL     1       2.004   5.973  19.723  0.00  0.00    +0.000 HD
BRANCH  21  28
ATOM     23  C   UNL     1       1.406   8.488  20.199  0.00  0.00    +0.000 A 
ATOM     24  C   UNL     1       0.718   9.691  19.933  0.00  0.00    +0.000 A 
ATOM     25  C   UNL     1       0.738  10.251  18.657  0.00  0.00    +0.000 A 
ATOM     26  C   UNL     1       1.550   9.693  17.668  0.00  0.00    +0.000 A 
ATOM     27  C   UNL     1       2.316   8.561  17.956  0.00  0.00    +0.000 A 
ATOM     28  C   UNL     1       2.186   7.870  19.160  0.00  0.00    +0.000 A 
BRANCH  23  30
ATOM     29  C   UNL     1      -0.267   8.185  21.976  0.00  0.00    +0.000 C 
ATOM     30  O   UNL     1       0.935   7.819  21.307  0.00  0.00    +0.000 OA
ENDBRANCH  23  30
BRANCH  25  31
ATOM     31  N   UNL     1      -0.095  11.353  18.305  0.00  0.00    +0.000 N 
ATOM     32  H   UNL     1      -0.029  12.150  18.937  0.00  0.00    +0.000 HD
BRANCH  31  33
ATOM     33  S   UNL     1      -1.758  11.050  18.033  0.00  0.00    +0.000 S 
ATOM     34  C   UNL     1      -2.502  12.036  19.332  0.00  0.00    +0.000 C 
ATOM     35  O   UNL     1      -2.147  11.577  16.748  0.00  0.00    +0.000 OA
ATOM     36  O   UNL     1      -1.946   9.662  18.378  0.00  0.00    +0.000 OA
ENDBRANCH  31  33
ENDBRANCH  25  31
ENDBRANCH  21  28
ENDBRANCH   1  21
TORSDOF 7
ENDMDL
MODEL 2
REMARK VINA RESULT:      -8.1      1.184      1.298
REMARK  Name = 
REMARK  9 active torsions:
REMARK  status: ('A' for Active; 'I' for Inactive)
REMARK    1  A    between atoms: C_1  and  O_2
REMARK    2  A    between atoms: O_2  and  C_3
REMARK    3  A    between atoms: C_5  and  N_6
REMARK    4  A    between atoms: N_6  and  S_7
REMARK    5  A    between atoms: S_7  and  C_8
REMARK    6  A    between atoms: C_13  and  N_14
REMARK    7  A    between atoms: N_14  and  C_15
REMARK    8  A    between atoms: C_19  and  N_20
REMARK    9  A    between atoms: C_28  and  N_29
REMARK                            x       y       z     vdW  Elec       q    Type
REMARK                         _______ _______ _______ _____ _____    ______ ____
ROOT
ATOM      1  C   UNL     1       4.012   5.758  18.972  0.00  0.00    +0.000 A 
ATOM      2  C   UNL     1       4.788   5.755  17.690  0.00  0.00    +0.000 A 
ATOM      3  C   UNL     1       4.532   6.293  16.381  0.00  0.00    +0.000 A 
ATOM      4  C   UNL     1       5.350   6.055  15.248  0.00  0.00    +0.000 A 
ATOM      5  C   UNL     1       6.505   5.267  15.410  0.00  0.00    +0.000 A 
ATOM      6  C   UNL     1       6.794   4.708  16.639  0.00  0.00    +0.000 A 
ATOM      7  C   UNL     1       5.903   4.864  17.680  0.00  0.00    +0.000 A 
ATOM      8  N   UNL     1       6.005   3.900  18.566  0.00  0.00    +0.000 NA
ATOM      9  C   UNL     1       4.872   3.665  19.186  0.00  0.00    +0.000 A 
ATOM     10  C   UNL     1       3.886   2.863  18.571  0.00  0.00    +0.000 A 
ATOM     11  C   UNL     1       2.550   3.027  18.986  0.00  0.00    +0.000 A 
ATOM     12  C   UNL     1       2.357   3.448  20.300  0.00  0.00    +0.000 A 
ATOM     13  C   UNL     1       3.390   4.197  20.832  0.00  0.00    +0.000 A 
ATOM     14  C   UNL     1       4.305   4.674  19.887  0.00  0.00    +0.000 A 
ENDROOT
BRANCH   5  15
ATOM     15  N   UNL     1       7.343   4.898  14.243  0.00  0.00    +0.000 N 
ATOM     16  O   UNL     1       7.021   3.882  13.609  0.00  0.00    +0.000 OA
ATOM     17  O   UNL     1       8.315   5.612  13.981  0.00  0.00    +0.000 OA
ENDBRANCH   5  15
BRANCH  11  18
ATOM     18  N   UNL     1       1.612   3.621  17.980  0.00  0.00    +0.000 N 
ATOM     19  O   UNL     1       1.869   3.445  16.777  0.00  0.00    +0.000 OA
ATOM     20  O   UNL     1       0.685   4.318  18.412  0.00  0.00    +0.000 OA
ENDBRANCH  11  18
BRANCH   1  21
ATOM     21  N   UNL     1       2.769   6.462  19.273  0.00  0.00    +0.000 N 
ATOM     22  H   UNL     1       2.088   5.877  19.744  0.00  0.00    +0.000 HD
BRANCH  21  28
ATOM     23  C   UNL     1       1.451   8.376  20.204  0.00  0.00    +0.000 A 
ATOM     24  C   UNL     1       0.754   9.574  19.939  0.00  0.00    +0.000 A 
ATOM     25  C   UNL     1       0.779  10.142  18.667  0.00  0.00    +0.000 A 
ATOM     26  C   UNL     1       1.605   9.597  17.681  0.00  0.00    +0.000 A 
ATOM     27  C   UNL     1       2.379   8.471  17.969  0.00  0.00    +0.000 A 
ATOM     28  C   UNL     1       2.245   7.772  19.168  0.00  0.00    +0.000 A 
BRANCH  23  30
ATOM     29  C   UNL     1      -0.202   8.085  22.002  0.00  0.00    +0.000 C 
ATOM     30  O   UNL     1       0.977   7.696  21.304  0.00  0.00    +0.000 OA
ENDBRANCH  23  30
BRANCH  25  31
ATOM     31  N   UNL     1      -0.061  11.238  18.314  0.00  0.00    +0.000 N 
ATOM     32  H   UNL     1      -0.334  11.262  17.332  0.00  0.00    +0.000 HD
BRANCH  31  33
ATOM     33  S   UNL     1       0.449  12.814  18.745  0.00  0.00    +0.000 S 
ATOM     34  C   UNL     1      -0.020  12.863  20.474  0.00  0.00    +0.000 C 
ATOM     35  O   UNL     1       1.883  12.912  18.633  0.00  0.00    +0.000 OA
ATOM     36  O   UNL     1      -0.436  13.702  18.029  0.00  0.00    +0.000 OA
ENDBRANCH  31  33
ENDBRANCH  25  31
ENDBRANCH  21  28
ENDBRANCH   1  21
TORSDOF 7
ENDMDL
MODEL 3
REMARK VINA RESULT:      -8.0      0.669      1.076
REMARK  Name = 
REMARK  9 active torsions:
REMARK  status: ('A' for Active; 'I' for Inactive)
REMARK    1  A    between atoms: C_1  and  O_2
REMARK    2  A    between atoms: O_2  and  C_3
REMARK    3  A    between atoms: C_5  and  N_6
REMARK    4  A    between atoms: N_6  and  S_7
REMARK    5  A    between atoms: S_7  and  C_8
REMARK    6  A    between atoms: C_13  and  N_14
REMARK    7  A    between atoms: N_14  and  C_15
REMARK    8  A    between atoms: C_19  and  N_20
REMARK    9  A    between atoms: C_28  and  N_29
REMARK                            x       y       z     vdW  Elec       q    Type
REMARK                         _______ _______ _______ _____ _____    ______ ____
ROOT
ATOM      1  C   UNL     1       3.921   5.768  19.063  0.00  0.00    +0.000 A 
ATOM      2  C   UNL     1       4.696   5.756  17.780  0.00  0.00    +0.000 A 
ATOM      3  C   UNL     1       4.440   6.282  16.467  0.00  0.00    +0.000 A 
ATOM      4  C   UNL     1       5.257   6.036  15.336  0.00  0.00    +0.000 A 
ATOM      5  C   UNL     1       6.413   5.251  15.504  0.00  0.00    +0.000 A 
ATOM      6  C   UNL     1       6.703   4.703  16.737  0.00  0.00    +0.000 A 
ATOM      7  C   UNL     1       5.813   4.866  17.778  0.00  0.00    +0.000 A 
ATOM      8  N   UNL     1       5.916   3.910  18.671  0.00  0.00    +0.000 NA
ATOM      9  C   UNL     1       4.784   3.679  19.294  0.00  0.00    +0.000 A 
ATOM     10  C   UNL     1       3.798   2.871  18.686  0.00  0.00    +0.000 A 
ATOM     11  C   UNL     1       2.462   3.036  19.100  0.00  0.00    +0.000 A 
ATOM     12  C   UNL     1       2.269   3.468  20.411  0.00  0.00    +0.000 A 
ATOM     13  C   UNL     1       3.302   4.223  20.936  0.00  0.00    +0.000 A 
ATOM     14  C   UNL     1       4.216   4.693  19.987  0.00  0.00    +0.000 A 
ENDROOT
BRANCH   5  15
ATOM     15  N   UNL     1       7.251   4.874  14.340  0.00  0.00    +0.000 N 
ATOM     16  O   UNL     1       8.232   5.590  14.088  0.00  0.00    +0.000 OA
ATOM     17  O   UNL     1       6.917   3.882  13.685  0.00  0.00    +0.000 OA
ENDBRANCH   5  15
BRANCH  11  18
ATOM     18  N   UNL     1       1.524   3.620  18.089  0.00  0.00    +0.000 N 
ATOM     19  O   UNL     1       0.353   3.838  18.445  0.00  0.00    +0.000 OA
ATOM     20  O   UNL     1       1.954   3.773  16.938  0.00  0.00    +0.000 OA
ENDBRANCH  11  18
BRANCH   1  21
ATOM     21  N   UNL     1       2.677   6.474  19.358  0.00  0.00    +0.000 N 
ATOM     22  H   UNL     1       2.022   5.912  19.891  0.00  0.00    +0.000 HD
BRANCH  21  28
ATOM     23  C   UNL     1       1.366   8.431  20.206  0.00  0.00    +0.000 A 
ATOM     24  C   UNL     1       0.640   9.598  19.886  0.00  0.00    +0.000 A 
ATOM     25  C   UNL     1       0.605  10.074  18.577  0.00  0.00    +0.000 A 
ATOM     26  C   UNL     1       1.400   9.473  17.599  0.00  0.00    +0.000 A 
ATOM     27  C   UNL     1       2.203   8.380  17.934  0.00  0.00    +0.000 A 
ATOM     28  C   UNL     1       2.128   7.766  19.183  0.00  0.00    +0.000 A 
BRANCH  23  30
ATOM     29  C   UNL     1      -0.173   8.284  22.118  0.00  0.00    +0.000 C 
ATOM     30  O   UNL     1       0.947   7.825  21.369  0.00  0.00    +0.000 OA
ENDBRANCH  23  30
BRANCH  25  31
ATOM     31  N   UNL     1      -0.266  11.132  18.183  0.00  0.00    +0.000 N 
ATOM     32  H   UNL     1      -0.093  12.018  18.656  0.00  0.00    +0.000 HD
BRANCH  31  33
ATOM     33  S   UNL     1      -1.953  10.844  18.231  0.00  0.00    +0.000 S 
ATOM     34  C   UNL     1      -2.456  11.500  16.640  0.00  0.00    +0.000 C 
ATOM     35  O   UNL     1      -2.207   9.425  18.267  0.00  0.00    +0.000 OA
ATOM     36  O   UNL     1      -2.456  11.736  19.248  0.00  0.00    +0.000 OA
ENDBRANCH  31  33
ENDBRANCH  25  31
ENDBRANCH  21  28
ENDBRANCH   1  21
TORSDOF 7
ENDMDL
MODEL 4
REMARK VINA RESULT:      -7.6      1.813      2.492
REMARK  Name = 
REMARK  9 active torsions:
REMARK  status: ('A' for Active; 'I' for Inactive)
REMARK    1  A    between atoms: C_1  and  O_2
REMARK    2  A    between atoms: O_2  and  C_3
REMARK    3  A    between atoms: C_5  and  N_6
REMARK    4  A    between atoms: N_6  and  S_7
REMARK    5  A    between atoms: S_7  and  C_8
REMARK    6  A    between atoms: C_13  and  N_14
REMARK    7  A    between atoms: N_14  and  C_15
REMARK    8  A    between atoms: C_19  and  N_20
REMARK    9  A    between atoms: C_28  and  N_29
REMARK                            x       y       z     vdW  Elec       q    Type
REMARK                         _______ _______ _______ _____ _____    ______ ____
ROOT
ATOM      1  C   UNL     1       3.335   5.311  19.620  0.00  0.00    +0.000 A 
ATOM      2  C   UNL     1       4.195   5.432  18.399  0.00  0.00    +0.000 A 
ATOM      3  C   UNL     1       3.995   6.029  17.106  0.00  0.00    +0.000 A 
ATOM      4  C   UNL     1       4.902   5.909  16.023  0.00  0.00    +0.000 A 
ATOM      5  C   UNL     1       6.092   5.186  16.225  0.00  0.00    +0.000 A 
ATOM      6  C   UNL     1       6.334   4.576  17.439  0.00  0.00    +0.000 A 
ATOM      7  C   UNL     1       5.365   4.615  18.421  0.00  0.00    +0.000 A 
ATOM      8  N   UNL     1       5.470   3.609  19.258  0.00  0.00    +0.000 NA
ATOM      9  C   UNL     1       4.315   3.268  19.782  0.00  0.00    +0.000 A 
ATOM     10  C   UNL     1       3.429   2.444  19.055  0.00  0.00    +0.000 A 
ATOM     11  C   UNL     1       2.060   2.499  19.381  0.00  0.00    +0.000 A 
ATOM     12  C   UNL     1       1.750   2.829  20.699  0.00  0.00    +0.000 A 
ATOM     13  C   UNL     1       2.693   3.609  21.343  0.00  0.00    +0.000 A 
ATOM     14  C   UNL     1       3.636   4.197  20.494  0.00  0.00    +0.000 A 
ENDROOT
BRANCH   5  15
ATOM     15  N   UNL     1       7.030   4.940  15.103  0.00  0.00    +0.000 N 
ATOM     16  O   UNL     1       7.953   5.753  14.942  0.00  0.00    +0.000 OA
ATOM     17  O   UNL     1       6.831   3.952  14.389  0.00  0.00    +0.000 OA
ENDBRANCH   5  15
BRANCH  11  18
ATOM     18  N   UNL     1       1.156   3.091  18.344  0.00  0.00    +0.000 N 
ATOM     19  O   UNL     1      -0.067   3.064  18.559  0.00  0.00    +0.000 OA
ATOM     20  O   UNL     1       1.682   3.497  17.299  0.00  0.00    +0.000 OA
ENDBRANCH  11  18
BRANCH   1  21
ATOM     21  N   UNL     1       2.031   5.919  19.868  0.00  0.00    +0.000 N 
ATOM     22  H   UNL     1       1.272   5.246  19.845  0.00  0.00    +0.000 HD
BRANCH  21  28
ATOM     23  C   UNL     1       1.373   8.258  19.267  0.00  0.00    +0.000 A 
ATOM     24  C   UNL     1       1.078   9.560  19.724  0.00  0.00    +0.000 A 
ATOM     25  C   UNL     1       0.972   9.824  21.089  0.00  0.00    +0.000 A 
ATOM     26  C   UNL     1       1.026   8.772  22.005  0.00  0.00    +0.000 A 
ATOM     27  C   UNL     1       1.215   7.465  21.549  0.00  0.00    +0.000 A 
ATOM     28  C   UNL     1       1.503   7.184  20.215  0.00  0.00    +0.000 A 
BRANCH  23  30
ATOM     29  C   UNL     1       2.535   9.356  17.398  0.00  0.00    +0.000 C 
ATOM     30  O   UNL     1       1.903   8.229  17.996  0.00  0.00    +0.000 OA
ENDBRANCH  23  30
BRANCH  25  31
ATOM     31  N   UNL     1       0.866  11.154  21.592  0.00  0.00    +0.000 N 
ATOM     32  H   UNL     1       1.483  11.358  22.377  0.00  0.00    +0.000 HD
BRANCH  31  33
ATOM     33  S   UNL     1      -0.691  11.740  21.995  0.00  0.00    +0.000 S 
ATOM     34  C   UNL     1      -0.358  13.491  22.183  0.00  0.00    +0.000 C 
ATOM     35  O   UNL     1      -1.592  11.539  20.887  0.00  0.00    +0.000 OA
ATOM     36  O   UNL     1      -0.963  11.205  23.308  0.00  0.00    +0.000 OA
ENDBRANCH  31  33
ENDBRANCH  25  31
ENDBRANCH  21  28
ENDBRANCH   1  21
TORSDOF 7
ENDMDL
MODEL 5
REMARK VINA RESULT:      -7.2      1.804      2.339
REMARK  Name = 
REMARK  9 active torsions:
REMARK  status: ('A' for Active; 'I' for Inactive)
REMARK    1  A    between atoms: C_1  and  O_2
REMARK    2  A    between atoms: O_2  and  C_3
REMARK    3  A    between atoms: C_5  and  N_6
REMARK    4  A    between atoms: N_6  and  S_7
REMARK    5  A    between atoms: S_7  and  C_8
REMARK    6  A    between atoms: C_13  and  N_14
REMARK    7  A    between atoms: N_14  and  C_15
REMARK    8  A    between atoms: C_19  and  N_20
REMARK    9  A    between atoms: C_28  and  N_29
REMARK                            x       y       z     vdW  Elec       q    Type
REMARK                         _______ _______ _______ _____ _____    ______ ____
ROOT
ATOM      1  C   UNL     1       3.336   5.343  19.630  0.00  0.00    +0.000 A 
ATOM      2  C   UNL     1       4.174   5.446  18.392  0.00  0.00    +0.000 A 
ATOM      3  C   UNL     1       3.948   6.020  17.093  0.00  0.00    +0.000 A 
ATOM      4  C   UNL     1       4.836   5.886  15.997  0.00  0.00    +0.000 A 
ATOM      5  C   UNL     1       6.034   5.171  16.190  0.00  0.00    +0.000 A 
ATOM      6  C   UNL     1       6.299   4.583  17.410  0.00  0.00    +0.000 A 
ATOM      7  C   UNL     1       5.348   4.634  18.407  0.00  0.00    +0.000 A 
ATOM      8  N   UNL     1       5.472   3.643  19.260  0.00  0.00    +0.000 NA
ATOM      9  C   UNL     1       4.328   3.306  19.810  0.00  0.00    +0.000 A 
ATOM     10  C   UNL     1       3.433   2.466  19.112  0.00  0.00    +0.000 A 
ATOM     11  C   UNL     1       2.070   2.522  19.462  0.00  0.00    +0.000 A 
ATOM     12  C   UNL     1       1.781   2.873  20.779  0.00  0.00    +0.000 A 
ATOM     13  C   UNL     1       2.732   3.668  21.393  0.00  0.00    +0.000 A 
ATOM     14  C   UNL     1       3.657   4.244  20.517  0.00  0.00    +0.000 A 
ENDROOT
BRANCH   5  15
ATOM     15  N   UNL     1       6.953   4.910  15.056  0.00  0.00    +0.000 N 
ATOM     16  O   UNL     1       6.756   3.883  14.387  0.00  0.00    +0.000 OA
ATOM     17  O   UNL     1       7.865   5.716  14.853  0.00  0.00    +0.000 OA
ENDBRANCH   5  15
BRANCH  11  18
ATOM     18  N   UNL     1       1.145   3.092  18.430  0.00  0.00    +0.000 N 
ATOM     19  O   UNL     1       1.642   3.486  17.362  0.00  0.00    +0.000 OA
ATOM     20  O   UNL     1      -0.048   3.209  18.741  0.00  0.00    +0.000 OA
ENDBRANCH  11  18
BRANCH   1  21
ATOM     21  N   UNL     1       2.034   5.949  19.891  0.00  0.00    +0.000 N 
ATOM     22  H   UNL     1       1.278   5.272  19.894  0.00  0.00    +0.000 HD
BRANCH  21  28
ATOM     23  C   UNL     1       1.379   8.283  19.263  0.00  0.00    +0.000 A 
ATOM     24  C   UNL     1       1.084   9.589  19.706  0.00  0.00    +0.000 A 
ATOM     25  C   UNL     1       0.975   9.868  21.068  0.00  0.00    +0.000 A 
ATOM     26  C   UNL     1       1.026   8.825  21.995  0.00  0.00    +0.000 A 
ATOM     27  C   UNL     1       1.214   7.514  21.553  0.00  0.00    +0.000 A 
ATOM     28  C   UNL     1       1.506   7.218  20.223  0.00  0.00    +0.000 A 
BRANCH  23  30
ATOM     29  C   UNL     1       2.586   9.346  17.403  0.00  0.00    +0.000 C 
ATOM     30  O   UNL     1       1.913   8.240  17.994  0.00  0.00    +0.000 OA
ENDBRANCH  23  30
BRANCH  25  31
ATOM     31  N   UNL     1       0.869  11.203  21.557  0.00  0.00    +0.000 N 
ATOM     32  H   UNL     1       1.310  11.356  22.463  0.00  0.00    +0.000 HD
BRANCH  31  33
ATOM     33  S   UNL     1      -0.685  11.918  21.613  0.00  0.00    +0.000 S 
ATOM     34  C   UNL     1      -1.364  11.143  23.081  0.00  0.00    +0.000 C 
ATOM     35  O   UNL     1      -0.564  13.338  21.833  0.00  0.00    +0.000 OA
ATOM     36  O   UNL     1      -1.387  11.378  20.473  0.00  0.00    +0.000 OA
ENDBRANCH  31  33
ENDBRANCH  25  31
ENDBRANCH  21  28
ENDBRANCH   1  21
TORSDOF 7
ENDMDL
MODEL 6
REMARK VINA RESULT:      -7.1      1.724      2.282
REMARK  Name = 
REMARK  9 active torsions:
REMARK  status: ('A' for Active; 'I' for Inactive)
REMARK    1  A    between atoms: C_1  and  O_2
REMARK    2  A    between atoms: O_2  and  C_3
REMARK    3  A    between atoms: C_5  and  N_6
REMARK    4  A    between atoms: N_6  and  S_7
REMARK    5  A    between atoms: S_7  and  C_8
REMARK    6  A    between atoms: C_13  and  N_14
REMARK    7  A    between atoms: N_14  and  C_15
REMARK    8  A    between atoms: C_19  and  N_20
REMARK    9  A    between atoms: C_28  and  N_29
REMARK                            x       y       z     vdW  Elec       q    Type
REMARK                         _______ _______ _______ _____ _____    ______ ____
ROOT
ATOM      1  C   UNL     1       3.611   5.776  18.965  0.00  0.00    +0.000 A 
ATOM      2  C   UNL     1       4.469   5.790  17.736  0.00  0.00    +0.000 A 
ATOM      3  C   UNL     1       4.235   6.189  16.374  0.00  0.00    +0.000 A 
ATOM      4  C   UNL     1       5.156   5.988  15.316  0.00  0.00    +0.000 A 
ATOM      5  C   UNL     1       6.395   5.387  15.612  0.00  0.00    +0.000 A 
ATOM      6  C   UNL     1       6.670   4.968  16.897  0.00  0.00    +0.000 A 
ATOM      7  C   UNL     1       5.695   5.070  17.867  0.00  0.00    +0.000 A 
ATOM      8  N   UNL     1       5.866   4.198  18.834  0.00  0.00    +0.000 NA
ATOM      9  C   UNL     1       4.735   3.850  19.403  0.00  0.00    +0.000 A 
ATOM     10  C   UNL     1       3.915   2.872  18.797  0.00  0.00    +0.000 A 
ATOM     11  C   UNL     1       2.544   2.873  19.117  0.00  0.00    +0.000 A 
ATOM     12  C   UNL     1       2.201   3.356  20.378  0.00  0.00    +0.000 A 
ATOM     13  C   UNL     1       3.081   4.284  20.907  0.00  0.00    +0.000 A 
ATOM     14  C   UNL     1       3.986   4.816  19.982  0.00  0.00    +0.000 A 
ENDROOT
BRANCH   5  15
ATOM     15  N   UNL     1       7.356   5.058  14.531  0.00  0.00    +0.000 N 
ATOM     16  O   UNL     1       7.111   4.062  13.834  0.00  0.00    +0.000 OA
ATOM     17  O   UNL     1       8.347   5.783  14.398  0.00  0.00    +0.000 OA
ENDBRANCH   5  15
BRANCH  11  18
ATOM     18  N   UNL     1       1.607   3.250  18.010  0.00  0.00    +0.000 N 
ATOM     19  O   UNL     1       2.063   3.294  16.856  0.00  0.00    +0.000 OA
ATOM     20  O   UNL     1       0.455   3.574  18.329  0.00  0.00    +0.000 OA
ENDBRANCH  11  18
BRANCH   1  21
ATOM     21  N   UNL     1       2.265   6.315  19.131  0.00  0.00    +0.000 N 
ATOM     22  H   UNL     1       1.547   5.704  18.758  0.00  0.00    +0.000 HD
BRANCH  21  28
ATOM     23  C   UNL     1       1.517   8.704  19.084  0.00  0.00    +0.000 A 
ATOM     24  C   UNL     1       1.114   9.833  19.828  0.00  0.00    +0.000 A 
ATOM     25  C   UNL     1       0.894   9.736  21.201  0.00  0.00    +0.000 A 
ATOM     26  C   UNL     1       0.943   8.488  21.824  0.00  0.00    +0.000 A 
ATOM     27  C   UNL     1       1.240   7.349  21.072  0.00  0.00    +0.000 A 
ATOM     28  C   UNL     1       1.640   7.429  19.739  0.00  0.00    +0.000 A 
BRANCH  23  30
ATOM     29  C   UNL     1       2.445  10.359  17.520  0.00  0.00    +0.000 C 
ATOM     30  O   UNL     1       2.138   9.021  17.897  0.00  0.00    +0.000 OA
ENDBRANCH  23  30
BRANCH  25  31
ATOM     31  N   UNL     1       0.674  10.888  22.012  0.00  0.00    +0.000 N 
ATOM     32  H   UNL     1       0.969  10.783  22.982  0.00  0.00    +0.000 HD
BRANCH  31  33
ATOM     33  S   UNL     1      -0.893  11.578  22.022  0.00  0.00    +0.000 S 
ATOM     34  C   UNL     1      -0.509  13.291  22.384  0.00  0.00    +0.000 C 
ATOM     35  O   UNL     1      -1.478  11.484  20.707  0.00  0.00    +0.000 OA
ATOM     36  O   UNL     1      -1.538  11.020  23.187  0.00  0.00    +0.000 OA
ENDBRANCH  31  33
ENDBRANCH  25  31
ENDBRANCH  21  28
ENDBRANCH   1  21
TORSDOF 7
ENDMDL
MODEL 7
REMARK VINA RESULT:      -7.1      4.331      9.338
REMARK  Name = 
REMARK  9 active torsions:
REMARK  status: ('A' for Active; 'I' for Inactive)
REMARK    1  A    between atoms: C_1  and  O_2
REMARK    2  A    between atoms: O_2  and  C_3
REMARK    3  A    between atoms: C_5  and  N_6
REMARK    4  A    between atoms: N_6  and  S_7
REMARK    5  A    between atoms: S_7  and  C_8
REMARK    6  A    between atoms: C_13  and  N_14
REMARK    7  A    between atoms: N_14  and  C_15
REMARK    8  A    between atoms: C_19  and  N_20
REMARK    9  A    between atoms: C_28  and  N_29
REMARK                            x       y       z     vdW  Elec       q    Type
REMARK                         _______ _______ _______ _____ _____    ______ ____
ROOT
ATOM      1  C   UNL     1       0.634  12.621  19.642  0.00  0.00    +0.000 A 
ATOM      2  C   UNL     1       1.751  13.619  19.647  0.00  0.00    +0.000 A 
ATOM      3  C   UNL     1       2.958  13.745  20.419  0.00  0.00    +0.000 A 
ATOM      4  C   UNL     1       3.829  14.862  20.360  0.00  0.00    +0.000 A 
ATOM      5  C   UNL     1       3.516  15.908  19.472  0.00  0.00    +0.000 A 
ATOM      6  C   UNL     1       2.361  15.853  18.718  0.00  0.00    +0.000 A 
ATOM      7  C   UNL     1       1.482  14.806  18.901  0.00  0.00    +0.000 A 
ATOM      8  N   UNL     1       0.255  15.125  18.560  0.00  0.00    +0.000 NA
ATOM      9  C   UNL     1      -0.646  14.455  19.239  0.00  0.00    +0.000 A 
ATOM     10  C   UNL     1      -1.002  14.873  20.540  0.00  0.00    +0.000 A 
ATOM     11  C   UNL     1      -1.554  13.914  21.412  0.00  0.00    +0.000 A 
ATOM     12  C   UNL     1      -2.263  12.872  20.818  0.00  0.00    +0.000 A 
ATOM     13  C   UNL     1      -1.869  12.555  19.531  0.00  0.00    +0.000 A 
ATOM     14  C   UNL     1      -0.640  13.105  19.151  0.00  0.00    +0.000 A 
ENDROOT
BRANCH   5  15
ATOM     15  N   UNL     1       4.331  17.147  19.441  0.00  0.00    +0.000 N 
ATOM     16  O   UNL     1       3.996  18.068  20.202  0.00  0.00    +0.000 OA
ATOM     17  O   UNL     1       5.280  17.195  18.654  0.00  0.00    +0.000 OA
ENDBRANCH   5  15
BRANCH  11  18
ATOM     18  N   UNL     1      -0.711  13.527  22.588  0.00  0.00    +0.000 N 
ATOM     19  O   UNL     1      -1.022  12.496  23.207  0.00  0.00    +0.000 OA
ATOM     20  O   UNL     1       0.194  14.305  22.917  0.00  0.00    +0.000 OA
ENDBRANCH  11  18
BRANCH   1  21
ATOM     21  N   UNL     1       0.541  11.367  20.385  0.00  0.00    +0.000 N 
ATOM     22  H   UNL     1       0.025  11.462  21.253  0.00  0.00    +0.000 HD
BRANCH  21  28
ATOM     23  C   UNL     1       1.052   9.103  21.323  0.00  0.00    +0.000 A 
ATOM     24  C   UNL     1       1.650   7.842  21.113  0.00  0.00    +0.000 A 
ATOM     25  C   UNL     1       2.147   7.494  19.859  0.00  0.00    +0.000 A 
ATOM     26  C   UNL     1       1.936   8.341  18.770  0.00  0.00    +0.000 A 
ATOM     27  C   UNL     1       1.252   9.545  18.950  0.00  0.00    +0.000 A 
ATOM     28  C   UNL     1       0.900  10.010  20.217  0.00  0.00    +0.000 A 
BRANCH  23  30
ATOM     29  C   UNL     1      -0.120   9.418  23.462  0.00  0.00    +0.000 C 
ATOM     30  O   UNL     1       1.042   9.494  22.643  0.00  0.00    +0.000 OA
ENDBRANCH  23  30
BRANCH  25  31
ATOM     31  N   UNL     1       2.923   6.314  19.658  0.00  0.00    +0.000 N 
ATOM     32  H   UNL     1       3.656   6.407  18.956  0.00  0.00    +0.000 HD
BRANCH  31  33
ATOM     33  S   UNL     1       2.094   4.849  19.348  0.00  0.00    +0.000 S 
ATOM     34  C   UNL     1       3.422   3.660  19.539  0.00  0.00    +0.000 C 
ATOM     35  O   UNL     1       1.099   4.625  20.366  0.00  0.00    +0.000 OA
ATOM     36  O   UNL     1       1.755   4.901  17.946  0.00  0.00    +0.000 OA
ENDBRANCH  31  33
ENDBRANCH  25  31
ENDBRANCH  21  28
ENDBRANCH   1  21
TORSDOF 7
ENDMDL
MODEL 8
REMARK VINA RESULT:      -7.1      3.272      9.775
REMARK  Name = 
REMARK  9 active torsions:
REMARK  status: ('A' for Active; 'I' for Inactive)
REMARK    1  A    between atoms: C_1  and  O_2
REMARK    2  A    between atoms: O_2  and  C_3
REMARK    3  A    between atoms: C_5  and  N_6
REMARK    4  A    between atoms: N_6  and  S_7
REMARK    5  A    between atoms: S_7  and  C_8
REMARK    6  A    between atoms: C_13  and  N_14
REMARK    7  A    between atoms: N_14  and  C_15
REMARK    8  A    between atoms: C_19  and  N_20
REMARK    9  A    between atoms: C_28  and  N_29
REMARK                            x       y       z     vdW  Elec       q    Type
REMARK                         _______ _______ _______ _____ _____    ______ ____
ROOT
ATOM      1  C   UNL     1      -1.042  11.482  20.157  0.00  0.00    +0.000 A 
ATOM      2  C   UNL     1      -2.301  11.536  19.346  0.00  0.00    +0.000 A 
ATOM      3  C   UNL     1      -2.604  11.234  17.973  0.00  0.00    +0.000 A 
ATOM      4  C   UNL     1      -3.855  11.489  17.358  0.00  0.00    +0.000 A 
ATOM      5  C   UNL     1      -4.884  12.047  18.141  0.00  0.00    +0.000 A 
ATOM      6  C   UNL     1      -4.648  12.374  19.461  0.00  0.00    +0.000 A 
ATOM      7  C   UNL     1      -3.379  12.224  19.980  0.00  0.00    +0.000 A 
ATOM      8  N   UNL     1      -3.163  13.026  20.997  0.00  0.00    +0.000 NA
ATOM      9  C   UNL     1      -1.898  13.355  21.118  0.00  0.00    +0.000 A 
ATOM     10  C   UNL     1      -1.359  14.385  20.317  0.00  0.00    +0.000 A 
ATOM     11  C   UNL     1       0.031  14.387  20.093  0.00  0.00    +0.000 A 
ATOM     12  C   UNL     1       0.821  13.826  21.094  0.00  0.00    +0.000 A 
ATOM     13  C   UNL     1       0.198  12.850  21.851  0.00  0.00    +0.000 A 
ATOM     14  C   UNL     1      -0.994  12.366  21.303  0.00  0.00    +0.000 A 
ENDROOT
BRANCH   5  15
ATOM     15  N   UNL     1      -6.179  12.431  17.530  0.00  0.00    +0.000 N 
ATOM     16  O   UNL     1      -7.158  11.705  17.765  0.00  0.00    +0.000 OA
ATOM     17  O   UNL     1      -6.206  13.437  16.815  0.00  0.00    +0.000 OA
ENDBRANCH   5  15
BRANCH  11  18
ATOM     18  N   UNL     1       0.476  14.101  18.691  0.00  0.00    +0.000 N 
ATOM     19  O   UNL     1      -0.391  14.086  17.802  0.00  0.00    +0.000 OA
ATOM     20  O   UNL     1       1.669  13.818  18.522  0.00  0.00    +0.000 OA
ENDBRANCH  11  18
BRANCH   1  21
ATOM     21  N   UNL     1       0.262  10.957  19.764  0.00  0.00    +0.000 N 
ATOM     22  H   UNL     1       0.995  11.658  19.792  0.00  0.00    +0.000 HD
BRANCH  21  28
ATOM     23  C   UNL     1       1.176   8.713  20.396  0.00  0.00    +0.000 A 
ATOM     24  C   UNL     1       1.972   7.610  20.020  0.00  0.00    +0.000 A 
ATOM     25  C   UNL     1       2.484   7.513  18.728  0.00  0.00    +0.000 A 
ATOM     26  C   UNL     1       2.100   8.443  17.759  0.00  0.00    +0.000 A 
ATOM     27  C   UNL     1       1.229   9.480  18.100  0.00  0.00    +0.000 A 
ATOM     28  C   UNL     1       0.840   9.713  19.418  0.00  0.00    +0.000 A 
BRANCH  23  30
ATOM     29  C   UNL     1      -0.068   8.898  22.509  0.00  0.00    +0.000 C 
ATOM     30  O   UNL     1       1.140   8.926  21.756  0.00  0.00    +0.000 OA
ENDBRANCH  23  30
BRANCH  25  31
ATOM     31  N   UNL     1       3.441   6.520  18.369  0.00  0.00    +0.000 N 
ATOM     32  H   UNL     1       3.934   6.704  17.496  0.00  0.00    +0.000 HD
BRANCH  31  33
ATOM     33  S   UNL     1       2.932   4.886  18.337  0.00  0.00    +0.000 S 
ATOM     34  C   UNL     1       4.066   4.199  17.132  0.00  0.00    +0.000 C 
ATOM     35  O   UNL     1       3.168   4.274  19.622  0.00  0.00    +0.000 OA
ATOM     36  O   UNL     1       1.620   4.915  17.735  0.00  0.00    +0.000 OA
ENDBRANCH  31  33
ENDBRANCH  25  31
ENDBRANCH  21  28
ENDBRANCH   1  21
TORSDOF 7
ENDMDL
MODEL 9
REMARK VINA RESULT:      -6.8      4.105      9.186
REMARK  Name = 
REMARK  9 active torsions:
REMARK  status: ('A' for Active; 'I' for Inactive)
REMARK    1  A    between atoms: C_1  and  O_2
REMARK    2  A    between atoms: O_2  and  C_3
REMARK    3  A    between atoms: C_5  and  N_6
REMARK    4  A    between atoms: N_6  and  S_7
REMARK    5  A    between atoms: S_7  and  C_8
REMARK    6  A    between atoms: C_13  and  N_14
REMARK    7  A    between atoms: N_14  and  C_15
REMARK    8  A    between atoms: C_19  and  N_20
REMARK    9  A    between atoms: C_28  and  N_29
REMARK                            x       y       z     vdW  Elec       q    Type
REMARK                         _______ _______ _______ _____ _____    ______ ____
ROOT
ATOM      1  C   UNL     1       0.526  12.383  19.199  0.00  0.00    +0.000 A 
ATOM      2  C   UNL     1       1.583  13.427  19.400  0.00  0.00    +0.000 A 
ATOM      3  C   UNL     1       2.779  13.479  20.197  0.00  0.00    +0.000 A 
ATOM      4  C   UNL     1       3.582  14.637  20.354  0.00  0.00    +0.000 A 
ATOM      5  C   UNL     1       3.210  15.807  19.666  0.00  0.00    +0.000 A 
ATOM      6  C   UNL     1       2.062  15.824  18.899  0.00  0.00    +0.000 A 
ATOM      7  C   UNL     1       1.246  14.712  18.878  0.00  0.00    +0.000 A 
ATOM      8  N   UNL     1       0.003  15.017  18.585  0.00  0.00    +0.000 NA
ATOM      9  C   UNL     1      -0.859  14.183  19.119  0.00  0.00    +0.000 A 
ATOM     10  C   UNL     1      -1.242  14.336  20.469  0.00  0.00    +0.000 A 
ATOM     11  C   UNL     1      -1.739  13.205  21.146  0.00  0.00    +0.000 A 
ATOM     12  C   UNL     1      -2.383  12.249  20.364  0.00  0.00    +0.000 A 
ATOM     13  C   UNL     1      -1.968  12.195  19.046  0.00  0.00    +0.000 A 
ATOM     14  C   UNL     1      -0.773  12.874  18.788  0.00  0.00    +0.000 A 
ENDROOT
BRANCH   5  15
ATOM     15  N   UNL     1       3.950  17.076  19.871  0.00  0.00    +0.000 N 
ATOM     16  O   UNL     1       5.186  17.007  19.960  0.00  0.00    +0.000 OA
ATOM     17  O   UNL     1       3.296  18.120  19.954  0.00  0.00    +0.000 OA
ENDBRANCH   5  15
BRANCH  11  18
ATOM     18  N   UNL     1      -0.877  12.660  22.243  0.00  0.00    +0.000 N 
ATOM     19  O   UNL     1      -0.038  13.421  22.752  0.00  0.00    +0.000 OA
ATOM     20  O   UNL     1      -1.001  11.458  22.517  0.00  0.00    +0.000 OA
ENDBRANCH  11  18
BRANCH   1  21
ATOM     21  N   UNL     1       0.506  11.012  19.702  0.00  0.00    +0.000 N 
ATOM     22  H   UNL     1      -0.107  10.895  20.501  0.00  0.00    +0.000 HD
BRANCH  21  28
ATOM     23  C   UNL     1       1.089   8.645  20.271  0.00  0.00    +0.000 A 
ATOM     24  C   UNL     1       1.853   7.504  19.949  0.00  0.00    +0.000 A 
ATOM     25  C   UNL     1       2.609   7.464  18.779  0.00  0.00    +0.000 A 
ATOM     26  C   UNL     1       2.507   8.504  17.853  0.00  0.00    +0.000 A 
ATOM     27  C   UNL     1       1.670   9.590  18.119  0.00  0.00    +0.000 A 
ATOM     28  C   UNL     1       1.040   9.751  19.352  0.00  0.00    +0.000 A 
BRANCH  23  30
ATOM     29  C   UNL     1       1.710   9.273  22.567  0.00  0.00    +0.000 C 
ATOM     30  O   UNL     1       0.793   8.748  21.612  0.00  0.00    +0.000 OA
ENDBRANCH  23  30
BRANCH  25  31
ATOM     31  N   UNL     1       3.537   6.414  18.517  0.00  0.00    +0.000 N 
ATOM     32  H   UNL     1       4.280   6.661  17.865  0.00  0.00    +0.000 HD
BRANCH  31  33
ATOM     33  S   UNL     1       2.915   4.893  18.036  0.00  0.00    +0.000 S 
ATOM     34  C   UNL     1       3.100   3.955  19.553  0.00  0.00    +0.000 C 
ATOM     35  O   UNL     1       1.515   5.015  17.715  0.00  0.00    +0.000 OA
ATOM     36  O   UNL     1       3.874   4.380  17.087  0.00  0.00    +0.000 OA
ENDBRANCH  31  33
ENDBRANCH  25  31
ENDBRANCH  21  28
ENDBRANCH   1  21
TORSDOF 7
ENDMDL
