MODEL 1
REMARK VINA RESULT:      -7.3      0.000      0.000
REMARK  Name = 
REMARK  12 active torsions:
REMARK  status: ('A' for Active; 'I' for Inactive)
REMARK    1  A    between atoms: C_1  and  C_2
REMARK    2  A    between atoms: C_2  and  C_3
REMARK    3  A    between atoms: C_2  and  N_4
REMARK    4  A    between atoms: N_4  and  C_5
REMARK    5  A    between atoms: C_5  and  C_6
REMARK    6  A    between atoms: C_6  and  O_7
REMARK    7  A    between atoms: C_6  and  C_8
REMARK    8  A    between atoms: C_11  and  O_12
REMARK    9  A    between atoms: C_13  and  C_14
REMARK   10  A    between atoms: N_16  and  C_17
REMARK   11  A    between atoms: C_17  and  C_18
REMARK   12  A    between atoms: C_18  and  O_19
REMARK                            x       y       z     vdW  Elec       q    Type
REMARK                         _______ _______ _______ _____ _____    ______ ____
ROOT
ATOM      1  C   UNL     1       4.900   3.951  17.889  0.00  0.00    +0.000 A 
ATOM      2  C   UNL     1       5.419   4.940  18.740  0.00  0.00    +0.000 A 
ATOM      3  C   UNL     1       6.352   5.871  18.283  0.00  0.00    +0.000 A 
ATOM      4  C   UNL     1       6.801   5.820  16.962  0.00  0.00    +0.000 A 
ATOM      5  C   UNL     1       6.331   4.827  16.091  0.00  0.00    +0.000 A 
ATOM      6  C   UNL     1       5.386   3.898  16.570  0.00  0.00    +0.000 A 
ENDROOT
BRANCH   5   7
ATOM      7  C   UNL     1       6.768   4.680  14.664  0.00  0.00    +0.000 C 
ATOM      8  O   UNL     1       7.661   5.388  14.208  0.00  0.00    +0.000 OA
ATOM      9  N   UNL     1       6.129   3.724  13.909  0.00  0.00    +0.000 N 
ATOM     10  H   UNL     1       5.420   3.154  14.362  0.00  0.00    +0.000 HD
BRANCH   9  11
ATOM     11  C   UNL     1       6.438   3.496  12.509  0.00  0.00    +0.000 C 
BRANCH  11  12
ATOM     12  C   UNL     1       5.383   2.626  11.825  0.00  0.00    +0.000 C 
BRANCH  12  13
ATOM     13  O   UNL     1       5.916   1.329  11.555  0.00  0.00    +0.000 OA
ATOM     14  H   UNL     1       5.782   1.189  10.601  0.00  0.00    +0.000 HD
ENDBRANCH  12  13
ENDBRANCH  11  12
ENDBRANCH   9  11
ENDBRANCH   5   7
BRANCH   4  15
ATOM     15  O   UNL     1       7.709   6.762  16.545  0.00  0.00    +0.000 OA
ATOM     16  H   UNL     1       7.226   7.520  16.168  0.00  0.00    +0.000 HD
ENDBRANCH   4  15
BRANCH   1  17
ATOM     17  C   UNL     1       3.858   2.972  18.416  0.00  0.00    +0.000 C 
BRANCH  17  18
ATOM     18  O   UNL     1       3.953   1.700  17.766  0.00  0.00    +0.000 OA
ATOM     19  H   UNL     1       4.880   1.415  17.823  0.00  0.00    +0.000 HD
ENDBRANCH  17  18
BRANCH  17  20
ATOM     20  C   UNL     1       2.415   3.521  18.249  0.00  0.00    +0.000 C 
BRANCH  20  21
ATOM     21  N   UNL     1       1.446   2.784  19.073  0.00  0.00    +0.000 NA
ATOM     22  H   UNL     1       0.619   2.581  18.508  0.00  0.00    +0.000 HD
BRANCH  21  24
ATOM     23  C   UNL     1       1.627   2.703  21.498  0.00  0.00    +0.000 C 
ATOM     24  C   UNL     1       1.073   3.487  20.307  0.00  0.00    +0.000 C 
ATOM     25  C   UNL     1       1.624   4.916  20.343  0.00  0.00    +0.000 C 
ENDBRANCH  21  24
ENDBRANCH  20  21
ENDBRANCH  17  20
ENDBRANCH   1  17
TORSDOF 10
ENDMDL
MODEL 2
REMARK VINA RESULT:      -7.2      1.691      1.938
REMARK  Name = 
REMARK  12 active torsions:
REMARK  status: ('A' for Active; 'I' for Inactive)
REMARK    1  A    between atoms: C_1  and  C_2
REMARK    2  A    between atoms: C_2  and  C_3
REMARK    3  A    between atoms: C_2  and  N_4
REMARK    4  A    between atoms: N_4  and  C_5
REMARK    5  A    between atoms: C_5  and  C_6
REMARK    6  A    between atoms: C_6  and  O_7
REMARK    7  A    between atoms: C_6  and  C_8
REMARK    8  A    between atoms: C_11  and  O_12
REMARK    9  A    between atoms: C_13  and  C_14
REMARK   10  A    between atoms: N_16  and  C_17
REMARK   11  A    between atoms: C_17  and  C_18
REMARK   12  A    between atoms: C_18  and  O_19
REMARK                            x       y       z     vdW  Elec       q    Type
REMARK                         _______ _______ _______ _____ _____    ______ ____
ROOT
ATOM      1  C   UNL     1       4.262   5.351  17.747  0.00  0.00    +0.000 A 
ATOM      2  C   UNL     1       5.040   5.036  18.873  0.00  0.00    +0.000 A 
ATOM      3  C   UNL     1       6.369   4.633  18.745  0.00  0.00    +0.000 A 
ATOM      4  C   UNL     1       6.946   4.521  17.478  0.00  0.00    +0.000 A 
ATOM      5  C   UNL     1       6.191   4.794  16.328  0.00  0.00    +0.000 A 
ATOM      6  C   UNL     1       4.851   5.202  16.479  0.00  0.00    +0.000 A 
ENDROOT
BRANCH   5   7
ATOM      7  C   UNL     1       6.716   4.681  14.927  0.00  0.00    +0.000 C 
ATOM      8  O   UNL     1       7.671   5.358  14.562  0.00  0.00    +0.000 OA
ATOM      9  N   UNL     1       6.082   3.791  14.092  0.00  0.00    +0.000 N 
ATOM     10  H   UNL     1       5.316   3.242  14.473  0.00  0.00    +0.000 HD
BRANCH   9  11
ATOM     11  C   UNL     1       6.472   3.602  12.706  0.00  0.00    +0.000 C 
BRANCH  11  12
ATOM     12  C   UNL     1       5.432   2.800  11.924  0.00  0.00    +0.000 C 
BRANCH  12  13
ATOM     13  O   UNL     1       5.962   1.521  11.573  0.00  0.00    +0.000 OA
ATOM     14  H   UNL     1       5.577   0.897  12.214  0.00  0.00    +0.000 HD
ENDBRANCH  12  13
ENDBRANCH  11  12
ENDBRANCH   9  11
ENDBRANCH   5   7
BRANCH   4  15
ATOM     15  O   UNL     1       8.261   4.136  17.391  0.00  0.00    +0.000 OA
ATOM     16  H   UNL     1       8.367   3.274  17.834  0.00  0.00    +0.000 HD
ENDBRANCH   4  15
BRANCH   1  17
ATOM     17  C   UNL     1       2.823   5.817  17.930  0.00  0.00    +0.000 C 
BRANCH  17  18
ATOM     18  O   UNL     1       2.651   6.530  19.161  0.00  0.00    +0.000 OA
ATOM     19  H   UNL     1       3.461   7.046  19.311  0.00  0.00    +0.000 HD
ENDBRANCH  17  18
BRANCH  17  20
ATOM     20  C   UNL     1       1.823   4.629  17.887  0.00  0.00    +0.000 C 
BRANCH  20  21
ATOM     21  N   UNL     1       1.391   4.224  19.233  0.00  0.00    +0.000 NA
ATOM     22  H   UNL     1       1.796   4.868  19.917  0.00  0.00    +0.000 HD
BRANCH  21  24
ATOM     23  C   UNL     1       2.360   2.185  18.327  0.00  0.00    +0.000 C 
ATOM     24  C   UNL     1       1.732   2.835  19.562  0.00  0.00    +0.000 C 
ATOM     25  C   UNL     1       2.714   2.745  20.735  0.00  0.00    +0.000 C 
ENDBRANCH  21  24
ENDBRANCH  20  21
ENDBRANCH  17  20
ENDBRANCH   1  17
TORSDOF 10
ENDMDL
MODEL 3
REMARK VINA RESULT:      -7.1      1.190      1.331
REMARK  Name = 
REMARK  12 active torsions:
REMARK  status: ('A' for Active; 'I' for Inactive)
REMARK    1  A    between atoms: C_1  and  C_2
REMARK    2  A    between atoms: C_2  and  C_3
REMARK    3  A    between atoms: C_2  and  N_4
REMARK    4  A    between atoms: N_4  and  C_5
REMARK    5  A    between atoms: C_5  and  C_6
REMARK    6  A    between atoms: C_6  and  O_7
REMARK    7  A    between atoms: C_6  and  C_8
REMARK    8  A    between atoms: C_11  and  O_12
REMARK    9  A    between atoms: C_13  and  C_14
REMARK   10  A    between atoms: N_16  and  C_17
REMARK   11  A    between atoms: C_17  and  C_18
REMARK   12  A    between atoms: C_18  and  O_19
REMARK                            x       y       z     vdW  Elec       q    Type
REMARK                         _______ _______ _______ _____ _____    ______ ____
ROOT
ATOM      1  C   UNL     1       3.718   3.521  17.581  0.00  0.00    +0.000 A 
ATOM      2  C   UNL     1       4.408   3.823  18.767  0.00  0.00    +0.000 A 
ATOM      3  C   UNL     1       5.687   4.380  18.737  0.00  0.00    +0.000 A 
ATOM      4  C   UNL     1       6.311   4.632  17.515  0.00  0.00    +0.000 A 
ATOM      5  C   UNL     1       5.667   4.314  16.309  0.00  0.00    +0.000 A 
ATOM      6  C   UNL     1       4.375   3.755  16.360  0.00  0.00    +0.000 A 
ENDROOT
BRANCH   5   7
ATOM      7  C   UNL     1       6.264   4.529  14.951  0.00  0.00    +0.000 C 
ATOM      8  O   UNL     1       6.882   5.558  14.696  0.00  0.00    +0.000 OA
ATOM      9  N   UNL     1       6.089   3.527  14.025  0.00  0.00    +0.000 N 
ATOM     10  H   UNL     1       5.591   2.690  14.317  0.00  0.00    +0.000 HD
BRANCH   9  11
ATOM     11  C   UNL     1       6.592   3.619  12.667  0.00  0.00    +0.000 C 
BRANCH  11  12
ATOM     12  C   UNL     1       5.856   2.673  11.718  0.00  0.00    +0.000 C 
BRANCH  12  13
ATOM     13  O   UNL     1       6.691   1.563  11.384  0.00  0.00    +0.000 OA
ATOM     14  H   UNL     1       6.087   0.805  11.292  0.00  0.00    +0.000 HD
ENDBRANCH  12  13
ENDBRANCH  11  12
ENDBRANCH   9  11
ENDBRANCH   5   7
BRANCH   4  15
ATOM     15  O   UNL     1       7.563   5.195  17.525  0.00  0.00    +0.000 OA
ATOM     16  H   UNL     1       8.090   4.804  16.804  0.00  0.00    +0.000 HD
ENDBRANCH   4  15
BRANCH   1  17
ATOM     17  C   UNL     1       2.310   2.942  17.654  0.00  0.00    +0.000 C 
BRANCH  17  18
ATOM     18  O   UNL     1       1.316   3.931  17.362  0.00  0.00    +0.000 OA
ATOM     19  H   UNL     1       0.492   3.459  17.155  0.00  0.00    +0.000 HD
ENDBRANCH  17  18
BRANCH  17  20
ATOM     20  C   UNL     1       2.014   2.321  19.047  0.00  0.00    +0.000 C 
BRANCH  20  21
ATOM     21  N   UNL     1       0.838   2.932  19.683  0.00  0.00    +0.000 NA
ATOM     22  H   UNL     1       0.377   3.544  19.006  0.00  0.00    +0.000 HD
BRANCH  21  24
ATOM     23  C   UNL     1       2.282   2.927  21.641  0.00  0.00    +0.000 C 
ATOM     24  C   UNL     1       1.155   3.665  20.915  0.00  0.00    +0.000 C 
ATOM     25  C   UNL     1       1.595   5.104  20.631  0.00  0.00    +0.000 C 
ENDBRANCH  21  24
ENDBRANCH  20  21
ENDBRANCH  17  20
ENDBRANCH   1  17
TORSDOF 10
ENDMDL
MODEL 4
REMARK VINA RESULT:      -7.0      1.003      1.003
REMARK  Name = 
REMARK  12 active torsions:
REMARK  status: ('A' for Active; 'I' for Inactive)
REMARK    1  A    between atoms: C_1  and  C_2
REMARK    2  A    between atoms: C_2  and  C_3
REMARK    3  A    between atoms: C_2  and  N_4
REMARK    4  A    between atoms: N_4  and  C_5
REMARK    5  A    between atoms: C_5  and  C_6
REMARK    6  A    between atoms: C_6  and  O_7
REMARK    7  A    between atoms: C_6  and  C_8
REMARK    8  A    between atoms: C_11  and  O_12
REMARK    9  A    between atoms: C_13  and  C_14
REMARK   10  A    between atoms: N_16  and  C_17
REMARK   11  A    between atoms: C_17  and  C_18
REMARK   12  A    between atoms: C_18  and  O_19
REMARK                            x       y       z     vdW  Elec       q    Type
REMARK                         _______ _______ _______ _____ _____    ______ ____
ROOT
ATOM      1  C   UNL     1       4.280   3.785  17.768  0.00  0.00    +0.000 A 
ATOM      2  C   UNL     1       4.076   5.051  18.340  0.00  0.00    +0.000 A 
ATOM      3  C   UNL     1       4.580   6.205  17.739  0.00  0.00    +0.000 A 
ATOM      4  C   UNL     1       5.316   6.113  16.557  0.00  0.00    +0.000 A 
ATOM      5  C   UNL     1       5.570   4.863  15.973  0.00  0.00    +0.000 A 
ATOM      6  C   UNL     1       5.050   3.709  16.593  0.00  0.00    +0.000 A 
ENDROOT
BRANCH   5   7
ATOM      7  C   UNL     1       6.366   4.663  14.718  0.00  0.00    +0.000 C 
ATOM      8  O   UNL     1       7.478   5.167  14.597  0.00  0.00    +0.000 OA
ATOM      9  N   UNL     1       5.794   3.895  13.731  0.00  0.00    +0.000 N 
ATOM     10  H   UNL     1       4.882   3.485  13.914  0.00  0.00    +0.000 HD
BRANCH   9  11
ATOM     11  C   UNL     1       6.445   3.644  12.458  0.00  0.00    +0.000 C 
BRANCH  11  12
ATOM     12  C   UNL     1       5.882   2.405  11.762  0.00  0.00    +0.000 C 
BRANCH  12  13
ATOM     13  O   UNL     1       6.949   1.565  11.316  0.00  0.00    +0.000 OA
ATOM     14  H   UNL     1       6.517   0.822  10.858  0.00  0.00    +0.000 HD
ENDBRANCH  12  13
ENDBRANCH  11  12
ENDBRANCH   9  11
ENDBRANCH   5   7
BRANCH   4  15
ATOM     15  O   UNL     1       5.783   7.272  15.987  0.00  0.00    +0.000 OA
ATOM     16  H   UNL     1       5.463   8.031  16.508  0.00  0.00    +0.000 HD
ENDBRANCH   4  15
BRANCH   1  17
ATOM     17  C   UNL     1       3.688   2.551  18.437  0.00  0.00    +0.000 C 
BRANCH  17  18
ATOM     18  O   UNL     1       4.111   1.345  17.791  0.00  0.00    +0.000 OA
ATOM     19  H   UNL     1       4.201   0.665  18.479  0.00  0.00    +0.000 HD
ENDBRANCH  17  18
BRANCH  17  20
ATOM     20  C   UNL     1       2.136   2.597  18.461  0.00  0.00    +0.000 C 
BRANCH  20  21
ATOM     21  N   UNL     1       1.582   1.918  19.641  0.00  0.00    +0.000 NA
ATOM     22  H   UNL     1       0.778   1.356  19.352  0.00  0.00    +0.000 HD
BRANCH  21  24
ATOM     23  C   UNL     1       2.362   2.889  21.731  0.00  0.00    +0.000 C 
ATOM     24  C   UNL     1       1.211   2.837  20.724  0.00  0.00    +0.000 C 
ATOM     25  C   UNL     1       0.928   4.251  20.207  0.00  0.00    +0.000 C 
ENDBRANCH  21  24
ENDBRANCH  20  21
ENDBRANCH  17  20
ENDBRANCH   1  17
TORSDOF 10
ENDMDL
MODEL 5
REMARK VINA RESULT:      -6.9      2.159      6.896
REMARK  Name = 
REMARK  12 active torsions:
REMARK  status: ('A' for Active; 'I' for Inactive)
REMARK    1  A    between atoms: C_1  and  C_2
REMARK    2  A    between atoms: C_2  and  C_3
REMARK    3  A    between atoms: C_2  and  N_4
REMARK    4  A    between atoms: N_4  and  C_5
REMARK    5  A    between atoms: C_5  and  C_6
REMARK    6  A    between atoms: C_6  and  O_7
REMARK    7  A    between atoms: C_6  and  C_8
REMARK    8  A    between atoms: C_11  and  O_12
REMARK    9  A    between atoms: C_13  and  C_14
REMARK   10  A    between atoms: N_16  and  C_17
REMARK   11  A    between atoms: C_17  and  C_18
REMARK   12  A    between atoms: C_18  and  O_19
REMARK                            x       y       z     vdW  Elec       q    Type
REMARK                         _______ _______ _______ _____ _____    ______ ____
ROOT
ATOM      1  C   UNL     1       5.438   4.939  16.694  0.00  0.00    +0.000 A 
ATOM      2  C   UNL     1       5.452   6.341  16.770  0.00  0.00    +0.000 A 
ATOM      3  C   UNL     1       4.422   7.042  17.398  0.00  0.00    +0.000 A 
ATOM      4  C   UNL     1       3.342   6.351  17.950  0.00  0.00    +0.000 A 
ATOM      5  C   UNL     1       3.276   4.952  17.865  0.00  0.00    +0.000 A 
ATOM      6  C   UNL     1       4.327   4.262  17.230  0.00  0.00    +0.000 A 
ENDROOT
BRANCH   5   7
ATOM      7  C   UNL     1       2.148   4.126  18.409  0.00  0.00    +0.000 C 
ATOM      8  O   UNL     1       1.460   3.439  17.661  0.00  0.00    +0.000 OA
ATOM      9  N   UNL     1       1.935   4.176  19.766  0.00  0.00    +0.000 N 
ATOM     10  H   UNL     1       2.565   4.744  20.328  0.00  0.00    +0.000 HD
BRANCH   9  11
ATOM     11  C   UNL     1       0.863   3.447  20.419  0.00  0.00    +0.000 C 
BRANCH  11  12
ATOM     12  C   UNL     1       1.374   2.598  21.582  0.00  0.00    +0.000 C 
BRANCH  12  13
ATOM     13  O   UNL     1       2.714   2.969  21.910  0.00  0.00    +0.000 OA
ATOM     14  H   UNL     1       2.642   3.839  22.342  0.00  0.00    +0.000 HD
ENDBRANCH  12  13
ENDBRANCH  11  12
ENDBRANCH   9  11
ENDBRANCH   5   7
BRANCH   4  15
ATOM     15  O   UNL     1       2.355   7.073  18.573  0.00  0.00    +0.000 OA
ATOM     16  H   UNL     1       2.702   7.957  18.793  0.00  0.00    +0.000 HD
ENDBRANCH   4  15
BRANCH   1  17
ATOM     17  C   UNL     1       6.597   4.207  16.027  0.00  0.00    +0.000 C 
BRANCH  17  18
ATOM     18  O   UNL     1       7.855   4.577  16.602  0.00  0.00    +0.000 OA
ATOM     19  H   UNL     1       8.007   3.993  17.364  0.00  0.00    +0.000 HD
ENDBRANCH  17  18
BRANCH  17  20
ATOM     20  C   UNL     1       6.641   4.471  14.497  0.00  0.00    +0.000 C 
BRANCH  20  21
ATOM     21  N   UNL     1       5.467   3.912  13.809  0.00  0.00    +0.000 NA
ATOM     22  H   UNL     1       4.995   3.259  14.438  0.00  0.00    +0.000 HD
BRANCH  21  24
ATOM     23  C   UNL     1       4.578   3.369  11.611  0.00  0.00    +0.000 C 
ATOM     24  C   UNL     1       5.793   3.261  12.534  0.00  0.00    +0.000 C 
ATOM     25  C   UNL     1       7.005   3.905  11.852  0.00  0.00    +0.000 C 
ENDBRANCH  21  24
ENDBRANCH  20  21
ENDBRANCH  17  20
ENDBRANCH   1  17
TORSDOF 10
ENDMDL
MODEL 6
REMARK VINA RESULT:      -6.9      1.110      1.293
REMARK  Name = 
REMARK  12 active torsions:
REMARK  status: ('A' for Active; 'I' for Inactive)
REMARK    1  A    between atoms: C_1  and  C_2
REMARK    2  A    between atoms: C_2  and  C_3
REMARK    3  A    between atoms: C_2  and  N_4
REMARK    4  A    between atoms: N_4  and  C_5
REMARK    5  A    between atoms: C_5  and  C_6
REMARK    6  A    between atoms: C_6  and  O_7
REMARK    7  A    between atoms: C_6  and  C_8
REMARK    8  A    between atoms: C_11  and  O_12
REMARK    9  A    between atoms: C_13  and  C_14
REMARK   10  A    between atoms: N_16  and  C_17
REMARK   11  A    between atoms: C_17  and  C_18
REMARK   12  A    between atoms: C_18  and  O_19
REMARK                            x       y       z     vdW  Elec       q    Type
REMARK                         _______ _______ _______ _____ _____    ______ ____
ROOT
ATOM      1  C   UNL     1       5.221   3.970  18.481  0.00  0.00    +0.000 A 
ATOM      2  C   UNL     1       6.036   4.817  19.249  0.00  0.00    +0.000 A 
ATOM      3  C   UNL     1       6.845   5.782  18.648  0.00  0.00    +0.000 A 
ATOM      4  C   UNL     1       6.867   5.909  17.258  0.00  0.00    +0.000 A 
ATOM      5  C   UNL     1       6.091   5.059  16.455  0.00  0.00    +0.000 A 
ATOM      6  C   UNL     1       5.278   4.093  17.081  0.00  0.00    +0.000 A 
ENDROOT
BRANCH   5   7
ATOM      7  C   UNL     1       6.064   5.106  14.957  0.00  0.00    +0.000 C 
ATOM      8  O   UNL     1       5.637   6.095  14.370  0.00  0.00    +0.000 OA
ATOM      9  N   UNL     1       6.539   4.002  14.288  0.00  0.00    +0.000 N 
ATOM     10  H   UNL     1       6.905   3.231  14.841  0.00  0.00    +0.000 HD
BRANCH   9  11
ATOM     11  C   UNL     1       6.546   3.905  12.840  0.00  0.00    +0.000 C 
BRANCH  11  12
ATOM     12  C   UNL     1       5.342   3.125  12.313  0.00  0.00    +0.000 C 
BRANCH  12  13
ATOM     13  O   UNL     1       5.772   1.895  11.728  0.00  0.00    +0.000 OA
ATOM     14  H   UNL     1       6.370   2.149  11.003  0.00  0.00    +0.000 HD
ENDBRANCH  12  13
ENDBRANCH  11  12
ENDBRANCH   9  11
ENDBRANCH   5   7
BRANCH   4  15
ATOM     15  O   UNL     1       7.664   6.880  16.703  0.00  0.00    +0.000 OA
ATOM     16  H   UNL     1       8.458   6.990  17.257  0.00  0.00    +0.000 HD
ENDBRANCH   4  15
BRANCH   1  17
ATOM     17  C   UNL     1       4.328   2.950  19.176  0.00  0.00    +0.000 C 
BRANCH  17  18
ATOM     18  O   UNL     1       5.096   1.979  19.896  0.00  0.00    +0.000 OA
ATOM     19  H   UNL     1       4.487   1.519  20.498  0.00  0.00    +0.000 HD
ENDBRANCH  17  18
BRANCH  17  20
ATOM     20  C   UNL     1       3.399   2.217  18.168  0.00  0.00    +0.000 C 
BRANCH  20  21
ATOM     21  N   UNL     1       2.126   1.816  18.784  0.00  0.00    +0.000 NA
ATOM     22  H   UNL     1       1.805   0.950  18.346  0.00  0.00    +0.000 HD
BRANCH  21  24
ATOM     23  C   UNL     1       0.854   3.408  20.113  0.00  0.00    +0.000 C 
ATOM     24  C   UNL     1       1.088   2.852  18.707  0.00  0.00    +0.000 C 
ATOM     25  C   UNL     1       1.487   3.998  17.771  0.00  0.00    +0.000 C 
ENDBRANCH  21  24
ENDBRANCH  20  21
ENDBRANCH  17  20
ENDBRANCH   1  17
TORSDOF 10
ENDMDL
MODEL 7
REMARK VINA RESULT:      -6.8      2.037      6.953
REMARK  Name = 
REMARK  12 active torsions:
REMARK  status: ('A' for Active; 'I' for Inactive)
REMARK    1  A    between atoms: C_1  and  C_2
REMARK    2  A    between atoms: C_2  and  C_3
REMARK    3  A    between atoms: C_2  and  N_4
REMARK    4  A    between atoms: N_4  and  C_5
REMARK    5  A    between atoms: C_5  and  C_6
REMARK    6  A    between atoms: C_6  and  O_7
REMARK    7  A    between atoms: C_6  and  C_8
REMARK    8  A    between atoms: C_11  and  O_12
REMARK    9  A    between atoms: C_13  and  C_14
REMARK   10  A    between atoms: N_16  and  C_17
REMARK   11  A    between atoms: C_17  and  C_18
REMARK   12  A    between atoms: C_18  and  O_19
REMARK                            x       y       z     vdW  Elec       q    Type
REMARK                         _______ _______ _______ _____ _____    ______ ____
ROOT
ATOM      1  C   UNL     1       5.526   4.934  15.961  0.00  0.00    +0.000 A 
ATOM      2  C   UNL     1       5.392   6.318  16.152  0.00  0.00    +0.000 A 
ATOM      3  C   UNL     1       4.570   6.835  17.154  0.00  0.00    +0.000 A 
ATOM      4  C   UNL     1       3.849   5.971  17.980  0.00  0.00    +0.000 A 
ATOM      5  C   UNL     1       3.931   4.582  17.800  0.00  0.00    +0.000 A 
ATOM      6  C   UNL     1       4.769   4.080  16.784  0.00  0.00    +0.000 A 
ENDROOT
BRANCH   5   7
ATOM      7  C   UNL     1       3.180   3.578  18.623  0.00  0.00    +0.000 C 
ATOM      8  O   UNL     1       2.341   2.849  18.104  0.00  0.00    +0.000 OA
ATOM      9  N   UNL     1       3.480   3.519  19.963  0.00  0.00    +0.000 N 
ATOM     10  H   UNL     1       4.209   4.134  20.317  0.00  0.00    +0.000 HD
BRANCH   9  11
ATOM     11  C   UNL     1       2.810   2.612  20.877  0.00  0.00    +0.000 C 
BRANCH  11  12
ATOM     12  C   UNL     1       1.531   3.220  21.452  0.00  0.00    +0.000 C 
BRANCH  12  13
ATOM     13  O   UNL     1       0.447   3.038  20.539  0.00  0.00    +0.000 OA
ATOM     14  H   UNL     1       0.207   2.097  20.609  0.00  0.00    +0.000 HD
ENDBRANCH  12  13
ENDBRANCH  11  12
ENDBRANCH   9  11
ENDBRANCH   5   7
BRANCH   4  15
ATOM     15  O   UNL     1       3.063   6.515  18.965  0.00  0.00    +0.000 OA
ATOM     16  H   UNL     1       3.052   7.484  18.861  0.00  0.00    +0.000 HD
ENDBRANCH   4  15
BRANCH   1  17
ATOM     17  C   UNL     1       6.457   4.408  14.876  0.00  0.00    +0.000 C 
BRANCH  17  18
ATOM     18  O   UNL     1       7.391   5.407  14.451  0.00  0.00    +0.000 OA
ATOM     19  H   UNL     1       7.269   6.179  15.028  0.00  0.00    +0.000 HD
ENDBRANCH  17  18
BRANCH  17  20
ATOM     20  C   UNL     1       5.669   3.892  13.641  0.00  0.00    +0.000 C 
BRANCH  20  21
ATOM     21  N   UNL     1       6.556   3.297  12.630  0.00  0.00    +0.000 NA
ATOM     22  H   UNL     1       7.268   3.984  12.371  0.00  0.00    +0.000 HD
BRANCH  21  24
ATOM     23  C   UNL     1       6.011   1.292  11.365  0.00  0.00    +0.000 C 
ATOM     24  C   UNL     1       5.845   2.812  11.442  0.00  0.00    +0.000 C 
ATOM     25  C   UNL     1       4.353   3.156  11.483  0.00  0.00    +0.000 C 
ENDBRANCH  21  24
ENDBRANCH  20  21
ENDBRANCH  17  20
ENDBRANCH   1  17
TORSDOF 10
ENDMDL
MODEL 8
REMARK VINA RESULT:      -6.8      1.013      1.158
REMARK  Name = 
REMARK  12 active torsions:
REMARK  status: ('A' for Active; 'I' for Inactive)
REMARK    1  A    between atoms: C_1  and  C_2
REMARK    2  A    between atoms: C_2  and  C_3
REMARK    3  A    between atoms: C_2  and  N_4
REMARK    4  A    between atoms: N_4  and  C_5
REMARK    5  A    between atoms: C_5  and  C_6
REMARK    6  A    between atoms: C_6  and  O_7
REMARK    7  A    between atoms: C_6  and  C_8
REMARK    8  A    between atoms: C_11  and  O_12
REMARK    9  A    between atoms: C_13  and  C_14
REMARK   10  A    between atoms: N_16  and  C_17
REMARK   11  A    between atoms: C_17  and  C_18
REMARK   12  A    between atoms: C_18  and  O_19
REMARK                            x       y       z     vdW  Elec       q    Type
REMARK                         _______ _______ _______ _____ _____    ______ ____
ROOT
ATOM      1  C   UNL     1       4.332   4.628  17.334  0.00  0.00    +0.000 A 
ATOM      2  C   UNL     1       4.945   5.530  18.219  0.00  0.00    +0.000 A 
ATOM      3  C   UNL     1       6.110   6.211  17.866  0.00  0.00    +0.000 A 
ATOM      4  C   UNL     1       6.699   5.989  16.620  0.00  0.00    +0.000 A 
ATOM      5  C   UNL     1       6.136   5.070  15.722  0.00  0.00    +0.000 A 
ATOM      6  C   UNL     1       4.957   4.395  16.095  0.00  0.00    +0.000 A 
ENDROOT
BRANCH   5   7
ATOM      7  C   UNL     1       6.707   4.750  14.373  0.00  0.00    +0.000 C 
ATOM      8  O   UNL     1       7.697   5.343  13.957  0.00  0.00    +0.000 OA
ATOM      9  N   UNL     1       6.075   3.771  13.642  0.00  0.00    +0.000 N 
ATOM     10  H   UNL     1       5.278   3.302  14.064  0.00  0.00    +0.000 HD
BRANCH   9  11
ATOM     11  C   UNL     1       6.508   3.382  12.313  0.00  0.00    +0.000 C 
BRANCH  11  12
ATOM     12  C   UNL     1       5.510   2.442  11.638  0.00  0.00    +0.000 C 
BRANCH  12  13
ATOM     13  O   UNL     1       6.103   1.157  11.441  0.00  0.00    +0.000 OA
ATOM     14  H   UNL     1       6.111   0.740  12.321  0.00  0.00    +0.000 HD
ENDBRANCH  12  13
ENDBRANCH  11  12
ENDBRANCH   9  11
ENDBRANCH   5   7
BRANCH   4  15
ATOM     15  O   UNL     1       7.837   6.688  16.302  0.00  0.00    +0.000 OA
ATOM     16  H   UNL     1       7.611   7.631  16.203  0.00  0.00    +0.000 HD
ENDBRANCH   4  15
BRANCH   1  17
ATOM     17  C   UNL     1       3.043   3.927  17.743  0.00  0.00    +0.000 C 
BRANCH  17  18
ATOM     18  O   UNL     1       2.439   3.245  16.638  0.00  0.00    +0.000 OA
ATOM     19  H   UNL     1       3.139   2.735  16.196  0.00  0.00    +0.000 HD
ENDBRANCH  17  18
BRANCH  17  20
ATOM     20  C   UNL     1       2.015   4.920  18.350  0.00  0.00    +0.000 C 
BRANCH  20  21
ATOM     21  N   UNL     1       1.702   4.601  19.751  0.00  0.00    +0.000 NA
ATOM     22  H   UNL     1       2.315   5.148  20.359  0.00  0.00    +0.000 HD
BRANCH  21  24
ATOM     23  C   UNL     1       1.878   3.008  21.581  0.00  0.00    +0.000 C 
ATOM     24  C   UNL     1       1.805   3.170  20.061  0.00  0.00    +0.000 C 
ATOM     25  C   UNL     1       0.608   2.377  19.525  0.00  0.00    +0.000 C 
ENDBRANCH  21  24
ENDBRANCH  20  21
ENDBRANCH  17  20
ENDBRANCH   1  17
TORSDOF 10
ENDMDL
MODEL 9
REMARK VINA RESULT:      -6.7      1.872      2.237
REMARK  Name = 
REMARK  12 active torsions:
REMARK  status: ('A' for Active; 'I' for Inactive)
REMARK    1  A    between atoms: C_1  and  C_2
REMARK    2  A    between atoms: C_2  and  C_3
REMARK    3  A    between atoms: C_2  and  N_4
REMARK    4  A    between atoms: N_4  and  C_5
REMARK    5  A    between atoms: C_5  and  C_6
REMARK    6  A    between atoms: C_6  and  O_7
REMARK    7  A    between atoms: C_6  and  C_8
REMARK    8  A    between atoms: C_11  and  O_12
REMARK    9  A    between atoms: C_13  and  C_14
REMARK   10  A    between atoms: N_16  and  C_17
REMARK   11  A    between atoms: C_17  and  C_18
REMARK   12  A    between atoms: C_18  and  O_19
REMARK                            x       y       z     vdW  Elec       q    Type
REMARK                         _______ _______ _______ _____ _____    ______ ____
ROOT
ATOM      1  C   UNL     1       4.402   5.845  17.545  0.00  0.00    +0.000 A 
ATOM      2  C   UNL     1       5.101   5.451  18.697  0.00  0.00    +0.000 A 
ATOM      3  C   UNL     1       6.372   4.881  18.613  0.00  0.00    +0.000 A 
ATOM      4  C   UNL     1       6.965   4.678  17.365  0.00  0.00    +0.000 A 
ATOM      5  C   UNL     1       6.284   5.027  16.190  0.00  0.00    +0.000 A 
ATOM      6  C   UNL     1       5.003   5.604  16.296  0.00  0.00    +0.000 A 
ENDROOT
BRANCH   5   7
ATOM      7  C   UNL     1       6.830   4.828  14.807  0.00  0.00    +0.000 C 
ATOM      8  O   UNL     1       7.854   5.403  14.451  0.00  0.00    +0.000 OA
ATOM      9  N   UNL     1       6.136   3.979  13.977  0.00  0.00    +0.000 N 
ATOM     10  H   UNL     1       5.312   3.515  14.351  0.00  0.00    +0.000 HD
BRANCH   9  11
ATOM     11  C   UNL     1       6.540   3.718  12.608  0.00  0.00    +0.000 C 
BRANCH  11  12
ATOM     12  C   UNL     1       5.575   2.769  11.898  0.00  0.00    +0.000 C 
BRANCH  12  13
ATOM     13  O   UNL     1       4.306   3.400  11.721  0.00  0.00    +0.000 OA
ATOM     14  H   UNL     1       3.867   3.345  12.589  0.00  0.00    +0.000 HD
ENDBRANCH  12  13
ENDBRANCH  11  12
ENDBRANCH   9  11
ENDBRANCH   5   7
BRANCH   4  15
ATOM     15  O   UNL     1       8.223   4.128  17.322  0.00  0.00    +0.000 OA
ATOM     16  H   UNL     1       8.740   4.464  18.077  0.00  0.00    +0.000 HD
ENDBRANCH   4  15
BRANCH   1  17
ATOM     17  C   UNL     1       3.029   6.492  17.679  0.00  0.00    +0.000 C 
BRANCH  17  18
ATOM     18  O   UNL     1       3.127   7.850  18.124  0.00  0.00    +0.000 OA
ATOM     19  H   UNL     1       3.100   7.837  19.096  0.00  0.00    +0.000 HD
ENDBRANCH  17  18
BRANCH  17  20
ATOM     20  C   UNL     1       2.113   5.703  18.654  0.00  0.00    +0.000 C 
BRANCH  20  21
ATOM     21  N   UNL     1       1.786   4.365  18.140  0.00  0.00    +0.000 NA
ATOM     22  H   UNL     1       0.901   4.415  17.630  0.00  0.00    +0.000 HD
BRANCH  21  24
ATOM     23  C   UNL     1       1.484   4.026  20.530  0.00  0.00    +0.000 C 
ATOM     24  C   UNL     1       1.725   3.336  19.186  0.00  0.00    +0.000 C 
ATOM     25  C   UNL     1       0.607   2.321  18.931  0.00  0.00    +0.000 C 
ENDBRANCH  21  24
ENDBRANCH  20  21
ENDBRANCH  17  20
ENDBRANCH   1  17
TORSDOF 10
ENDMDL
