MODEL 1
REMARK VINA RESULT:      -7.9      0.000      0.000
REMARK  Name = 
REMARK  8 active torsions:
REMARK  status: ('A' for Active; 'I' for Inactive)
REMARK    1  A    between atoms: C_1  and  C_2
REMARK    2  A    between atoms: C_2  and  C_3
REMARK    3  A    between atoms: C_3  and  C_4
REMARK    4  A    between atoms: C_4  and  C_5
REMARK    5  A    between atoms: C_4  and  C_6
REMARK    6  A    between atoms: N_7  and  N_8
REMARK    7  A    between atoms: C_11  and  C_12
REMARK    8  A    between atoms: C_16  and  N_17
REMARK                            x       y       z     vdW  Elec       q    Type
REMARK                         _______ _______ _______ _____ _____    ______ ____
ROOT
ATOM      1  N   UNL     1       4.845   3.517  17.891  0.00  0.00    +0.000 N 
ATOM      2  C   UNL     1       3.957   4.232  18.626  0.00  0.00    +0.000 A 
ATOM      3  N   UNL     1       3.561   5.455  18.354  0.00  0.00    +0.000 NA
ATOM      4  C   UNL     1       2.687   5.921  19.314  0.00  0.00    +0.000 A 
ATOM      5  C   UNL     1       2.340   4.995  20.274  0.00  0.00    +0.000 A 
ATOM      6  S   UNL     1       3.241   3.551  20.040  0.00  0.00    +0.000 S 
ATOM      7  H   UNL     1       5.253   2.703  18.334  0.00  0.00    +0.000 HD
ENDROOT
BRANCH   4   8
ATOM      8  C   UNL     1       2.187   7.287  19.236  0.00  0.00    +0.000 A 
ATOM      9  C   UNL     1       2.229   8.023  18.045  0.00  0.00    +0.000 A 
ATOM     10  C   UNL     1       1.722   9.326  17.995  0.00  0.00    +0.000 A 
ATOM     11  C   UNL     1       1.164   9.904  19.136  0.00  0.00    +0.000 A 
ATOM     12  C   UNL     1       1.102   9.165  20.324  0.00  0.00    +0.000 A 
ATOM     13  C   UNL     1       1.603   7.860  20.376  0.00  0.00    +0.000 A 
BRANCH  12  14
ATOM     14  N   UNL     1       0.513   9.765  21.528  0.00  0.00    +0.000 N 
ATOM     15  O   UNL     1       1.046  10.793  21.976  0.00  0.00    +0.000 OA
ATOM     16  O   UNL     1      -0.473   9.211  22.031  0.00  0.00    +0.000 OA
ENDBRANCH  12  14
ENDBRANCH   4   8
BRANCH   1  19
ATOM     17  C   UNL     1       6.439   4.692  14.813  0.00  0.00    +0.000 C 
ATOM     18  C   UNL     1       6.267   4.336  16.273  0.00  0.00    +0.000 C 
ATOM     19  N   UNL     1       5.118   3.831  16.601  0.00  0.00    +0.000 NA
BRANCH  18  20
ATOM     20  C   UNL     1       7.405   4.679  17.224  0.00  0.00    +0.000 C 
BRANCH  20  21
ATOM     21  C   UNL     1       7.147   5.876  18.157  0.00  0.00    +0.000 C 
ATOM     22  C   UNL     1       7.902   5.769  19.479  0.00  0.00    +0.000 C 
ATOM     23  C   UNL     1       7.526   7.172  17.436  0.00  0.00    +0.000 C 
ENDBRANCH  20  21
ENDBRANCH  18  20
ENDBRANCH   1  19
TORSDOF 5
ENDMDL
MODEL 2
REMARK VINA RESULT:      -7.8      4.910      7.930
REMARK  Name = 
REMARK  8 active torsions:
REMARK  status: ('A' for Active; 'I' for Inactive)
REMARK    1  A    between atoms: C_1  and  C_2
REMARK    2  A    between atoms: C_2  and  C_3
REMARK    3  A    between atoms: C_3  and  C_4
REMARK    4  A    between atoms: C_4  and  C_5
REMARK    5  A    between atoms: C_4  and  C_6
REMARK    6  A    between atoms: N_7  and  N_8
REMARK    7  A    between atoms: C_11  and  C_12
REMARK    8  A    between atoms: C_16  and  N_17
REMARK                            x       y       z     vdW  Elec       q    Type
REMARK                         _______ _______ _______ _____ _____    ______ ____
ROOT
ATOM      1  N   UNL     1       4.914   3.511  18.843  0.00  0.00    +0.000 N 
ATOM      2  C   UNL     1       5.639   4.203  17.929  0.00  0.00    +0.000 A 
ATOM      3  N   UNL     1       5.641   3.975  16.635  0.00  0.00    +0.000 NA
ATOM      4  C   UNL     1       6.513   4.820  15.981  0.00  0.00    +0.000 A 
ATOM      5  C   UNL     1       7.105   5.770  16.785  0.00  0.00    +0.000 A 
ATOM      6  S   UNL     1       6.658   5.504  18.423  0.00  0.00    +0.000 S 
ATOM      7  H   UNL     1       5.185   3.613  19.813  0.00  0.00    +0.000 HD
ENDROOT
BRANCH   4   8
ATOM      8  C   UNL     1       6.719   4.680  14.546  0.00  0.00    +0.000 A 
ATOM      9  C   UNL     1       7.726   5.383  13.871  0.00  0.00    +0.000 A 
ATOM     10  C   UNL     1       7.913   5.213  12.496  0.00  0.00    +0.000 A 
ATOM     11  C   UNL     1       7.096   4.335  11.782  0.00  0.00    +0.000 A 
ATOM     12  C   UNL     1       6.102   3.615  12.455  0.00  0.00    +0.000 A 
ATOM     13  C   UNL     1       5.915   3.779  13.831  0.00  0.00    +0.000 A 
BRANCH  12  14
ATOM     14  N   UNL     1       5.241   2.687  11.711  0.00  0.00    +0.000 N 
ATOM     15  O   UNL     1       4.109   3.084  11.392  0.00  0.00    +0.000 OA
ATOM     16  O   UNL     1       5.688   1.562  11.451  0.00  0.00    +0.000 OA
ENDBRANCH  12  14
ENDBRANCH   4   8
BRANCH   1  19
ATOM     17  C   UNL     1       1.503   2.352  18.196  0.00  0.00    +0.000 C 
ATOM     18  C   UNL     1       2.636   3.278  18.574  0.00  0.00    +0.000 C 
ATOM     19  N   UNL     1       3.830   2.778  18.486  0.00  0.00    +0.000 NA
BRANCH  18  20
ATOM     20  C   UNL     1       2.275   4.660  19.101  0.00  0.00    +0.000 C 
BRANCH  20  21
ATOM     21  C   UNL     1       1.550   4.681  20.458  0.00  0.00    +0.000 C 
ATOM     22  C   UNL     1       2.229   3.801  21.506  0.00  0.00    +0.000 C 
ATOM     23  C   UNL     1       1.455   6.123  20.962  0.00  0.00    +0.000 C 
ENDBRANCH  20  21
ENDBRANCH  18  20
ENDBRANCH   1  19
TORSDOF 5
ENDMDL
MODEL 3
REMARK VINA RESULT:      -7.5      4.753      7.877
REMARK  Name = 
REMARK  8 active torsions:
REMARK  status: ('A' for Active; 'I' for Inactive)
REMARK    1  A    between atoms: C_1  and  C_2
REMARK    2  A    between atoms: C_2  and  C_3
REMARK    3  A    between atoms: C_3  and  C_4
REMARK    4  A    between atoms: C_4  and  C_5
REMARK    5  A    between atoms: C_4  and  C_6
REMARK    6  A    between atoms: N_7  and  N_8
REMARK    7  A    between atoms: C_11  and  C_12
REMARK    8  A    between atoms: C_16  and  N_17
REMARK                            x       y       z     vdW  Elec       q    Type
REMARK                         _______ _______ _______ _____ _____    ______ ____
ROOT
ATOM      1  N   UNL     1       4.899   3.516  18.825  0.00  0.00    +0.000 N 
ATOM      2  C   UNL     1       5.679   4.158  17.919  0.00  0.00    +0.000 A 
ATOM      3  N   UNL     1       5.634   3.978  16.618  0.00  0.00    +0.000 NA
ATOM      4  C   UNL     1       6.581   4.747  15.975  0.00  0.00    +0.000 A 
ATOM      5  C   UNL     1       7.286   5.599  16.798  0.00  0.00    +0.000 A 
ATOM      6  S   UNL     1       6.841   5.325  18.435  0.00  0.00    +0.000 S 
ATOM      7  H   UNL     1       5.197   3.554  19.791  0.00  0.00    +0.000 HD
ENDROOT
BRANCH   4   8
ATOM      8  C   UNL     1       6.746   4.637  14.532  0.00  0.00    +0.000 A 
ATOM      9  C   UNL     1       7.720   5.370  13.841  0.00  0.00    +0.000 A 
ATOM     10  C   UNL     1       7.868   5.228  12.458  0.00  0.00    +0.000 A 
ATOM     11  C   UNL     1       7.046   4.348  11.752  0.00  0.00    +0.000 A 
ATOM     12  C   UNL     1       6.085   3.598  12.441  0.00  0.00    +0.000 A 
ATOM     13  C   UNL     1       5.937   3.734  13.825  0.00  0.00    +0.000 A 
BRANCH  12  14
ATOM     14  N   UNL     1       5.219   2.668  11.706  0.00  0.00    +0.000 N 
ATOM     15  O   UNL     1       5.695   1.563  11.398  0.00  0.00    +0.000 OA
ATOM     16  O   UNL     1       4.071   3.038  11.428  0.00  0.00    +0.000 OA
ENDBRANCH  12  14
ENDBRANCH   4   8
BRANCH   1  19
ATOM     17  C   UNL     1       1.387   2.526  18.543  0.00  0.00    +0.000 C 
ATOM     18  C   UNL     1       2.609   3.300  18.981  0.00  0.00    +0.000 C 
ATOM     19  N   UNL     1       3.736   2.917  18.466  0.00  0.00    +0.000 NA
BRANCH  18  20
ATOM     20  C   UNL     1       2.423   4.382  20.037  0.00  0.00    +0.000 C 
BRANCH  20  21
ATOM     21  C   UNL     1       1.796   5.694  19.534  0.00  0.00    +0.000 C 
ATOM     22  C   UNL     1       1.672   6.749  20.631  0.00  0.00    +0.000 C 
ATOM     23  C   UNL     1       2.626   6.240  18.369  0.00  0.00    +0.000 C 
ENDBRANCH  20  21
ENDBRANCH  18  20
ENDBRANCH   1  19
TORSDOF 5
ENDMDL
MODEL 4
REMARK VINA RESULT:      -7.5      4.750      7.917
REMARK  Name = 
REMARK  8 active torsions:
REMARK  status: ('A' for Active; 'I' for Inactive)
REMARK    1  A    between atoms: C_1  and  C_2
REMARK    2  A    between atoms: C_2  and  C_3
REMARK    3  A    between atoms: C_3  and  C_4
REMARK    4  A    between atoms: C_4  and  C_5
REMARK    5  A    between atoms: C_4  and  C_6
REMARK    6  A    between atoms: N_7  and  N_8
REMARK    7  A    between atoms: C_11  and  C_12
REMARK    8  A    between atoms: C_16  and  N_17
REMARK                            x       y       z     vdW  Elec       q    Type
REMARK                         _______ _______ _______ _____ _____    ______ ____
ROOT
ATOM      1  N   UNL     1       4.790   3.577  18.754  0.00  0.00    +0.000 N 
ATOM      2  C   UNL     1       5.631   4.166  17.867  0.00  0.00    +0.000 A 
ATOM      3  N   UNL     1       5.578   4.022  16.563  0.00  0.00    +0.000 NA
ATOM      4  C   UNL     1       6.595   4.716  15.942  0.00  0.00    +0.000 A 
ATOM      5  C   UNL     1       7.371   5.478  16.788  0.00  0.00    +0.000 A 
ATOM      6  S   UNL     1       6.893   5.207  18.416  0.00  0.00    +0.000 S 
ATOM      7  H   UNL     1       5.084   3.563  19.722  0.00  0.00    +0.000 HD
ENDROOT
BRANCH   4   8
ATOM      8  C   UNL     1       6.758   4.626  14.497  0.00  0.00    +0.000 A 
ATOM      9  C   UNL     1       7.708   5.394  13.811  0.00  0.00    +0.000 A 
ATOM     10  C   UNL     1       7.856   5.271  12.426  0.00  0.00    +0.000 A 
ATOM     11  C   UNL     1       7.056   4.376  11.713  0.00  0.00    +0.000 A 
ATOM     12  C   UNL     1       6.119   3.592  12.397  0.00  0.00    +0.000 A 
ATOM     13  C   UNL     1       5.972   3.708  13.783  0.00  0.00    +0.000 A 
BRANCH  12  14
ATOM     14  N   UNL     1       5.277   2.646  11.655  0.00  0.00    +0.000 N 
ATOM     15  O   UNL     1       4.130   3.014  11.352  0.00  0.00    +0.000 OA
ATOM     16  O   UNL     1       5.751   1.537  11.381  0.00  0.00    +0.000 OA
ENDBRANCH  12  14
ENDBRANCH   4   8
BRANCH   1  19
ATOM     17  C   UNL     1       1.209   2.873  18.480  0.00  0.00    +0.000 C 
ATOM     18  C   UNL     1       2.494   3.516  18.950  0.00  0.00    +0.000 C 
ATOM     19  N   UNL     1       3.579   3.097  18.376  0.00  0.00    +0.000 NA
BRANCH  18  20
ATOM     20  C   UNL     1       2.409   4.515  20.096  0.00  0.00    +0.000 C 
BRANCH  20  21
ATOM     21  C   UNL     1       2.564   5.993  19.697  0.00  0.00    +0.000 C 
ATOM     22  C   UNL     1       2.309   6.235  18.211  0.00  0.00    +0.000 C 
ATOM     23  C   UNL     1       1.617   6.849  20.541  0.00  0.00    +0.000 C 
ENDBRANCH  20  21
ENDBRANCH  18  20
ENDBRANCH   1  19
TORSDOF 5
ENDMDL
MODEL 5
REMARK VINA RESULT:      -7.3      1.965      3.290
REMARK  Name = 
REMARK  8 active torsions:
REMARK  status: ('A' for Active; 'I' for Inactive)
REMARK    1  A    between atoms: C_1  and  C_2
REMARK    2  A    between atoms: C_2  and  C_3
REMARK    3  A    between atoms: C_3  and  C_4
REMARK    4  A    between atoms: C_4  and  C_5
REMARK    5  A    between atoms: C_4  and  C_6
REMARK    6  A    between atoms: N_7  and  N_8
REMARK    7  A    between atoms: C_11  and  C_12
REMARK    8  A    between atoms: C_16  and  N_17
REMARK                            x       y       z     vdW  Elec       q    Type
REMARK                         _______ _______ _______ _____ _____    ______ ____
ROOT
ATOM      1  N   UNL     1       5.785   3.737  16.623  0.00  0.00    +0.000 N 
ATOM      2  C   UNL     1       4.638   4.182  17.195  0.00  0.00    +0.000 A 
ATOM      3  N   UNL     1       4.320   5.444  17.373  0.00  0.00    +0.000 NA
ATOM      4  C   UNL     1       3.108   5.566  18.019  0.00  0.00    +0.000 A 
ATOM      5  C   UNL     1       2.453   4.375  18.243  0.00  0.00    +0.000 A 
ATOM      6  S   UNL     1       3.448   3.064  17.753  0.00  0.00    +0.000 S 
ATOM      7  H   UNL     1       6.022   2.764  16.771  0.00  0.00    +0.000 HD
ENDROOT
BRANCH   4   8
ATOM      8  C   UNL     1       2.608   6.887  18.377  0.00  0.00    +0.000 A 
ATOM      9  C   UNL     1       2.640   7.959  17.476  0.00  0.00    +0.000 A 
ATOM     10  C   UNL     1       2.134   9.211  17.841  0.00  0.00    +0.000 A 
ATOM     11  C   UNL     1       1.588   9.402  19.111  0.00  0.00    +0.000 A 
ATOM     12  C   UNL     1       1.537   8.328  20.009  0.00  0.00    +0.000 A 
ATOM     13  C   UNL     1       2.037   7.073  19.645  0.00  0.00    +0.000 A 
BRANCH  12  14
ATOM     14  N   UNL     1       0.961   8.520  21.346  0.00  0.00    +0.000 N 
ATOM     15  O   UNL     1      -0.239   8.240  21.499  0.00  0.00    +0.000 OA
ATOM     16  O   UNL     1       1.697   8.957  22.239  0.00  0.00    +0.000 OA
ENDBRANCH  12  14
ENDBRANCH   4   8
BRANCH   1  19
ATOM     17  C   UNL     1       7.398   5.345  13.757  0.00  0.00    +0.000 C 
ATOM     18  C   UNL     1       6.473   4.438  14.537  0.00  0.00    +0.000 C 
ATOM     19  N   UNL     1       6.541   4.536  15.829  0.00  0.00    +0.000 NA
BRANCH  18  20
ATOM     20  C   UNL     1       5.625   3.446  13.753  0.00  0.00    +0.000 C 
BRANCH  20  21
ATOM     21  C   UNL     1       5.782   3.508  12.223  0.00  0.00    +0.000 C 
ATOM     22  C   UNL     1       6.745   2.452  11.684  0.00  0.00    +0.000 C 
ATOM     23  C   UNL     1       4.409   3.354  11.565  0.00  0.00    +0.000 C 
ENDBRANCH  20  21
ENDBRANCH  18  20
ENDBRANCH   1  19
TORSDOF 5
ENDMDL
MODEL 6
REMARK VINA RESULT:      -7.3      4.252      7.134
REMARK  Name = 
REMARK  8 active torsions:
REMARK  status: ('A' for Active; 'I' for Inactive)
REMARK    1  A    between atoms: C_1  and  C_2
REMARK    2  A    between atoms: C_2  and  C_3
REMARK    3  A    between atoms: C_3  and  C_4
REMARK    4  A    between atoms: C_4  and  C_5
REMARK    5  A    between atoms: C_4  and  C_6
REMARK    6  A    between atoms: N_7  and  N_8
REMARK    7  A    between atoms: C_11  and  C_12
REMARK    8  A    between atoms: C_16  and  N_17
REMARK                            x       y       z     vdW  Elec       q    Type
REMARK                         _______ _______ _______ _____ _____    ______ ____
ROOT
ATOM      1  N   UNL     1       2.057   5.924  20.893  0.00  0.00    +0.000 N 
ATOM      2  C   UNL     1       2.734   6.200  19.750  0.00  0.00    +0.000 A 
ATOM      3  N   UNL     1       3.791   5.550  19.320  0.00  0.00    +0.000 NA
ATOM      4  C   UNL     1       4.273   6.099  18.150  0.00  0.00    +0.000 A 
ATOM      5  C   UNL     1       3.505   7.121  17.636  0.00  0.00    +0.000 A 
ATOM      6  S   UNL     1       2.225   7.488  18.721  0.00  0.00    +0.000 S 
ATOM      7  H   UNL     1       1.429   6.640  21.236  0.00  0.00    +0.000 HD
ENDROOT
BRANCH   4   8
ATOM      8  C   UNL     1       5.488   5.568  17.547  0.00  0.00    +0.000 A 
ATOM      9  C   UNL     1       6.584   5.166  18.323  0.00  0.00    +0.000 A 
ATOM     10  C   UNL     1       7.729   4.641  17.717  0.00  0.00    +0.000 A 
ATOM     11  C   UNL     1       7.789   4.507  16.329  0.00  0.00    +0.000 A 
ATOM     12  C   UNL     1       6.688   4.888  15.551  0.00  0.00    +0.000 A 
ATOM     13  C   UNL     1       5.539   5.410  16.154  0.00  0.00    +0.000 A 
BRANCH  12  14
ATOM     14  N   UNL     1       6.742   4.747  14.091  0.00  0.00    +0.000 N 
ATOM     15  O   UNL     1       7.589   5.419  13.480  0.00  0.00    +0.000 OA
ATOM     16  O   UNL     1       5.938   3.976  13.551  0.00  0.00    +0.000 OA
ENDBRANCH  12  14
ENDBRANCH   4   8
BRANCH   1  19
ATOM     17  C   UNL     1       1.674   2.408  21.836  0.00  0.00    +0.000 C 
ATOM     18  C   UNL     1       1.526   3.685  21.040  0.00  0.00    +0.000 C 
ATOM     19  N   UNL     1       2.157   4.718  21.507  0.00  0.00    +0.000 NA
BRANCH  18  20
ATOM     20  C   UNL     1       0.595   3.667  19.836  0.00  0.00    +0.000 C 
BRANCH  20  21
ATOM     21  C   UNL     1       1.162   2.997  18.573  0.00  0.00    +0.000 C 
ATOM     22  C   UNL     1       1.342   3.975  17.414  0.00  0.00    +0.000 C 
ATOM     23  C   UNL     1       2.498   2.327  18.908  0.00  0.00    +0.000 C 
ENDBRANCH  20  21
ENDBRANCH  18  20
ENDBRANCH   1  19
TORSDOF 5
ENDMDL
MODEL 7
REMARK VINA RESULT:      -7.2      5.084      7.987
REMARK  Name = 
REMARK  8 active torsions:
REMARK  status: ('A' for Active; 'I' for Inactive)
REMARK    1  A    between atoms: C_1  and  C_2
REMARK    2  A    between atoms: C_2  and  C_3
REMARK    3  A    between atoms: C_3  and  C_4
REMARK    4  A    between atoms: C_4  and  C_5
REMARK    5  A    between atoms: C_4  and  C_6
REMARK    6  A    between atoms: N_7  and  N_8
REMARK    7  A    between atoms: C_11  and  C_12
REMARK    8  A    between atoms: C_16  and  N_17
REMARK                            x       y       z     vdW  Elec       q    Type
REMARK                         _______ _______ _______ _____ _____    ______ ____
ROOT
ATOM      1  N   UNL     1       4.416   4.492  18.845  0.00  0.00    +0.000 N 
ATOM      2  C   UNL     1       4.749   5.099  17.678  0.00  0.00    +0.000 A 
ATOM      3  N   UNL     1       5.202   4.487  16.608  0.00  0.00    +0.000 NA
ATOM      4  C   UNL     1       5.488   5.386  15.602  0.00  0.00    +0.000 A 
ATOM      5  C   UNL     1       5.150   6.692  15.885  0.00  0.00    +0.000 A 
ATOM      6  S   UNL     1       4.588   6.808  17.504  0.00  0.00    +0.000 S 
ATOM      7  H   UNL     1       4.325   5.086  19.659  0.00  0.00    +0.000 HD
ENDROOT
BRANCH   4   8
ATOM      8  C   UNL     1       6.072   4.915  14.354  0.00  0.00    +0.000 A 
ATOM      9  C   UNL     1       7.339   5.334  13.925  0.00  0.00    +0.000 A 
ATOM     10  C   UNL     1       7.883   4.849  12.732  0.00  0.00    +0.000 A 
ATOM     11  C   UNL     1       7.166   3.936  11.956  0.00  0.00    +0.000 A 
ATOM     12  C   UNL     1       5.909   3.499  12.390  0.00  0.00    +0.000 A 
ATOM     13  C   UNL     1       5.363   3.978  13.585  0.00  0.00    +0.000 A 
BRANCH  12  14
ATOM     14  N   UNL     1       5.151   2.537  11.581  0.00  0.00    +0.000 N 
ATOM     15  O   UNL     1       5.681   1.438  11.351  0.00  0.00    +0.000 OA
ATOM     16  O   UNL     1       4.035   2.875  11.168  0.00  0.00    +0.000 OA
ENDBRANCH  12  14
ENDBRANCH   4   8
BRANCH   1  19
ATOM     17  C   UNL     1       2.738   1.243  19.006  0.00  0.00    +0.000 C 
ATOM     18  C   UNL     1       2.919   2.739  18.884  0.00  0.00    +0.000 C 
ATOM     19  N   UNL     1       4.144   3.164  18.904  0.00  0.00    +0.000 NA
BRANCH  18  20
ATOM     20  C   UNL     1       1.667   3.604  18.841  0.00  0.00    +0.000 C 
BRANCH  20  21
ATOM     21  C   UNL     1       1.115   4.036  20.210  0.00  0.00    +0.000 C 
ATOM     22  C   UNL     1       1.391   3.013  21.310  0.00  0.00    +0.000 C 
ATOM     23  C   UNL     1       1.710   5.394  20.593  0.00  0.00    +0.000 C 
ENDBRANCH  20  21
ENDBRANCH  18  20
ENDBRANCH   1  19
TORSDOF 5
ENDMDL
MODEL 8
REMARK VINA RESULT:      -7.2      5.309      7.954
REMARK  Name = 
REMARK  8 active torsions:
REMARK  status: ('A' for Active; 'I' for Inactive)
REMARK    1  A    between atoms: C_1  and  C_2
REMARK    2  A    between atoms: C_2  and  C_3
REMARK    3  A    between atoms: C_3  and  C_4
REMARK    4  A    between atoms: C_4  and  C_5
REMARK    5  A    between atoms: C_4  and  C_6
REMARK    6  A    between atoms: N_7  and  N_8
REMARK    7  A    between atoms: C_11  and  C_12
REMARK    8  A    between atoms: C_16  and  N_17
REMARK                            x       y       z     vdW  Elec       q    Type
REMARK                         _______ _______ _______ _____ _____    ______ ____
ROOT
ATOM      1  N   UNL     1       5.165   4.963  19.062  0.00  0.00    +0.000 N 
ATOM      2  C   UNL     1       5.217   5.434  17.790  0.00  0.00    +0.000 A 
ATOM      3  N   UNL     1       5.687   4.774  16.757  0.00  0.00    +0.000 NA
ATOM      4  C   UNL     1       5.640   5.541  15.612  0.00  0.00    +0.000 A 
ATOM      5  C   UNL     1       5.031   6.767  15.765  0.00  0.00    +0.000 A 
ATOM      6  S   UNL     1       4.632   7.014  17.418  0.00  0.00    +0.000 S 
ATOM      7  H   UNL     1       5.021   5.644  19.796  0.00  0.00    +0.000 HD
ENDROOT
BRANCH   4   8
ATOM      8  C   UNL     1       6.184   5.017  14.366  0.00  0.00    +0.000 A 
ATOM      9  C   UNL     1       7.455   5.382  13.903  0.00  0.00    +0.000 A 
ATOM     10  C   UNL     1       7.960   4.847  12.714  0.00  0.00    +0.000 A 
ATOM     11  C   UNL     1       7.199   3.938  11.977  0.00  0.00    +0.000 A 
ATOM     12  C   UNL     1       5.937   3.555  12.446  0.00  0.00    +0.000 A 
ATOM     13  C   UNL     1       5.431   4.084  13.637  0.00  0.00    +0.000 A 
BRANCH  12  14
ATOM     14  N   UNL     1       5.132   2.596  11.678  0.00  0.00    +0.000 N 
ATOM     15  O   UNL     1       3.994   2.950  11.330  0.00  0.00    +0.000 OA
ATOM     16  O   UNL     1       5.628   1.490  11.428  0.00  0.00    +0.000 OA
ENDBRANCH  12  14
ENDBRANCH   4   8
BRANCH   1  19
ATOM     17  C   UNL     1       4.360   1.514  19.984  0.00  0.00    +0.000 C 
ATOM     18  C   UNL     1       4.159   2.976  19.656  0.00  0.00    +0.000 C 
ATOM     19  N   UNL     1       5.228   3.635  19.332  0.00  0.00    +0.000 NA
BRANCH  18  20
ATOM     20  C   UNL     1       2.760   3.553  19.821  0.00  0.00    +0.000 C 
BRANCH  20  21
ATOM     21  C   UNL     1       1.825   3.374  18.612  0.00  0.00    +0.000 C 
ATOM     22  C   UNL     1       2.578   3.044  17.325  0.00  0.00    +0.000 C 
ATOM     23  C   UNL     1       0.801   2.278  18.919  0.00  0.00    +0.000 C 
ENDBRANCH  20  21
ENDBRANCH  18  20
ENDBRANCH   1  19
TORSDOF 5
ENDMDL
MODEL 9
REMARK VINA RESULT:      -7.1      5.190      8.141
REMARK  Name = 
REMARK  8 active torsions:
REMARK  status: ('A' for Active; 'I' for Inactive)
REMARK    1  A    between atoms: C_1  and  C_2
REMARK    2  A    between atoms: C_2  and  C_3
REMARK    3  A    between atoms: C_3  and  C_4
REMARK    4  A    between atoms: C_4  and  C_5
REMARK    5  A    between atoms: C_4  and  C_6
REMARK    6  A    between atoms: N_7  and  N_8
REMARK    7  A    between atoms: C_11  and  C_12
REMARK    8  A    between atoms: C_16  and  N_17
REMARK                            x       y       z     vdW  Elec       q    Type
REMARK                         _______ _______ _______ _____ _____    ______ ____
ROOT
ATOM      1  N   UNL     1       4.432   4.093  18.622  0.00  0.00    +0.000 N 
ATOM      2  C   UNL     1       5.422   4.445  17.763  0.00  0.00    +0.000 A 
ATOM      3  N   UNL     1       5.371   4.319  16.457  0.00  0.00    +0.000 NA
ATOM      4  C   UNL     1       6.551   4.727  15.870  0.00  0.00    +0.000 A 
ATOM      5  C   UNL     1       7.471   5.264  16.743  0.00  0.00    +0.000 A 
ATOM      6  S   UNL     1       6.893   5.126  18.355  0.00  0.00    +0.000 S 
ATOM      7  H   UNL     1       4.685   4.005  19.598  0.00  0.00    +0.000 HD
ENDROOT
BRANCH   4   8
ATOM      8  C   UNL     1       6.726   4.597  14.430  0.00  0.00    +0.000 A 
ATOM      9  C   UNL     1       7.703   5.323  13.735  0.00  0.00    +0.000 A 
ATOM     10  C   UNL     1       7.862   5.163  12.356  0.00  0.00    +0.000 A 
ATOM     11  C   UNL     1       7.047   4.272  11.656  0.00  0.00    +0.000 A 
ATOM     12  C   UNL     1       6.083   3.529  12.348  0.00  0.00    +0.000 A 
ATOM     13  C   UNL     1       5.924   3.683  13.729  0.00  0.00    +0.000 A 
BRANCH  12  14
ATOM     14  N   UNL     1       5.224   2.587  11.619  0.00  0.00    +0.000 N 
ATOM     15  O   UNL     1       5.688   1.462  11.372  0.00  0.00    +0.000 OA
ATOM     16  O   UNL     1       4.095   2.967  11.287  0.00  0.00    +0.000 OA
ENDBRANCH  12  14
ENDBRANCH   4   8
BRANCH   1  19
ATOM     17  C   UNL     1       0.931   3.075  18.299  0.00  0.00    +0.000 C 
ATOM     18  C   UNL     1       2.318   3.212  18.885  0.00  0.00    +0.000 C 
ATOM     19  N   UNL     1       3.150   3.941  18.207  0.00  0.00    +0.000 NA
BRANCH  18  20
ATOM     20  C   UNL     1       2.635   2.422  20.147  0.00  0.00    +0.000 C 
BRANCH  20  21
ATOM     21  C   UNL     1       2.376   3.161  21.471  0.00  0.00    +0.000 C 
ATOM     22  C   UNL     1       2.079   4.645  21.272  0.00  0.00    +0.000 C 
ATOM     23  C   UNL     1       1.218   2.487  22.212  0.00  0.00    +0.000 C 
ENDBRANCH  20  21
ENDBRANCH  18  20
ENDBRANCH   1  19
TORSDOF 5
ENDMDL
