MODEL 1
REMARK VINA RESULT:      -7.8      0.000      0.000
REMARK  Name = 
REMARK  7 active torsions:
REMARK  status: ('A' for Active; 'I' for Inactive)
REMARK    1  A    between atoms: C_1  and  C_2
REMARK    2  A    between atoms: C_2  and  C_3
REMARK    3  A    between atoms: C_5  and  C_6
REMARK    4  A    between atoms: C_9  and  C_10
REMARK    5  A    between atoms: C_11  and  S_12
REMARK    6  A    between atoms: S_12  and  N_15
REMARK    7  A    between atoms: C_18  and  C_19
REMARK                            x       y       z     vdW  Elec       q    Type
REMARK                         _______ _______ _______ _____ _____    ______ ____
ROOT
ATOM      1  S   UNL     1       0.611   9.679  21.199  0.00  0.00    +0.000 S 
ATOM      2  O   UNL     1      -0.417   8.865  21.828  0.00  0.00    +0.000 OA
ATOM      3  O   UNL     1       1.643  10.288  22.016  0.00  0.00    +0.000 OA
ENDROOT
BRANCH   1   9
ATOM      4  C   UNL     1       2.365   6.409  19.543  0.00  0.00    +0.000 A 
ATOM      5  C   UNL     1       2.871   6.874  18.328  0.00  0.00    +0.000 A 
ATOM      6  C   UNL     1       2.659   8.191  17.934  0.00  0.00    +0.000 A 
ATOM      7  C   UNL     1       1.936   9.094  18.739  0.00  0.00    +0.000 A 
ATOM      8  C   UNL     1       1.825  10.497  18.216  0.00  0.00    +0.000 C 
ATOM      9  C   UNL     1       1.407   8.627  19.963  0.00  0.00    +0.000 A 
ATOM     10  C   UNL     1       1.647   7.293  20.359  0.00  0.00    +0.000 A 
BRANCH   4  13
ATOM     11  C   UNL     1       3.511   3.127  19.912  0.00  0.00    +0.000 A 
ATOM     12  N   UNL     1       3.569   4.278  19.274  0.00  0.00    +0.000 NA
ATOM     13  C   UNL     1       2.616   5.029  19.929  0.00  0.00    +0.000 A 
ATOM     14  N   UNL     1       1.974   4.371  20.907  0.00  0.00    +0.000 NA
ATOM     15  O   UNL     1       2.570   3.109  20.902  0.00  0.00    +0.000 OA
BRANCH  11  17
ATOM     16  C   UNL     1       3.856   1.124  18.533  0.00  0.00    +0.000 C 
ATOM     17  C   UNL     1       4.345   1.930  19.726  0.00  0.00    +0.000 C 
ENDBRANCH  11  17
ENDBRANCH   4  13
ENDBRANCH   1   9
BRANCH   1  18
ATOM     18  N   UNL     1      -0.202  10.921  20.339  0.00  0.00    +0.000 NA
ATOM     19  C   UNL     1      -1.317  10.479  19.493  0.00  0.00    +0.000 C 
ATOM     20  C   UNL     1      -2.031  11.597  18.759  0.00  0.00    +0.000 C 
ATOM     21  C   UNL     1      -2.336  12.832  19.600  0.00  0.00    +0.000 C 
ATOM     22  C   UNL     1      -1.038  13.323  20.230  0.00  0.00    +0.000 C 
ATOM     23  C   UNL     1      -0.198  12.264  20.943  0.00  0.00    +0.000 C 
BRANCH  21  24
ATOM     24  C   UNL     1      -3.478  12.675  20.618  0.00  0.00    +0.000 C 
ATOM     25  O   UNL     1      -3.253  12.802  21.820  0.00  0.00    +0.000 OA
ATOM     26  N   UNL     1      -4.762  12.388  20.124  0.00  0.00    +0.000 N 
ATOM     27  C   UNL     1      -5.890  12.404  21.065  0.00  0.00    +0.000 C 
ATOM     28  C   UNL     1      -6.984  11.389  20.718  0.00  0.00    +0.000 C 
ATOM     29  C   UNL     1      -7.397  11.459  19.250  0.00  0.00    +0.000 C 
ATOM     30  C   UNL     1      -6.171  11.334  18.362  0.00  0.00    +0.000 C 
ATOM     31  C   UNL     1      -5.143  12.416  18.705  0.00  0.00    +0.000 C 
ENDBRANCH  21  24
ENDBRANCH   1  18
TORSDOF 5
ENDMDL
MODEL 2
REMARK VINA RESULT:      -7.7      1.491      1.670
REMARK  Name = 
REMARK  7 active torsions:
REMARK  status: ('A' for Active; 'I' for Inactive)
REMARK    1  A    between atoms: C_1  and  C_2
REMARK    2  A    between atoms: C_2  and  C_3
REMARK    3  A    between atoms: C_5  and  C_6
REMARK    4  A    between atoms: C_9  and  C_10
REMARK    5  A    between atoms: C_11  and  S_12
REMARK    6  A    between atoms: S_12  and  N_15
REMARK    7  A    between atoms: C_18  and  C_19
REMARK                            x       y       z     vdW  Elec       q    Type
REMARK                         _______ _______ _______ _____ _____    ______ ____
ROOT
ATOM      1  S   UNL     1       0.342   9.695  21.406  0.00  0.00    +0.000 S 
ATOM      2  O   UNL     1      -0.674   8.696  21.697  0.00  0.00    +0.000 OA
ATOM      3  O   UNL     1       1.361   9.990  22.395  0.00  0.00    +0.000 OA
ENDROOT
BRANCH   1   9
ATOM      4  C   UNL     1       2.365   7.322  18.801  0.00  0.00    +0.000 A 
ATOM      5  C   UNL     1       2.693   8.178  17.748  0.00  0.00    +0.000 A 
ATOM      6  C   UNL     1       2.272   9.504  17.759  0.00  0.00    +0.000 A 
ATOM      7  C   UNL     1       1.509  10.026  18.822  0.00  0.00    +0.000 A 
ATOM      8  C   UNL     1       1.164  11.484  18.730  0.00  0.00    +0.000 C 
ATOM      9  C   UNL     1       1.159   9.162  19.885  0.00  0.00    +0.000 A 
ATOM     10  C   UNL     1       1.610   7.825  19.869  0.00  0.00    +0.000 A 
BRANCH   4  13
ATOM     11  C   UNL     1       2.899   3.919  18.209  0.00  0.00    +0.000 A 
ATOM     12  N   UNL     1       2.178   5.002  18.001  0.00  0.00    +0.000 NA
ATOM     13  C   UNL     1       2.833   5.945  18.762  0.00  0.00    +0.000 A 
ATOM     14  N   UNL     1       3.892   5.470  19.436  0.00  0.00    +0.000 NA
ATOM     15  O   UNL     1       3.943   4.126  19.066  0.00  0.00    +0.000 OA
BRANCH  11  17
ATOM     16  C   UNL     1       3.450   1.539  18.460  0.00  0.00    +0.000 C 
ATOM     17  C   UNL     1       2.750   2.585  17.607  0.00  0.00    +0.000 C 
ENDBRANCH  11  17
ENDBRANCH   4  13
ENDBRANCH   1   9
BRANCH   1  18
ATOM     18  N   UNL     1      -0.490  11.149  21.036  0.00  0.00    +0.000 NA
ATOM     19  C   UNL     1      -1.648  11.007  20.145  0.00  0.00    +0.000 C 
ATOM     20  C   UNL     1      -2.377  12.302  19.849  0.00  0.00    +0.000 C 
ATOM     21  C   UNL     1      -2.626  13.197  21.059  0.00  0.00    +0.000 C 
ATOM     22  C   UNL     1      -1.294  13.456  21.754  0.00  0.00    +0.000 C 
ATOM     23  C   UNL     1      -0.440  12.223  22.043  0.00  0.00    +0.000 C 
BRANCH  21  24
ATOM     24  C   UNL     1      -3.724  12.715  22.022  0.00  0.00    +0.000 C 
ATOM     25  O   UNL     1      -3.427  12.040  23.005  0.00  0.00    +0.000 OA
ATOM     26  N   UNL     1      -5.051  13.078  21.737  0.00  0.00    +0.000 N 
ATOM     27  C   UNL     1      -6.087  12.773  22.734  0.00  0.00    +0.000 C 
ATOM     28  C   UNL     1      -7.449  12.447  22.115  0.00  0.00    +0.000 C 
ATOM     29  C   UNL     1      -7.875  13.475  21.070  0.00  0.00    +0.000 C 
ATOM     30  C   UNL     1      -6.778  13.643  20.033  0.00  0.00    +0.000 C 
ATOM     31  C   UNL     1      -5.458  14.038  20.701  0.00  0.00    +0.000 C 
ENDBRANCH  21  24
ENDBRANCH   1  18
TORSDOF 5
ENDMDL
MODEL 3
REMARK VINA RESULT:      -7.6      0.988      1.270
REMARK  Name = 
REMARK  7 active torsions:
REMARK  status: ('A' for Active; 'I' for Inactive)
REMARK    1  A    between atoms: C_1  and  C_2
REMARK    2  A    between atoms: C_2  and  C_3
REMARK    3  A    between atoms: C_5  and  C_6
REMARK    4  A    between atoms: C_9  and  C_10
REMARK    5  A    between atoms: C_11  and  S_12
REMARK    6  A    between atoms: S_12  and  N_15
REMARK    7  A    between atoms: C_18  and  C_19
REMARK                            x       y       z     vdW  Elec       q    Type
REMARK                         _______ _______ _______ _____ _____    ______ ____
ROOT
ATOM      1  S   UNL     1       0.475   9.800  21.179  0.00  0.00    +0.000 S 
ATOM      2  O   UNL     1      -0.503   8.842  21.671  0.00  0.00    +0.000 OA
ATOM      3  O   UNL     1       1.469  10.339  22.087  0.00  0.00    +0.000 OA
ENDROOT
BRANCH   1   9
ATOM      4  C   UNL     1       2.509   6.959  19.105  0.00  0.00    +0.000 A 
ATOM      5  C   UNL     1       2.913   7.614  17.939  0.00  0.00    +0.000 A 
ATOM      6  C   UNL     1       2.543   8.935  17.709  0.00  0.00    +0.000 A 
ATOM      7  C   UNL     1       1.758   9.652  18.633  0.00  0.00    +0.000 A 
ATOM      8  C   UNL     1       1.473  11.084  18.282  0.00  0.00    +0.000 C 
ATOM      9  C   UNL     1       1.332   8.992  19.808  0.00  0.00    +0.000 A 
ATOM     10  C   UNL     1       1.731   7.658  20.038  0.00  0.00    +0.000 A 
BRANCH   4  13
ATOM     11  C   UNL     1       2.989   3.674  20.198  0.00  0.00    +0.000 A 
ATOM     12  N   UNL     1       2.393   4.838  20.350  0.00  0.00    +0.000 NA
ATOM     13  C   UNL     1       2.925   5.581  19.318  0.00  0.00    +0.000 A 
ATOM     14  N   UNL     1       3.831   4.924  18.577  0.00  0.00    +0.000 NA
ATOM     15  O   UNL     1       3.872   3.655  19.155  0.00  0.00    +0.000 OA
BRANCH  11  17
ATOM     16  C   UNL     1       1.501   2.510  21.767  0.00  0.00    +0.000 C 
ATOM     17  C   UNL     1       2.783   2.428  20.953  0.00  0.00    +0.000 C 
ENDBRANCH  11  17
ENDBRANCH   4  13
ENDBRANCH   1   9
BRANCH   1  18
ATOM     18  N   UNL     1      -0.410  11.106  20.507  0.00  0.00    +0.000 NA
ATOM     19  C   UNL     1      -1.548  10.730  19.659  0.00  0.00    +0.000 C 
ATOM     20  C   UNL     1      -2.325  11.902  19.093  0.00  0.00    +0.000 C 
ATOM     21  C   UNL     1      -2.628  13.019  20.086  0.00  0.00    +0.000 C 
ATOM     22  C   UNL     1      -1.319  13.475  20.718  0.00  0.00    +0.000 C 
ATOM     23  C   UNL     1      -0.419  12.369  21.265  0.00  0.00    +0.000 C 
BRANCH  21  24
ATOM     24  C   UNL     1      -3.719  12.704  21.124  0.00  0.00    +0.000 C 
ATOM     25  O   UNL     1      -3.416  12.527  22.302  0.00  0.00    +0.000 OA
ATOM     26  N   UNL     1      -5.049  12.632  20.675  0.00  0.00    +0.000 N 
ATOM     27  C   UNL     1      -6.116  12.503  21.677  0.00  0.00    +0.000 C 
ATOM     28  C   UNL     1      -7.312  11.678  21.187  0.00  0.00    +0.000 C 
ATOM     29  C   UNL     1      -7.800  12.122  19.811  0.00  0.00    +0.000 C 
ATOM     30  C   UNL     1      -6.642  12.127  18.828  0.00  0.00    +0.000 C 
ATOM     31  C   UNL     1      -5.507  13.022  19.334  0.00  0.00    +0.000 C 
ENDBRANCH  21  24
ENDBRANCH   1  18
TORSDOF 5
ENDMDL
MODEL 4
REMARK VINA RESULT:      -7.6      4.006      7.011
REMARK  Name = 
REMARK  7 active torsions:
REMARK  status: ('A' for Active; 'I' for Inactive)
REMARK    1  A    between atoms: C_1  and  C_2
REMARK    2  A    between atoms: C_2  and  C_3
REMARK    3  A    between atoms: C_5  and  C_6
REMARK    4  A    between atoms: C_9  and  C_10
REMARK    5  A    between atoms: C_11  and  S_12
REMARK    6  A    between atoms: S_12  and  N_15
REMARK    7  A    between atoms: C_18  and  C_19
REMARK                            x       y       z     vdW  Elec       q    Type
REMARK                         _______ _______ _______ _____ _____    ______ ____
ROOT
ATOM      1  S   UNL     1      -1.139  12.342  19.758  0.00  0.00    +0.000 S 
ATOM      2  O   UNL     1      -0.940  11.837  18.408  0.00  0.00    +0.000 OA
ATOM      3  O   UNL     1      -2.475  12.683  20.206  0.00  0.00    +0.000 OA
ENDROOT
BRANCH   1   9
ATOM      4  C   UNL     1       0.738   8.955  20.990  0.00  0.00    +0.000 A 
ATOM      5  C   UNL     1       0.451   8.887  22.355  0.00  0.00    +0.000 A 
ATOM      6  C   UNL     1      -0.286   9.892  22.973  0.00  0.00    +0.000 A 
ATOM      7  C   UNL     1      -0.764  11.004  22.251  0.00  0.00    +0.000 A 
ATOM      8  C   UNL     1      -1.586  11.989  23.031  0.00  0.00    +0.000 C 
ATOM      9  C   UNL     1      -0.464  11.089  20.873  0.00  0.00    +0.000 A 
ATOM     10  C   UNL     1       0.267  10.051  20.256  0.00  0.00    +0.000 A 
BRANCH   4  13
ATOM     11  C   UNL     1       2.704   6.899  18.959  0.00  0.00    +0.000 A 
ATOM     12  N   UNL     1       2.118   8.062  19.158  0.00  0.00    +0.000 NA
ATOM     13  C   UNL     1       1.500   7.879  20.376  0.00  0.00    +0.000 A 
ATOM     14  N   UNL     1       1.665   6.654  20.899  0.00  0.00    +0.000 NA
ATOM     15  O   UNL     1       2.469   6.002  19.963  0.00  0.00    +0.000 OA
BRANCH  11  17
ATOM     16  C   UNL     1       3.574   4.979  17.699  0.00  0.00    +0.000 C 
ATOM     17  C   UNL     1       3.589   6.491  17.857  0.00  0.00    +0.000 C 
ENDBRANCH  11  17
ENDBRANCH   4  13
ENDBRANCH   1   9
BRANCH   1  18
ATOM     18  N   UNL     1      -0.144  13.730  19.915  0.00  0.00    +0.000 NA
ATOM     19  C   UNL     1       0.945  13.621  20.893  0.00  0.00    +0.000 C 
ATOM     20  C   UNL     1       1.821  14.854  21.000  0.00  0.00    +0.000 C 
ATOM     21  C   UNL     1       2.236  15.471  19.669  0.00  0.00    +0.000 C 
ATOM     22  C   UNL     1       0.981  15.751  18.851  0.00  0.00    +0.000 C 
ATOM     23  C   UNL     1      -0.011  14.596  18.731  0.00  0.00    +0.000 C 
BRANCH  21  24
ATOM     24  C   UNL     1       3.304  14.692  18.883  0.00  0.00    +0.000 C 
ATOM     25  O   UNL     1       3.051  13.573  18.441  0.00  0.00    +0.000 OA
ATOM     26  N   UNL     1       4.555  15.305  18.693  0.00  0.00    +0.000 N 
ATOM     27  C   UNL     1       5.524  14.650  17.803  0.00  0.00    +0.000 C 
ATOM     28  C   UNL     1       6.980  14.860  18.231  0.00  0.00    +0.000 C 
ATOM     29  C   UNL     1       7.295  16.324  18.525  0.00  0.00    +0.000 C 
ATOM     30  C   UNL     1       6.297  16.877  19.529  0.00  0.00    +0.000 C 
ATOM     31  C   UNL     1       4.864  16.704  19.017  0.00  0.00    +0.000 C 
ENDBRANCH  21  24
ENDBRANCH   1  18
TORSDOF 5
ENDMDL
MODEL 5
REMARK VINA RESULT:      -7.4      4.449      6.347
REMARK  Name = 
REMARK  7 active torsions:
REMARK  status: ('A' for Active; 'I' for Inactive)
REMARK    1  A    between atoms: C_1  and  C_2
REMARK    2  A    between atoms: C_2  and  C_3
REMARK    3  A    between atoms: C_5  and  C_6
REMARK    4  A    between atoms: C_9  and  C_10
REMARK    5  A    between atoms: C_11  and  S_12
REMARK    6  A    between atoms: S_12  and  N_15
REMARK    7  A    between atoms: C_18  and  C_19
REMARK                            x       y       z     vdW  Elec       q    Type
REMARK                         _______ _______ _______ _____ _____    ______ ____
ROOT
ATOM      1  S   UNL     1       3.260   5.138  18.331  0.00  0.00    +0.000 S 
ATOM      2  O   UNL     1       2.287   4.800  17.304  0.00  0.00    +0.000 OA
ATOM      3  O   UNL     1       3.316   4.355  19.550  0.00  0.00    +0.000 OA
ENDROOT
BRANCH   1   9
ATOM      4  C   UNL     1       6.073   4.523  15.464  0.00  0.00    +0.000 A 
ATOM      5  C   UNL     1       7.285   4.645  16.147  0.00  0.00    +0.000 A 
ATOM      6  C   UNL     1       7.303   4.967  17.500  0.00  0.00    +0.000 A 
ATOM      7  C   UNL     1       6.112   5.179  18.222  0.00  0.00    +0.000 A 
ATOM      8  C   UNL     1       6.275   5.473  19.686  0.00  0.00    +0.000 C 
ATOM      9  C   UNL     1       4.882   5.074  17.535  0.00  0.00    +0.000 A 
ATOM     10  C   UNL     1       4.878   4.727  16.167  0.00  0.00    +0.000 A 
BRANCH   4  13
ATOM     11  C   UNL     1       5.430   3.355  12.233  0.00  0.00    +0.000 A 
ATOM     12  N   UNL     1       5.063   3.444  13.495  0.00  0.00    +0.000 NA
ATOM     13  C   UNL     1       6.092   4.172  14.052  0.00  0.00    +0.000 A 
ATOM     14  N   UNL     1       7.068   4.497  13.189  0.00  0.00    +0.000 NA
ATOM     15  O   UNL     1       6.628   3.960  11.978  0.00  0.00    +0.000 OA
BRANCH  11  17
ATOM     16  C   UNL     1       3.426   3.531  10.823  0.00  0.00    +0.000 C 
ATOM     17  C   UNL     1       4.703   2.754  11.104  0.00  0.00    +0.000 C 
ENDBRANCH  11  17
ENDBRANCH   4  13
ENDBRANCH   1   9
BRANCH   1  18
ATOM     18  N   UNL     1       2.981   6.777  18.753  0.00  0.00    +0.000 NA
ATOM     19  C   UNL     1       3.164   7.750  17.669  0.00  0.00    +0.000 C 
ATOM     20  C   UNL     1       2.893   9.188  18.062  0.00  0.00    +0.000 C 
ATOM     21  C   UNL     1       1.632   9.407  18.891  0.00  0.00    +0.000 C 
ATOM     22  C   UNL     1       1.692   8.499  20.114  0.00  0.00    +0.000 C 
ATOM     23  C   UNL     1       2.025   7.033  19.844  0.00  0.00    +0.000 C 
BRANCH  21  24
ATOM     24  C   UNL     1       0.305   9.292  18.121  0.00  0.00    +0.000 C 
ATOM     25  O   UNL     1       0.196   8.485  17.201  0.00  0.00    +0.000 OA
ATOM     26  N   UNL     1      -0.753  10.130  18.512  0.00  0.00    +0.000 N 
ATOM     27  C   UNL     1      -2.073   9.915  17.903  0.00  0.00    +0.000 C 
ATOM     28  C   UNL     1      -2.880  11.206  17.729  0.00  0.00    +0.000 C 
ATOM     29  C   UNL     1      -2.911  12.048  19.002  0.00  0.00    +0.000 C 
ATOM     30  C   UNL     1      -1.495  12.296  19.493  0.00  0.00    +0.000 C 
ATOM     31  C   UNL     1      -0.761  10.971  19.717  0.00  0.00    +0.000 C 
ENDBRANCH  21  24
ENDBRANCH   1  18
TORSDOF 5
ENDMDL
MODEL 6
REMARK VINA RESULT:      -7.4      4.124      7.024
REMARK  Name = 
REMARK  7 active torsions:
REMARK  status: ('A' for Active; 'I' for Inactive)
REMARK    1  A    between atoms: C_1  and  C_2
REMARK    2  A    between atoms: C_2  and  C_3
REMARK    3  A    between atoms: C_5  and  C_6
REMARK    4  A    between atoms: C_9  and  C_10
REMARK    5  A    between atoms: C_11  and  S_12
REMARK    6  A    between atoms: S_12  and  N_15
REMARK    7  A    between atoms: C_18  and  C_19
REMARK                            x       y       z     vdW  Elec       q    Type
REMARK                         _______ _______ _______ _____ _____    ______ ____
ROOT
ATOM      1  S   UNL     1      -0.620  12.269  19.787  0.00  0.00    +0.000 S 
ATOM      2  O   UNL     1      -0.480  12.053  18.356  0.00  0.00    +0.000 OA
ATOM      3  O   UNL     1      -1.934  12.515  20.349  0.00  0.00    +0.000 OA
ENDROOT
BRANCH   1   9
ATOM      4  C   UNL     1       1.299   8.714  20.223  0.00  0.00    +0.000 A 
ATOM      5  C   UNL     1       1.036   8.347  21.544  0.00  0.00    +0.000 A 
ATOM      6  C   UNL     1       0.305   9.187  22.378  0.00  0.00    +0.000 A 
ATOM      7  C   UNL     1      -0.193  10.424  21.923  0.00  0.00    +0.000 A 
ATOM      8  C   UNL     1      -1.007  11.208  22.912  0.00  0.00    +0.000 C 
ATOM      9  C   UNL     1       0.082  10.810  20.592  0.00  0.00    +0.000 A 
ATOM     10  C   UNL     1       0.808   9.939  19.752  0.00  0.00    +0.000 A 
BRANCH   4  13
ATOM     11  C   UNL     1       2.939   6.008  18.737  0.00  0.00    +0.000 A 
ATOM     12  N   UNL     1       2.243   6.491  19.746  0.00  0.00    +0.000 NA
ATOM     13  C   UNL     1       2.057   7.806  19.376  0.00  0.00    +0.000 A 
ATOM     14  N   UNL     1       2.633   8.136  18.210  0.00  0.00    +0.000 NA
ATOM     15  O   UNL     1       3.215   6.943  17.780  0.00  0.00    +0.000 OA
BRANCH  11  17
ATOM     16  C   UNL     1       2.417   3.905  17.581  0.00  0.00    +0.000 C 
ATOM     17  C   UNL     1       3.386   4.626  18.506  0.00  0.00    +0.000 C 
ENDBRANCH  11  17
ENDBRANCH   4  13
ENDBRANCH   1   9
BRANCH   1  18
ATOM     18  N   UNL     1       0.397  13.591  20.188  0.00  0.00    +0.000 NA
ATOM     19  C   UNL     1       1.669  13.240  20.830  0.00  0.00    +0.000 C 
ATOM     20  C   UNL     1       2.557  14.424  21.156  0.00  0.00    +0.000 C 
ATOM     21  C   UNL     1       2.683  15.464  20.049  0.00  0.00    +0.000 C 
ATOM     22  C   UNL     1       1.284  15.915  19.644  0.00  0.00    +0.000 C 
ATOM     23  C   UNL     1       0.280  14.800  19.355  0.00  0.00    +0.000 C 
BRANCH  21  24
ATOM     24  C   UNL     1       3.552  15.051  18.849  0.00  0.00    +0.000 C 
ATOM     25  O   UNL     1       3.026  14.604  17.832  0.00  0.00    +0.000 OA
ATOM     26  N   UNL     1       4.944  15.209  18.963  0.00  0.00    +0.000 N 
ATOM     27  C   UNL     1       5.771  14.981  17.770  0.00  0.00    +0.000 C 
ATOM     28  C   UNL     1       7.152  14.400  18.090  0.00  0.00    +0.000 C 
ATOM     29  C   UNL     1       7.862  15.167  19.202  0.00  0.00    +0.000 C 
ATOM     30  C   UNL     1       6.962  15.260  20.423  0.00  0.00    +0.000 C 
ATOM     31  C   UNL     1       5.625  15.912  20.059  0.00  0.00    +0.000 C 
ENDBRANCH  21  24
ENDBRANCH   1  18
TORSDOF 5
ENDMDL
MODEL 7
REMARK VINA RESULT:      -7.4      1.949      2.277
REMARK  Name = 
REMARK  7 active torsions:
REMARK  status: ('A' for Active; 'I' for Inactive)
REMARK    1  A    between atoms: C_1  and  C_2
REMARK    2  A    between atoms: C_2  and  C_3
REMARK    3  A    between atoms: C_5  and  C_6
REMARK    4  A    between atoms: C_9  and  C_10
REMARK    5  A    between atoms: C_11  and  S_12
REMARK    6  A    between atoms: S_12  and  N_15
REMARK    7  A    between atoms: C_18  and  C_19
REMARK                            x       y       z     vdW  Elec       q    Type
REMARK                         _______ _______ _______ _____ _____    ______ ____
ROOT
ATOM      1  S   UNL     1       0.308   9.814  21.529  0.00  0.00    +0.000 S 
ATOM      2  O   UNL     1      -0.658   8.765  21.815  0.00  0.00    +0.000 OA
ATOM      3  O   UNL     1       1.363  10.096  22.483  0.00  0.00    +0.000 OA
ENDROOT
BRANCH   1   9
ATOM      4  C   UNL     1       2.231   7.624  18.698  0.00  0.00    +0.000 A 
ATOM      5  C   UNL     1       2.523   8.550  17.694  0.00  0.00    +0.000 A 
ATOM      6  C   UNL     1       2.106   9.872  17.810  0.00  0.00    +0.000 A 
ATOM      7  C   UNL     1       1.383  10.320  18.934  0.00  0.00    +0.000 A 
ATOM      8  C   UNL     1       1.038  11.781  18.953  0.00  0.00    +0.000 C 
ATOM      9  C   UNL     1       1.069   9.386  19.947  0.00  0.00    +0.000 A 
ATOM     10  C   UNL     1       1.516   8.053  19.824  0.00  0.00    +0.000 A 
BRANCH   4  13
ATOM     11  C   UNL     1       3.741   4.622  17.736  0.00  0.00    +0.000 A 
ATOM     12  N   UNL     1       3.544   5.907  17.520  0.00  0.00    +0.000 NA
ATOM     13  C   UNL     1       2.694   6.253  18.548  0.00  0.00    +0.000 A 
ATOM     14  N   UNL     1       2.352   5.231  19.349  0.00  0.00    +0.000 NA
ATOM     15  O   UNL     1       3.051   4.147  18.815  0.00  0.00    +0.000 OA
BRANCH  11  17
ATOM     16  C   UNL     1       5.270   4.391  15.828  0.00  0.00    +0.000 C 
ATOM     17  C   UNL     1       4.625   3.693  17.014  0.00  0.00    +0.000 C 
ENDBRANCH  11  17
ENDBRANCH   4  13
ENDBRANCH   1   9
BRANCH   1  18
ATOM     18  N   UNL     1      -0.589  11.253  21.273  0.00  0.00    +0.000 NA
ATOM     19  C   UNL     1      -1.830  11.097  20.504  0.00  0.00    +0.000 C 
ATOM     20  C   UNL     1      -2.614  12.379  20.308  0.00  0.00    +0.000 C 
ATOM     21  C   UNL     1      -2.755  13.250  21.552  0.00  0.00    +0.000 C 
ATOM     22  C   UNL     1      -1.364  13.530  22.109  0.00  0.00    +0.000 C 
ATOM     23  C   UNL     1      -0.457  12.313  22.287  0.00  0.00    +0.000 C 
BRANCH  21  24
ATOM     24  C   UNL     1      -3.735  12.729  22.616  0.00  0.00    +0.000 C 
ATOM     25  O   UNL     1      -3.350  11.936  23.472  0.00  0.00    +0.000 OA
ATOM     26  N   UNL     1      -5.061  13.195  22.569  0.00  0.00    +0.000 N 
ATOM     27  C   UNL     1      -5.962  12.842  23.675  0.00  0.00    +0.000 C 
ATOM     28  C   UNL     1      -7.419  12.662  23.237  0.00  0.00    +0.000 C 
ATOM     29  C   UNL     1      -7.915  13.819  22.375  0.00  0.00    +0.000 C 
ATOM     30  C   UNL     1      -6.968  14.037  21.207  0.00  0.00    +0.000 C 
ATOM     31  C   UNL     1      -5.541  14.282  21.707  0.00  0.00    +0.000 C 
ENDBRANCH  21  24
ENDBRANCH   1  18
TORSDOF 5
ENDMDL
MODEL 8
REMARK VINA RESULT:      -7.3      4.725      7.714
REMARK  Name = 
REMARK  7 active torsions:
REMARK  status: ('A' for Active; 'I' for Inactive)
REMARK    1  A    between atoms: C_1  and  C_2
REMARK    2  A    between atoms: C_2  and  C_3
REMARK    3  A    between atoms: C_5  and  C_6
REMARK    4  A    between atoms: C_9  and  C_10
REMARK    5  A    between atoms: C_11  and  S_12
REMARK    6  A    between atoms: S_12  and  N_15
REMARK    7  A    between atoms: C_18  and  C_19
REMARK                            x       y       z     vdW  Elec       q    Type
REMARK                         _______ _______ _______ _____ _____    ______ ____
ROOT
ATOM      1  S   UNL     1       4.459   3.358  18.628  0.00  0.00    +0.000 S 
ATOM      2  O   UNL     1       3.963   2.225  17.862  0.00  0.00    +0.000 OA
ATOM      3  O   UNL     1       5.155   3.128  19.878  0.00  0.00    +0.000 OA
ENDROOT
BRANCH   1   9
ATOM      4  C   UNL     1       6.388   4.452  15.223  0.00  0.00    +0.000 A 
ATOM      5  C   UNL     1       7.352   5.365  15.658  0.00  0.00    +0.000 A 
ATOM      6  C   UNL     1       7.427   5.726  16.999  0.00  0.00    +0.000 A 
ATOM      7  C   UNL     1       6.544   5.188  17.957  0.00  0.00    +0.000 A 
ATOM      8  C   UNL     1       6.768   5.627  19.376  0.00  0.00    +0.000 C 
ATOM      9  C   UNL     1       5.555   4.277  17.523  0.00  0.00    +0.000 A 
ATOM     10  C   UNL     1       5.504   3.905  16.163  0.00  0.00    +0.000 A 
BRANCH   4  13
ATOM     11  C   UNL     1       5.603   3.264  12.031  0.00  0.00    +0.000 A 
ATOM     12  N   UNL     1       5.288   3.370  13.305  0.00  0.00    +0.000 NA
ATOM     13  C   UNL     1       6.347   4.089  13.815  0.00  0.00    +0.000 A 
ATOM     14  N   UNL     1       7.292   4.392  12.912  0.00  0.00    +0.000 NA
ATOM     15  O   UNL     1       6.798   3.851  11.724  0.00  0.00    +0.000 OA
BRANCH  11  17
ATOM     16  C   UNL     1       3.459   3.325  10.834  0.00  0.00    +0.000 C 
ATOM     17  C   UNL     1       4.824   2.663  10.937  0.00  0.00    +0.000 C 
ENDBRANCH  11  17
ENDBRANCH   4  13
ENDBRANCH   1   9
BRANCH   1  18
ATOM     18  N   UNL     1       3.110   4.371  18.938  0.00  0.00    +0.000 NA
ATOM     19  C   UNL     1       3.260   5.299  20.066  0.00  0.00    +0.000 C 
ATOM     20  C   UNL     1       2.062   6.195  20.307  0.00  0.00    +0.000 C 
ATOM     21  C   UNL     1       1.461   6.826  19.055  0.00  0.00    +0.000 C 
ATOM     22  C   UNL     1       1.133   5.716  18.062  0.00  0.00    +0.000 C 
ATOM     23  C   UNL     1       2.250   4.710  17.791  0.00  0.00    +0.000 C 
BRANCH  21  24
ATOM     24  C   UNL     1       2.281   7.968  18.432  0.00  0.00    +0.000 C 
ATOM     25  O   UNL     1       3.370   7.733  17.914  0.00  0.00    +0.000 OA
ATOM     26  N   UNL     1       1.738   9.264  18.477  0.00  0.00    +0.000 N 
ATOM     27  C   UNL     1       2.425  10.332  17.738  0.00  0.00    +0.000 C 
ATOM     28  C   UNL     1       2.314  11.704  18.412  0.00  0.00    +0.000 C 
ATOM     29  C   UNL     1       0.879  12.043  18.807  0.00  0.00    +0.000 C 
ATOM     30  C   UNL     1       0.295  10.921  19.648  0.00  0.00    +0.000 C 
ATOM     31  C   UNL     1       0.369   9.589  18.898  0.00  0.00    +0.000 C 
ENDBRANCH  21  24
ENDBRANCH   1  18
TORSDOF 5
ENDMDL
MODEL 9
REMARK VINA RESULT:      -7.3      2.009      2.505
REMARK  Name = 
REMARK  7 active torsions:
REMARK  status: ('A' for Active; 'I' for Inactive)
REMARK    1  A    between atoms: C_1  and  C_2
REMARK    2  A    between atoms: C_2  and  C_3
REMARK    3  A    between atoms: C_5  and  C_6
REMARK    4  A    between atoms: C_9  and  C_10
REMARK    5  A    between atoms: C_11  and  S_12
REMARK    6  A    between atoms: S_12  and  N_15
REMARK    7  A    between atoms: C_18  and  C_19
REMARK                            x       y       z     vdW  Elec       q    Type
REMARK                         _______ _______ _______ _____ _____    ______ ____
ROOT
ATOM      1  S   UNL     1       0.349   9.801  21.432  0.00  0.00    +0.000 S 
ATOM      2  O   UNL     1      -0.683   8.833  21.772  0.00  0.00    +0.000 OA
ATOM      3  O   UNL     1       1.378  10.122  22.402  0.00  0.00    +0.000 OA
ENDROOT
BRANCH   1   9
ATOM      4  C   UNL     1       2.354   7.292  18.943  0.00  0.00    +0.000 A 
ATOM      5  C   UNL     1       2.660   8.087  17.836  0.00  0.00    +0.000 A 
ATOM      6  C   UNL     1       2.229   9.407  17.774  0.00  0.00    +0.000 A 
ATOM      7  C   UNL     1       1.477   9.986  18.816  0.00  0.00    +0.000 A 
ATOM      8  C   UNL     1       1.118  11.433  18.643  0.00  0.00    +0.000 C 
ATOM      9  C   UNL     1       1.148   9.184  19.933  0.00  0.00    +0.000 A 
ATOM     10  C   UNL     1       1.610   7.851  19.990  0.00  0.00    +0.000 A 
BRANCH   4  13
ATOM     11  C   UNL     1       3.161   3.983  19.727  0.00  0.00    +0.000 A 
ATOM     12  N   UNL     1       2.610   5.125  20.083  0.00  0.00    +0.000 NA
ATOM     13  C   UNL     1       2.833   5.919  18.979  0.00  0.00    +0.000 A 
ATOM     14  N   UNL     1       3.515   5.313  17.993  0.00  0.00    +0.000 NA
ATOM     15  O   UNL     1       3.729   4.025  18.485  0.00  0.00    +0.000 OA
BRANCH  11  17
ATOM     16  C   UNL     1       2.145   2.711  21.567  0.00  0.00    +0.000 C 
ATOM     17  C   UNL     1       3.185   2.706  20.457  0.00  0.00    +0.000 C 
ENDBRANCH  11  17
ENDBRANCH   4  13
ENDBRANCH   1   9
BRANCH   1  18
ATOM     18  N   UNL     1      -0.459  11.250  21.000  0.00  0.00    +0.000 NA
ATOM     19  C   UNL     1      -1.742  11.078  20.307  0.00  0.00    +0.000 C 
ATOM     20  C   UNL     1      -2.445  12.374  19.953  0.00  0.00    +0.000 C 
ATOM     21  C   UNL     1      -2.469  13.422  21.061  0.00  0.00    +0.000 C 
ATOM     22  C   UNL     1      -1.038  13.675  21.521  0.00  0.00    +0.000 C 
ATOM     23  C   UNL     1      -0.209  12.432  21.842  0.00  0.00    +0.000 C 
BRANCH  21  24
ATOM     24  C   UNL     1      -3.432  13.133  22.225  0.00  0.00    +0.000 C 
ATOM     25  O   UNL     1      -3.375  12.060  22.820  0.00  0.00    +0.000 OA
ATOM     26  N   UNL     1      -4.359  14.132  22.571  0.00  0.00    +0.000 N 
ATOM     27  C   UNL     1      -5.167  13.942  23.784  0.00  0.00    +0.000 C 
ATOM     28  C   UNL     1      -6.571  14.547  23.678  0.00  0.00    +0.000 C 
ATOM     29  C   UNL     1      -6.548  15.983  23.164  0.00  0.00    +0.000 C 
ATOM     30  C   UNL     1      -5.774  16.054  21.859  0.00  0.00    +0.000 C 
ATOM     31  C   UNL     1      -4.357  15.502  22.041  0.00  0.00    +0.000 C 
ENDBRANCH  21  24
ENDBRANCH   1  18
TORSDOF 5
ENDMDL
