MODEL 1
REMARK VINA RESULT:      -8.0      0.000      0.000
REMARK  Name = 
REMARK  4 active torsions:
REMARK  status: ('A' for Active; 'I' for Inactive)
REMARK    1  A    between atoms: C_1  and  O_2
REMARK    2  A    between atoms: O_2  and  C_3
REMARK    3  A    between atoms: C_5  and  C_6
REMARK    4  A    between atoms: C_25  and  O_26
REMARK                            x       y       z     vdW  Elec       q    Type
REMARK                         _______ _______ _______ _____ _____    ______ ____
ROOT
ATOM      1  C   UNL     1       2.627   5.979  18.311  0.00  0.00    +0.000 C 
ATOM      2  C   UNL     1       2.133   7.233  18.939  0.00  0.00    +0.000 C 
ATOM      3  C   UNL     1       1.789   7.344  20.216  0.00  0.00    +0.000 C 
ATOM      4  C   UNL     1       1.429   8.739  20.538  0.00  0.00    +0.000 C 
ATOM      5  O   UNL     1       1.573   9.426  19.289  0.00  0.00    +0.000 OA
ATOM      6  C   UNL     1       1.973   8.541  18.328  0.00  0.00    +0.000 C 
ATOM      7  O   UNL     1       2.141   8.802  17.151  0.00  0.00    +0.000 OA
ATOM      8  N   UNL     1       1.816   6.289  21.085  0.00  0.00    +0.000 N 
ATOM      9  C   UNL     1       2.142   4.987  20.638  0.00  0.00    +0.000 A 
ATOM     10  C   UNL     1       2.118   3.921  21.544  0.00  0.00    +0.000 A 
ATOM     11  C   UNL     1       2.456   2.622  21.145  0.00  0.00    +0.000 A 
ATOM     12  C   UNL     1       2.820   2.394  19.808  0.00  0.00    +0.000 A 
ATOM     13  C   UNL     1       3.222   1.275  19.045  0.00  0.00    +0.000 A 
ATOM     14  N   UNL     1       3.474   1.585  17.771  0.00  0.00    +0.000 NA
ATOM     15  N   UNL     1       3.262   2.911  17.727  0.00  0.00    +0.000 N 
ATOM     16  C   UNL     1       2.846   3.458  18.916  0.00  0.00    +0.000 A 
ATOM     17  C   UNL     1       2.529   4.784  19.279  0.00  0.00    +0.000 A 
ATOM     18  H   UNL     1       1.493   6.411  22.037  0.00  0.00    +0.000 HD
ATOM     19  H   UNL     1       3.427   3.391  16.851  0.00  0.00    +0.000 HD
ENDROOT
BRANCH   1  22
ATOM     20  C   UNL     1       5.679   6.061  15.973  0.00  0.00    +0.000 A 
ATOM     21  C   UNL     1       4.369   5.950  16.454  0.00  0.00    +0.000 A 
ATOM     22  C   UNL     1       4.057   6.157  17.810  0.00  0.00    +0.000 A 
ATOM     23  C   UNL     1       5.088   6.502  18.691  0.00  0.00    +0.000 A 
ATOM     24  C   UNL     1       6.395   6.637  18.220  0.00  0.00    +0.000 A 
ATOM     25  C   UNL     1       6.690   6.411  16.869  0.00  0.00    +0.000 A 
BRANCH  20  27
ATOM     26  C   UNL     1       6.139   4.479  14.241  0.00  0.00    +0.000 C 
ATOM     27  O   UNL     1       5.770   5.792  14.634  0.00  0.00    +0.000 OA
ENDBRANCH  20  27
BRANCH  25  28
ATOM     28  O   UNL     1       7.991   6.539  16.465  0.00  0.00    +0.000 OA
ATOM     29  H   UNL     1       8.331   5.668  16.204  0.00  0.00    +0.000 HD
ENDBRANCH  25  28
ENDBRANCH   1  22
TORSDOF 3
ENDMDL
MODEL 2
REMARK VINA RESULT:      -7.8      2.696      5.661
REMARK  Name = 
REMARK  4 active torsions:
REMARK  status: ('A' for Active; 'I' for Inactive)
REMARK    1  A    between atoms: C_1  and  O_2
REMARK    2  A    between atoms: O_2  and  C_3
REMARK    3  A    between atoms: C_5  and  C_6
REMARK    4  A    between atoms: C_25  and  O_26
REMARK                            x       y       z     vdW  Elec       q    Type
REMARK                         _______ _______ _______ _____ _____    ______ ____
ROOT
ATOM      1  C   UNL     1       3.778   5.429  17.654  0.00  0.00    +0.000 C 
ATOM      2  C   UNL     1       3.193   4.100  17.974  0.00  0.00    +0.000 C 
ATOM      3  C   UNL     1       3.837   3.137  18.623  0.00  0.00    +0.000 C 
ATOM      4  C   UNL     1       2.946   1.983  18.856  0.00  0.00    +0.000 C 
ATOM      5  O   UNL     1       1.712   2.373  18.240  0.00  0.00    +0.000 OA
ATOM      6  C   UNL     1       1.850   3.619  17.698  0.00  0.00    +0.000 C 
ATOM      7  O   UNL     1       0.998   4.215  17.066  0.00  0.00    +0.000 OA
ATOM      8  N   UNL     1       5.136   3.258  19.029  0.00  0.00    +0.000 N 
ATOM      9  C   UNL     1       5.896   4.406  18.705  0.00  0.00    +0.000 A 
ATOM     10  C   UNL     1       7.236   4.480  19.099  0.00  0.00    +0.000 A 
ATOM     11  C   UNL     1       8.015   5.608  18.815  0.00  0.00    +0.000 A 
ATOM     12  C   UNL     1       7.432   6.679  18.118  0.00  0.00    +0.000 A 
ATOM     13  C   UNL     1       7.862   7.947  17.666  0.00  0.00    +0.000 A 
ATOM     14  N   UNL     1       6.898   8.623  17.037  0.00  0.00    +0.000 NA
ATOM     15  N   UNL     1       5.840   7.797  17.113  0.00  0.00    +0.000 N 
ATOM     16  C   UNL     1       6.100   6.601  17.733  0.00  0.00    +0.000 A 
ATOM     17  C   UNL     1       5.275   5.490  18.013  0.00  0.00    +0.000 A 
ATOM     18  H   UNL     1       5.600   2.475  19.472  0.00  0.00    +0.000 HD
ATOM     19  H   UNL     1       4.960   8.115  16.726  0.00  0.00    +0.000 HD
ENDROOT
BRANCH   1  22
ATOM     20  C   UNL     1       2.013   8.782  18.307  0.00  0.00    +0.000 A 
ATOM     21  C   UNL     1       2.682   7.728  17.676  0.00  0.00    +0.000 A 
ATOM     22  C   UNL     1       3.005   6.539  18.358  0.00  0.00    +0.000 A 
ATOM     23  C   UNL     1       2.625   6.412  19.698  0.00  0.00    +0.000 A 
ATOM     24  C   UNL     1       1.939   7.447  20.334  0.00  0.00    +0.000 A 
ATOM     25  C   UNL     1       1.641   8.630  19.644  0.00  0.00    +0.000 A 
BRANCH  20  27
ATOM     26  C   UNL     1       2.320  11.116  17.892  0.00  0.00    +0.000 C 
ATOM     27  O   UNL     1       1.822   9.853  17.477  0.00  0.00    +0.000 OA
ENDBRANCH  20  27
BRANCH  25  28
ATOM     28  O   UNL     1       0.983   9.621  20.321  0.00  0.00    +0.000 OA
ATOM     29  H   UNL     1       1.617  10.313  20.568  0.00  0.00    +0.000 HD
ENDBRANCH  25  28
ENDBRANCH   1  22
TORSDOF 3
ENDMDL
MODEL 3
REMARK VINA RESULT:      -7.8      2.669      5.785
REMARK  Name = 
REMARK  4 active torsions:
REMARK  status: ('A' for Active; 'I' for Inactive)
REMARK    1  A    between atoms: C_1  and  O_2
REMARK    2  A    between atoms: O_2  and  C_3
REMARK    3  A    between atoms: C_5  and  C_6
REMARK    4  A    between atoms: C_25  and  O_26
REMARK                            x       y       z     vdW  Elec       q    Type
REMARK                         _______ _______ _______ _____ _____    ______ ____
ROOT
ATOM      1  C   UNL     1       3.720   5.503  17.734  0.00  0.00    +0.000 C 
ATOM      2  C   UNL     1       3.042   4.263  18.195  0.00  0.00    +0.000 C 
ATOM      3  C   UNL     1       3.585   3.378  19.022  0.00  0.00    +0.000 C 
ATOM      4  C   UNL     1       2.619   2.311  19.349  0.00  0.00    +0.000 C 
ATOM      5  O   UNL     1       1.454   2.661  18.591  0.00  0.00    +0.000 OA
ATOM      6  C   UNL     1       1.697   3.807  17.888  0.00  0.00    +0.000 C 
ATOM      7  O   UNL     1       0.925   4.340  17.114  0.00  0.00    +0.000 OA
ATOM      8  N   UNL     1       4.858   3.499  19.505  0.00  0.00    +0.000 N 
ATOM      9  C   UNL     1       5.700   4.552  19.079  0.00  0.00    +0.000 A 
ATOM     10  C   UNL     1       7.012   4.624  19.560  0.00  0.00    +0.000 A 
ATOM     11  C   UNL     1       7.870   5.663  19.178  0.00  0.00    +0.000 A 
ATOM     12  C   UNL     1       7.396   6.645  18.293  0.00  0.00    +0.000 A 
ATOM     13  C   UNL     1       7.925   7.813  17.699  0.00  0.00    +0.000 A 
ATOM     14  N   UNL     1       7.046   8.431  16.908  0.00  0.00    +0.000 NA
ATOM     15  N   UNL     1       5.941   7.673  17.020  0.00  0.00    +0.000 N 
ATOM     16  C   UNL     1       6.091   6.570  17.823  0.00  0.00    +0.000 A 
ATOM     17  C   UNL     1       5.190   5.550  18.195  0.00  0.00    +0.000 A 
ATOM     18  H   UNL     1       5.247   2.770  20.090  0.00  0.00    +0.000 HD
ATOM     19  H   UNL     1       5.109   7.969  16.525  0.00  0.00    +0.000 HD
ENDROOT
BRANCH   1  22
ATOM     20  C   UNL     1       1.761   7.924  19.991  0.00  0.00    +0.000 A 
ATOM     21  C   UNL     1       2.498   6.825  19.536  0.00  0.00    +0.000 A 
ATOM     22  C   UNL     1       2.962   6.738  18.210  0.00  0.00    +0.000 A 
ATOM     23  C   UNL     1       2.689   7.795  17.335  0.00  0.00    +0.000 A 
ATOM     24  C   UNL     1       1.973   8.906  17.780  0.00  0.00    +0.000 A 
ATOM     25  C   UNL     1       1.505   8.967  19.100  0.00  0.00    +0.000 A 
BRANCH  20  27
ATOM     26  C   UNL     1       1.376   8.963  22.109  0.00  0.00    +0.000 C 
ATOM     27  O   UNL     1       1.383   7.797  21.300  0.00  0.00    +0.000 OA
ENDBRANCH  20  27
BRANCH  25  28
ATOM     28  O   UNL     1       0.792  10.073  19.478  0.00  0.00    +0.000 OA
ATOM     29  H   UNL     1       0.491   9.959  20.394  0.00  0.00    +0.000 HD
ENDBRANCH  25  28
ENDBRANCH   1  22
TORSDOF 3
ENDMDL
MODEL 4
REMARK VINA RESULT:      -7.8      0.842      1.713
REMARK  Name = 
REMARK  4 active torsions:
REMARK  status: ('A' for Active; 'I' for Inactive)
REMARK    1  A    between atoms: C_1  and  O_2
REMARK    2  A    between atoms: O_2  and  C_3
REMARK    3  A    between atoms: C_5  and  C_6
REMARK    4  A    between atoms: C_25  and  O_26
REMARK                            x       y       z     vdW  Elec       q    Type
REMARK                         _______ _______ _______ _____ _____    ______ ____
ROOT
ATOM      1  C   UNL     1       2.592   6.063  18.296  0.00  0.00    +0.000 C 
ATOM      2  C   UNL     1       2.116   7.309  18.954  0.00  0.00    +0.000 C 
ATOM      3  C   UNL     1       1.791   7.397  20.238  0.00  0.00    +0.000 C 
ATOM      4  C   UNL     1       1.445   8.788  20.592  0.00  0.00    +0.000 C 
ATOM      5  O   UNL     1       1.578   9.498  19.354  0.00  0.00    +0.000 OA
ATOM      6  C   UNL     1       1.959   8.630  18.371  0.00  0.00    +0.000 C 
ATOM      7  O   UNL     1       2.113   8.912  17.198  0.00  0.00    +0.000 OA
ATOM      8  N   UNL     1       1.821   6.325  21.085  0.00  0.00    +0.000 N 
ATOM      9  C   UNL     1       2.131   5.030  20.609  0.00  0.00    +0.000 A 
ATOM     10  C   UNL     1       2.112   3.946  21.494  0.00  0.00    +0.000 A 
ATOM     11  C   UNL     1       2.434   2.653  21.065  0.00  0.00    +0.000 A 
ATOM     12  C   UNL     1       2.778   2.448  19.719  0.00  0.00    +0.000 A 
ATOM     13  C   UNL     1       3.161   1.342  18.929  0.00  0.00    +0.000 A 
ATOM     14  N   UNL     1       3.399   1.674  17.658  0.00  0.00    +0.000 NA
ATOM     15  N   UNL     1       3.196   3.003  17.643  0.00  0.00    +0.000 N 
ATOM     16  C   UNL     1       2.800   3.529  18.847  0.00  0.00    +0.000 A 
ATOM     17  C   UNL     1       2.499   4.850  19.241  0.00  0.00    +0.000 A 
ATOM     18  H   UNL     1       1.512   6.431  22.044  0.00  0.00    +0.000 HD
ATOM     19  H   UNL     1       3.353   3.499  16.774  0.00  0.00    +0.000 HD
ENDROOT
BRANCH   1  22
ATOM     20  C   UNL     1       6.428   6.339  18.220  0.00  0.00    +0.000 A 
ATOM     21  C   UNL     1       5.113   6.137  18.655  0.00  0.00    +0.000 A 
ATOM     22  C   UNL     1       4.017   6.241  17.779  0.00  0.00    +0.000 A 
ATOM     23  C   UNL     1       4.260   6.534  16.433  0.00  0.00    +0.000 A 
ATOM     24  C   UNL     1       5.568   6.718  15.981  0.00  0.00    +0.000 A 
ATOM     25  C   UNL     1       6.646   6.627  16.872  0.00  0.00    +0.000 A 
BRANCH  20  27
ATOM     26  C   UNL     1       8.206   5.098  19.226  0.00  0.00    +0.000 C 
ATOM     27  O   UNL     1       7.339   6.222  19.235  0.00  0.00    +0.000 OA
ENDBRANCH  20  27
BRANCH  25  28
ATOM     28  O   UNL     1       7.906   6.834  16.380  0.00  0.00    +0.000 OA
ATOM     29  H   UNL     1       7.855   7.429  15.615  0.00  0.00    +0.000 HD
ENDBRANCH  25  28
ENDBRANCH   1  22
TORSDOF 3
ENDMDL
MODEL 5
REMARK VINA RESULT:      -7.4      1.447      5.129
REMARK  Name = 
REMARK  4 active torsions:
REMARK  status: ('A' for Active; 'I' for Inactive)
REMARK    1  A    between atoms: C_1  and  O_2
REMARK    2  A    between atoms: O_2  and  C_3
REMARK    3  A    between atoms: C_5  and  C_6
REMARK    4  A    between atoms: C_25  and  O_26
REMARK                            x       y       z     vdW  Elec       q    Type
REMARK                         _______ _______ _______ _____ _____    ______ ____
ROOT
ATOM      1  C   UNL     1       4.698   5.374  18.753  0.00  0.00    +0.000 C 
ATOM      2  C   UNL     1       5.672   5.442  17.633  0.00  0.00    +0.000 C 
ATOM      3  C   UNL     1       5.789   4.517  16.688  0.00  0.00    +0.000 C 
ATOM      4  C   UNL     1       6.784   4.929  15.678  0.00  0.00    +0.000 C 
ATOM      5  O   UNL     1       7.258   6.192  16.161  0.00  0.00    +0.000 OA
ATOM      6  C   UNL     1       6.620   6.500  17.328  0.00  0.00    +0.000 C 
ATOM      7  O   UNL     1       6.830   7.484  18.012  0.00  0.00    +0.000 OA
ATOM      8  N   UNL     1       5.043   3.372  16.675  0.00  0.00    +0.000 N 
ATOM      9  C   UNL     1       4.148   3.076  17.729  0.00  0.00    +0.000 A 
ATOM     10  C   UNL     1       3.431   1.874  17.708  0.00  0.00    +0.000 A 
ATOM     11  C   UNL     1       2.520   1.555  18.723  0.00  0.00    +0.000 A 
ATOM     12  C   UNL     1       2.333   2.461  19.779  0.00  0.00    +0.000 A 
ATOM     13  C   UNL     1       1.531   2.510  20.942  0.00  0.00    +0.000 A 
ATOM     14  N   UNL     1       1.716   3.627  21.648  0.00  0.00    +0.000 NA
ATOM     15  N   UNL     1       2.617   4.308  20.919  0.00  0.00    +0.000 N 
ATOM     16  C   UNL     1       3.046   3.653  19.792  0.00  0.00    +0.000 A 
ATOM     17  C   UNL     1       3.960   4.022  18.782  0.00  0.00    +0.000 A 
ATOM     18  H   UNL     1       5.207   2.671  15.963  0.00  0.00    +0.000 HD
ATOM     19  H   UNL     1       2.895   5.226  21.244  0.00  0.00    +0.000 HD
ENDROOT
BRANCH   1  22
ATOM     20  C   UNL     1       1.913   7.852  19.702  0.00  0.00    +0.000 A 
ATOM     21  C   UNL     1       2.863   6.826  19.761  0.00  0.00    +0.000 A 
ATOM     22  C   UNL     1       3.707   6.531  18.674  0.00  0.00    +0.000 A 
ATOM     23  C   UNL     1       3.599   7.305  17.513  0.00  0.00    +0.000 A 
ATOM     24  C   UNL     1       2.670   8.344  17.448  0.00  0.00    +0.000 A 
ATOM     25  C   UNL     1       1.827   8.612  18.535  0.00  0.00    +0.000 A 
BRANCH  20  27
ATOM     26  C   UNL     1       1.459   9.031  21.731  0.00  0.00    +0.000 C 
ATOM     27  O   UNL     1       1.178   7.952  20.852  0.00  0.00    +0.000 OA
ENDBRANCH  20  27
BRANCH  25  28
ATOM     28  O   UNL     1       0.922   9.632  18.411  0.00  0.00    +0.000 OA
ATOM     29  H   UNL     1       0.905   9.932  17.488  0.00  0.00    +0.000 HD
ENDBRANCH  25  28
ENDBRANCH   1  22
TORSDOF 3
ENDMDL
MODEL 6
REMARK VINA RESULT:      -6.9      5.447      8.360
REMARK  Name = 
REMARK  4 active torsions:
REMARK  status: ('A' for Active; 'I' for Inactive)
REMARK    1  A    between atoms: C_1  and  O_2
REMARK    2  A    between atoms: O_2  and  C_3
REMARK    3  A    between atoms: C_5  and  C_6
REMARK    4  A    between atoms: C_25  and  O_26
REMARK                            x       y       z     vdW  Elec       q    Type
REMARK                         _______ _______ _______ _____ _____    ______ ____
ROOT
ATOM      1  C   UNL     1      -0.118  12.256  19.291  0.00  0.00    +0.000 C 
ATOM      2  C   UNL     1       0.208  13.146  20.436  0.00  0.00    +0.000 C 
ATOM      3  C   UNL     1      -0.696  13.674  21.252  0.00  0.00    +0.000 C 
ATOM      4  C   UNL     1      -0.039  14.435  22.333  0.00  0.00    +0.000 C 
ATOM      5  O   UNL     1       1.357  14.314  22.035  0.00  0.00    +0.000 OA
ATOM      6  C   UNL     1       1.517  13.568  20.903  0.00  0.00    +0.000 C 
ATOM      7  O   UNL     1       2.578  13.320  20.362  0.00  0.00    +0.000 OA
ATOM      8  N   UNL     1      -2.040  13.482  21.092  0.00  0.00    +0.000 N 
ATOM      9  C   UNL     1      -2.546  12.763  19.985  0.00  0.00    +0.000 A 
ATOM     10  C   UNL     1      -3.929  12.621  19.827  0.00  0.00    +0.000 A 
ATOM     11  C   UNL     1      -4.467  11.898  18.755  0.00  0.00    +0.000 A 
ATOM     12  C   UNL     1      -3.595  11.312  17.824  0.00  0.00    +0.000 A 
ATOM     13  C   UNL     1      -3.737  10.527  16.658  0.00  0.00    +0.000 A 
ATOM     14  N   UNL     1      -2.564  10.200  16.111  0.00  0.00    +0.000 NA
ATOM     15  N   UNL     1      -1.668  10.752  16.948  0.00  0.00    +0.000 N 
ATOM     16  C   UNL     1      -2.223  11.453  17.989  0.00  0.00    +0.000 A 
ATOM     17  C   UNL     1      -1.639  12.158  19.063  0.00  0.00    +0.000 A 
ATOM     18  H   UNL     1      -2.693  13.950  21.709  0.00  0.00    +0.000 HD
ATOM     19  H   UNL     1      -0.685  10.605  16.756  0.00  0.00    +0.000 HD
ENDROOT
BRANCH   1  22
ATOM     20  C   UNL     1       0.892   8.936  20.949  0.00  0.00    +0.000 A 
ATOM     21  C   UNL     1       0.309  10.186  20.713  0.00  0.00    +0.000 A 
ATOM     22  C   UNL     1       0.490  10.872  19.497  0.00  0.00    +0.000 A 
ATOM     23  C   UNL     1       1.259  10.270  18.496  0.00  0.00    +0.000 A 
ATOM     24  C   UNL     1       1.829   9.014  18.710  0.00  0.00    +0.000 A 
ATOM     25  C   UNL     1       1.652   8.354  19.933  0.00  0.00    +0.000 A 
BRANCH  20  27
ATOM     26  C   UNL     1       0.158   9.378  23.180  0.00  0.00    +0.000 C 
ATOM     27  O   UNL     1       0.617   8.458  22.201  0.00  0.00    +0.000 OA
ENDBRANCH  20  27
BRANCH  25  28
ATOM     28  O   UNL     1       2.248   7.133  20.097  0.00  0.00    +0.000 OA
ATOM     29  H   UNL     1       2.815   6.950  19.330  0.00  0.00    +0.000 HD
ENDBRANCH  25  28
ENDBRANCH   1  22
TORSDOF 3
ENDMDL
MODEL 7
REMARK VINA RESULT:      -6.8      7.607     10.735
REMARK  Name = 
REMARK  4 active torsions:
REMARK  status: ('A' for Active; 'I' for Inactive)
REMARK    1  A    between atoms: C_1  and  O_2
REMARK    2  A    between atoms: O_2  and  C_3
REMARK    3  A    between atoms: C_5  and  C_6
REMARK    4  A    between atoms: C_25  and  O_26
REMARK                            x       y       z     vdW  Elec       q    Type
REMARK                         _______ _______ _______ _____ _____    ______ ____
ROOT
ATOM      1  C   UNL     1      -2.541  13.700  22.361  0.00  0.00    +0.000 C 
ATOM      2  C   UNL     1      -2.087  14.419  23.581  0.00  0.00    +0.000 C 
ATOM      3  C   UNL     1      -2.846  14.630  24.648  0.00  0.00    +0.000 C 
ATOM      4  C   UNL     1      -2.069  15.292  25.716  0.00  0.00    +0.000 C 
ATOM      5  O   UNL     1      -0.772  15.470  25.134  0.00  0.00    +0.000 OA
ATOM      6  C   UNL     1      -0.773  14.973  23.861  0.00  0.00    +0.000 C 
ATOM      7  O   UNL     1       0.162  15.012  23.085  0.00  0.00    +0.000 OA
ATOM      8  N   UNL     1      -4.154  14.239  24.717  0.00  0.00    +0.000 N 
ATOM      9  C   UNL     1      -4.795  13.649  23.604  0.00  0.00    +0.000 A 
ATOM     10  C   UNL     1      -6.147  13.298  23.693  0.00  0.00    +0.000 A 
ATOM     11  C   UNL     1      -6.812  12.692  22.619  0.00  0.00    +0.000 A 
ATOM     12  C   UNL     1      -6.101  12.439  21.435  0.00  0.00    +0.000 A 
ATOM     13  C   UNL     1      -6.396  11.858  20.181  0.00  0.00    +0.000 A 
ATOM     14  N   UNL     1      -5.344  11.840  19.361  0.00  0.00    +0.000 NA
ATOM     15  N   UNL     1      -4.364  12.384  20.104  0.00  0.00    +0.000 N 
ATOM     16  C   UNL     1      -4.758  12.785  21.356  0.00  0.00    +0.000 A 
ATOM     17  C   UNL     1      -4.047  13.381  22.418  0.00  0.00    +0.000 A 
ATOM     18  H   UNL     1      -4.707  14.471  25.533  0.00  0.00    +0.000 HD
ATOM     19  H   UNL     1      -3.438  12.446  19.697  0.00  0.00    +0.000 HD
ENDROOT
BRANCH   1  22
ATOM     20  C   UNL     1      -0.332  11.026  20.699  0.00  0.00    +0.000 A 
ATOM     21  C   UNL     1      -1.052  12.202  20.937  0.00  0.00    +0.000 A 
ATOM     22  C   UNL     1      -1.723  12.429  22.152  0.00  0.00    +0.000 A 
ATOM     23  C   UNL     1      -1.647  11.453  23.152  0.00  0.00    +0.000 A 
ATOM     24  C   UNL     1      -0.915  10.285  22.936  0.00  0.00    +0.000 A 
ATOM     25  C   UNL     1      -0.267  10.069  21.713  0.00  0.00    +0.000 A 
BRANCH  20  27
ATOM     26  C   UNL     1      -0.505  10.338  18.416  0.00  0.00    +0.000 C 
ATOM     27  O   UNL     1       0.219  10.993  19.446  0.00  0.00    +0.000 OA
ENDBRANCH  20  27
BRANCH  25  28
ATOM     28  O   UNL     1       0.421   8.898  21.548  0.00  0.00    +0.000 OA
ATOM     29  H   UNL     1       1.175   8.883  22.159  0.00  0.00    +0.000 HD
ENDBRANCH  25  28
ENDBRANCH   1  22
TORSDOF 3
ENDMDL
MODEL 8
REMARK VINA RESULT:      -6.7      5.014      8.055
REMARK  Name = 
REMARK  4 active torsions:
REMARK  status: ('A' for Active; 'I' for Inactive)
REMARK    1  A    between atoms: C_1  and  O_2
REMARK    2  A    between atoms: O_2  and  C_3
REMARK    3  A    between atoms: C_5  and  C_6
REMARK    4  A    between atoms: C_25  and  O_26
REMARK                            x       y       z     vdW  Elec       q    Type
REMARK                         _______ _______ _______ _____ _____    ______ ____
ROOT
ATOM      1  C   UNL     1      -0.363  12.015  19.731  0.00  0.00    +0.000 C 
ATOM      2  C   UNL     1      -0.208  13.013  20.822  0.00  0.00    +0.000 C 
ATOM      3  C   UNL     1      -1.221  13.633  21.416  0.00  0.00    +0.000 C 
ATOM      4  C   UNL     1      -0.733  14.491  22.514  0.00  0.00    +0.000 C 
ATOM      5  O   UNL     1       0.689  14.323  22.473  0.00  0.00    +0.000 OA
ATOM      6  C   UNL     1       1.015  13.463  21.463  0.00  0.00    +0.000 C 
ATOM      7  O   UNL     1       2.145  13.148  21.138  0.00  0.00    +0.000 OA
ATOM      8  N   UNL     1      -2.524  13.443  21.049  0.00  0.00    +0.000 N 
ATOM      9  C   UNL     1      -2.856  12.622  19.947  0.00  0.00    +0.000 A 
ATOM     10  C   UNL     1      -4.197  12.482  19.570  0.00  0.00    +0.000 A 
ATOM     11  C   UNL     1      -4.568  11.661  18.498  0.00  0.00    +0.000 A 
ATOM     12  C   UNL     1      -3.569  10.972  17.792  0.00  0.00    +0.000 A 
ATOM     13  C   UNL     1      -3.535  10.074  16.701  0.00  0.00    +0.000 A 
ATOM     14  N   UNL     1      -2.298   9.678  16.398  0.00  0.00    +0.000 NA
ATOM     15  N   UNL     1      -1.539  10.300  17.317  0.00  0.00    +0.000 N 
ATOM     16  C   UNL     1      -2.241  11.111  18.174  0.00  0.00    +0.000 A 
ATOM     17  C   UNL     1      -1.825  11.914  19.257  0.00  0.00    +0.000 A 
ATOM     18  H   UNL     1      -3.257  13.980  21.496  0.00  0.00    +0.000 HD
ATOM     19  H   UNL     1      -0.543  10.122  17.311  0.00  0.00    +0.000 HD
ENDROOT
BRANCH   1  22
ATOM     20  C   UNL     1       1.555   8.681  19.738  0.00  0.00    +0.000 A 
ATOM     21  C   UNL     1       1.091   9.953  19.382  0.00  0.00    +0.000 A 
ATOM     22  C   UNL     1       0.160  10.652  20.173  0.00  0.00    +0.000 A 
ATOM     23  C   UNL     1      -0.293  10.059  21.357  0.00  0.00    +0.000 A 
ATOM     24  C   UNL     1       0.177   8.800  21.734  0.00  0.00    +0.000 A 
ATOM     25  C   UNL     1       1.091   8.112  20.925  0.00  0.00    +0.000 A 
BRANCH  20  27
ATOM     26  C   UNL     1       2.291   8.572  17.467  0.00  0.00    +0.000 C 
ATOM     27  O   UNL     1       2.430   8.167  18.820  0.00  0.00    +0.000 OA
ENDBRANCH  20  27
BRANCH  25  28
ATOM     28  O   UNL     1       1.506   6.873  21.334  0.00  0.00    +0.000 OA
ATOM     29  H   UNL     1       1.555   6.284  20.564  0.00  0.00    +0.000 HD
ENDBRANCH  25  28
ENDBRANCH   1  22
TORSDOF 3
ENDMDL
MODEL 9
REMARK VINA RESULT:      -6.7      6.235     10.296
REMARK  Name = 
REMARK  4 active torsions:
REMARK  status: ('A' for Active; 'I' for Inactive)
REMARK    1  A    between atoms: C_1  and  O_2
REMARK    2  A    between atoms: O_2  and  C_3
REMARK    3  A    between atoms: C_5  and  C_6
REMARK    4  A    between atoms: C_25  and  O_26
REMARK                            x       y       z     vdW  Elec       q    Type
REMARK                         _______ _______ _______ _____ _____    ______ ____
ROOT
ATOM      1  C   UNL     1      -1.695  11.495  19.603  0.00  0.00    +0.000 C 
ATOM      2  C   UNL     1      -0.434  10.708  19.625  0.00  0.00    +0.000 C 
ATOM      3  C   UNL     1       0.004   9.970  18.613  0.00  0.00    +0.000 C 
ATOM      4  C   UNL     1       1.326   9.391  18.925  0.00  0.00    +0.000 C 
ATOM      5  O   UNL     1       1.596   9.854  20.254  0.00  0.00    +0.000 OA
ATOM      6  C   UNL     1       0.553  10.622  20.688  0.00  0.00    +0.000 C 
ATOM      7  O   UNL     1       0.456  11.126  21.791  0.00  0.00    +0.000 OA
ATOM      8  N   UNL     1      -0.694   9.825  17.446  0.00  0.00    +0.000 N 
ATOM      9  C   UNL     1      -1.975  10.401  17.288  0.00  0.00    +0.000 A 
ATOM     10  C   UNL     1      -2.681  10.197  16.097  0.00  0.00    +0.000 A 
ATOM     11  C   UNL     1      -3.944  10.769  15.895  0.00  0.00    +0.000 A 
ATOM     12  C   UNL     1      -4.504  11.557  16.913  0.00  0.00    +0.000 A 
ATOM     13  C   UNL     1      -5.701  12.288  17.086  0.00  0.00    +0.000 A 
ATOM     14  N   UNL     1      -5.767  12.897  18.271  0.00  0.00    +0.000 NA
ATOM     15  N   UNL     1      -4.594  12.580  18.847  0.00  0.00    +0.000 N 
ATOM     16  C   UNL     1      -3.796  11.759  18.091  0.00  0.00    +0.000 A 
ATOM     17  C   UNL     1      -2.515  11.215  18.329  0.00  0.00    +0.000 A 
ATOM     18  H   UNL     1      -0.344   9.207  16.724  0.00  0.00    +0.000 HD
ATOM     19  H   UNL     1      -4.394  12.966  19.762  0.00  0.00    +0.000 HD
ENDROOT
BRANCH   1  22
ATOM     20  C   UNL     1      -1.740  15.106  20.928  0.00  0.00    +0.000 A 
ATOM     21  C   UNL     1      -1.956  13.729  20.799  0.00  0.00    +0.000 A 
ATOM     22  C   UNL     1      -1.399  12.986  19.742  0.00  0.00    +0.000 A 
ATOM     23  C   UNL     1      -0.593  13.648  18.809  0.00  0.00    +0.000 A 
ATOM     24  C   UNL     1      -0.353  15.016  18.937  0.00  0.00    +0.000 A 
ATOM     25  C   UNL     1      -0.929  15.743  19.987  0.00  0.00    +0.000 A 
BRANCH  20  27
ATOM     26  C   UNL     1      -3.714  15.196  22.272  0.00  0.00    +0.000 C 
ATOM     27  O   UNL     1      -2.393  15.640  22.005  0.00  0.00    +0.000 OA
ENDBRANCH  20  27
BRANCH  25  28
ATOM     28  O   UNL     1      -0.675  17.086  20.055  0.00  0.00    +0.000 OA
ATOM     29  H   UNL     1      -0.323  17.387  19.202  0.00  0.00    +0.000 HD
ENDBRANCH  25  28
ENDBRANCH   1  22
TORSDOF 3
ENDMDL
