MODEL 1
REMARK VINA RESULT:      -7.7      0.000      0.000
REMARK  Name = 
REMARK  3 active torsions:
REMARK  status: ('A' for Active; 'I' for Inactive)
REMARK    1  A    between atoms: C_1  and  O_2
REMARK    2  A    between atoms: O_2  and  C_3
REMARK    3  A    between atoms: N_12  and  C_13
REMARK                            x       y       z     vdW  Elec       q    Type
REMARK                         _______ _______ _______ _____ _____    ______ ____
ROOT
ATOM      1  C   UNL     1       6.113   4.352  15.627  0.00  0.00    +0.000 A 
ATOM      2  C   UNL     1       6.829   5.363  16.315  0.00  0.00    +0.000 A 
ATOM      3  C   UNL     1       6.279   5.971  17.427  0.00  0.00    +0.000 A 
ATOM      4  C   UNL     1       5.066   5.503  17.911  0.00  0.00    +0.000 A 
ATOM      5  C   UNL     1       4.343   4.372  17.276  0.00  0.00    +0.000 A 
ATOM      6  C   UNL     1       4.889   3.876  16.092  0.00  0.00    +0.000 A 
ATOM      7  C   UNL     1       3.157   3.363  18.034  0.00  0.00    +0.000 C 
ATOM      8  C   UNL     1       2.018   4.100  17.294  0.00  0.00    +0.000 C 
ATOM      9  C   UNL     1       1.664   5.429  17.919  0.00  0.00    +0.000 C 
ATOM     10  N   UNL     1       2.340   5.853  19.161  0.00  0.00    +0.000 NA
ATOM     11  C   UNL     1       2.481   7.322  19.011  0.00  0.00    +0.000 C 
ATOM     12  C   UNL     1       3.554   5.112  19.748  0.00  0.00    +0.000 C 
ATOM     13  C   UNL     1       4.804   5.889  19.370  0.00  0.00    +0.000 C 
ATOM     14  C   UNL     1       4.031   3.637  19.233  0.00  0.00    +0.000 C 
ATOM     15  C   UNL     1       4.380   2.251  19.854  0.00  0.00    +0.000 C 
ATOM     16  C   UNL     1       3.680   2.092  21.137  0.00  0.00    +0.000 C 
ATOM     17  C   UNL     1       2.298   2.530  20.781  0.00  0.00    +0.000 C 
ATOM     18  O   UNL     1       1.441   2.604  21.662  0.00  0.00    +0.000 OA
ATOM     19  C   UNL     1       1.975   2.837  19.265  0.00  0.00    +0.000 C 
ENDROOT
BRANCH   1  21
ATOM     20  C   UNL     1       5.809   3.808  13.342  0.00  0.00    +0.000 C 
ATOM     21  O   UNL     1       6.615   3.727  14.509  0.00  0.00    +0.000 OA
ENDBRANCH   1  21
TORSDOF 1
ENDMDL
MODEL 2
REMARK VINA RESULT:      -7.6      1.910      5.743
REMARK  Name = 
REMARK  3 active torsions:
REMARK  status: ('A' for Active; 'I' for Inactive)
REMARK    1  A    between atoms: C_1  and  O_2
REMARK    2  A    between atoms: O_2  and  C_3
REMARK    3  A    between atoms: N_12  and  C_13
REMARK                            x       y       z     vdW  Elec       q    Type
REMARK                         _______ _______ _______ _____ _____    ______ ____
ROOT
ATOM      1  C   UNL     1       3.451   4.083  19.865  0.00  0.00    +0.000 A 
ATOM      2  C   UNL     1       2.632   5.225  19.681  0.00  0.00    +0.000 A 
ATOM      3  C   UNL     1       3.057   6.262  18.873  0.00  0.00    +0.000 A 
ATOM      4  C   UNL     1       4.246   6.117  18.172  0.00  0.00    +0.000 A 
ATOM      5  C   UNL     1       5.072   4.887  18.260  0.00  0.00    +0.000 A 
ATOM      6  C   UNL     1       4.652   3.924  19.178  0.00  0.00    +0.000 A 
ATOM      7  C   UNL     1       6.236   4.352  17.094  0.00  0.00    +0.000 C 
ATOM      8  C   UNL     1       7.398   4.823  17.998  0.00  0.00    +0.000 C 
ATOM      9  C   UNL     1       7.634   6.314  17.934  0.00  0.00    +0.000 C 
ATOM     10  N   UNL     1       6.837   7.139  17.007  0.00  0.00    +0.000 NA
ATOM     11  C   UNL     1       6.640   8.415  17.738  0.00  0.00    +0.000 C 
ATOM     12  C   UNL     1       5.614   6.598  16.246  0.00  0.00    +0.000 C 
ATOM     13  C   UNL     1       4.365   7.065  16.974  0.00  0.00    +0.000 C 
ATOM     14  C   UNL     1       5.252   5.008  16.158  0.00  0.00    +0.000 C 
ATOM     15  C   UNL     1       4.917   3.957  15.057  0.00  0.00    +0.000 C 
ATOM     16  C   UNL     1       5.513   4.369  13.778  0.00  0.00    +0.000 C 
ATOM     17  C   UNL     1       6.898   4.737  14.197  0.00  0.00    +0.000 C 
ATOM     18  O   UNL     1       7.672   5.217  13.370  0.00  0.00    +0.000 OA
ATOM     19  C   UNL     1       7.333   4.446  15.688  0.00  0.00    +0.000 C 
ENDROOT
BRANCH   1  21
ATOM     20  C   UNL     1       2.034   3.303  21.596  0.00  0.00    +0.000 C 
ATOM     21  O   UNL     1       3.076   3.031  20.669  0.00  0.00    +0.000 OA
ENDBRANCH   1  21
TORSDOF 1
ENDMDL
MODEL 3
REMARK VINA RESULT:      -7.0      2.628      5.232
REMARK  Name = 
REMARK  3 active torsions:
REMARK  status: ('A' for Active; 'I' for Inactive)
REMARK    1  A    between atoms: C_1  and  O_2
REMARK    2  A    between atoms: O_2  and  C_3
REMARK    3  A    between atoms: N_12  and  C_13
REMARK                            x       y       z     vdW  Elec       q    Type
REMARK                         _______ _______ _______ _____ _____    ______ ____
ROOT
ATOM      1  C   UNL     1       2.359   8.360  18.005  0.00  0.00    +0.000 A 
ATOM      2  C   UNL     1       1.898   7.893  19.260  0.00  0.00    +0.000 A 
ATOM      3  C   UNL     1       2.318   6.668  19.744  0.00  0.00    +0.000 A 
ATOM      4  C   UNL     1       3.272   5.961  19.027  0.00  0.00    +0.000 A 
ATOM      5  C   UNL     1       3.856   6.476  17.763  0.00  0.00    +0.000 A 
ATOM      6  C   UNL     1       3.309   7.659  17.266  0.00  0.00    +0.000 A 
ATOM      7  C   UNL     1       5.371   6.001  17.068  0.00  0.00    +0.000 C 
ATOM      8  C   UNL     1       4.647   5.131  16.017  0.00  0.00    +0.000 C 
ATOM      9  C   UNL     1       4.184   3.801  16.561  0.00  0.00    +0.000 C 
ATOM     10  N   UNL     1       4.513   3.428  17.951  0.00  0.00    +0.000 NA
ATOM     11  C   UNL     1       3.323   2.671  18.413  0.00  0.00    +0.000 C 
ATOM     12  C   UNL     1       5.122   4.416  18.960  0.00  0.00    +0.000 C 
ATOM     13  C   UNL     1       4.005   4.908  19.865  0.00  0.00    +0.000 C 
ATOM     14  C   UNL     1       5.730   5.869  18.528  0.00  0.00    +0.000 C 
ATOM     15  C   UNL     1       7.042   6.683  18.738  0.00  0.00    +0.000 C 
ATOM     16  C   UNL     1       8.164   5.764  18.983  0.00  0.00    +0.000 C 
ATOM     17  C   UNL     1       7.964   4.753  17.902  0.00  0.00    +0.000 C 
ATOM     18  O   UNL     1       8.696   3.764  17.856  0.00  0.00    +0.000 OA
ATOM     19  C   UNL     1       6.843   5.021  16.822  0.00  0.00    +0.000 C 
ENDROOT
BRANCH   1  21
ATOM     20  C   UNL     1       1.414  10.496  18.404  0.00  0.00    +0.000 C 
ATOM     21  O   UNL     1       1.960   9.567  17.477  0.00  0.00    +0.000 OA
ENDBRANCH   1  21
TORSDOF 1
ENDMDL
MODEL 4
REMARK VINA RESULT:      -6.9      2.323      5.322
REMARK  Name = 
REMARK  3 active torsions:
REMARK  status: ('A' for Active; 'I' for Inactive)
REMARK    1  A    between atoms: C_1  and  O_2
REMARK    2  A    between atoms: O_2  and  C_3
REMARK    3  A    between atoms: N_12  and  C_13
REMARK                            x       y       z     vdW  Elec       q    Type
REMARK                         _______ _______ _______ _____ _____    ______ ____
ROOT
ATOM      1  C   UNL     1       1.889   7.407  19.806  0.00  0.00    +0.000 A 
ATOM      2  C   UNL     1       1.605   6.442  20.803  0.00  0.00    +0.000 A 
ATOM      3  C   UNL     1       2.161   5.179  20.728  0.00  0.00    +0.000 A 
ATOM      4  C   UNL     1       3.076   4.913  19.719  0.00  0.00    +0.000 A 
ATOM      5  C   UNL     1       3.477   5.938  18.723  0.00  0.00    +0.000 A 
ATOM      6  C   UNL     1       2.797   7.155  18.780  0.00  0.00    +0.000 A 
ATOM      7  C   UNL     1       4.933   5.938  17.785  0.00  0.00    +0.000 C 
ATOM      8  C   UNL     1       4.158   5.471  16.533  0.00  0.00    +0.000 C 
ATOM      9  C   UNL     1       3.853   3.992  16.538  0.00  0.00    +0.000 C 
ATOM     10  N   UNL     1       4.361   3.147  17.636  0.00  0.00    +0.000 NA
ATOM     11  C   UNL     1       3.286   2.147  17.848  0.00  0.00    +0.000 C 
ATOM     12  C   UNL     1       5.010   3.725  18.905  0.00  0.00    +0.000 C 
ATOM     13  C   UNL     1       3.970   3.704  20.013  0.00  0.00    +0.000 C 
ATOM     14  C   UNL     1       5.463   5.289  19.041  0.00  0.00    +0.000 C 
ATOM     15  C   UNL     1       6.730   6.094  19.457  0.00  0.00    +0.000 C 
ATOM     16  C   UNL     1       7.933   5.279  19.231  0.00  0.00    +0.000 C 
ATOM     17  C   UNL     1       7.684   4.752  17.856  0.00  0.00    +0.000 C 
ATOM     18  O   UNL     1       8.473   3.944  17.366  0.00  0.00    +0.000 OA
ATOM     19  C   UNL     1       6.433   5.295  17.059  0.00  0.00    +0.000 C 
ENDROOT
BRANCH   1  21
ATOM     20  C   UNL     1       1.475   9.423  18.633  0.00  0.00    +0.000 C 
ATOM     21  O   UNL     1       1.350   8.673  19.833  0.00  0.00    +0.000 OA
ENDBRANCH   1  21
TORSDOF 1
ENDMDL
MODEL 5
REMARK VINA RESULT:      -6.7      1.809      3.705
REMARK  Name = 
REMARK  3 active torsions:
REMARK  status: ('A' for Active; 'I' for Inactive)
REMARK    1  A    between atoms: C_1  and  O_2
REMARK    2  A    between atoms: O_2  and  C_3
REMARK    3  A    between atoms: N_12  and  C_13
REMARK                            x       y       z     vdW  Elec       q    Type
REMARK                         _______ _______ _______ _____ _____    ______ ____
ROOT
ATOM      1  C   UNL     1       6.951   4.993  14.877  0.00  0.00    +0.000 A 
ATOM      2  C   UNL     1       6.056   4.203  14.114  0.00  0.00    +0.000 A 
ATOM      3  C   UNL     1       4.935   3.652  14.706  0.00  0.00    +0.000 A 
ATOM      4  C   UNL     1       4.655   3.971  16.027  0.00  0.00    +0.000 A 
ATOM      5  C   UNL     1       5.515   4.883  16.821  0.00  0.00    +0.000 A 
ATOM      6  C   UNL     1       6.691   5.315  16.207  0.00  0.00    +0.000 A 
ATOM      7  C   UNL     1       5.038   5.770  18.231  0.00  0.00    +0.000 C 
ATOM      8  C   UNL     1       5.785   4.773  19.144  0.00  0.00    +0.000 C 
ATOM      9  C   UNL     1       5.023   3.489  19.374  0.00  0.00    +0.000 C 
ATOM     10  N   UNL     1       3.669   3.334  18.808  0.00  0.00    +0.000 NA
ATOM     11  C   UNL     1       3.597   1.900  18.434  0.00  0.00    +0.000 C 
ATOM     12  C   UNL     1       3.064   4.329  17.802  0.00  0.00    +0.000 C 
ATOM     13  C   UNL     1       3.193   3.726  16.413  0.00  0.00    +0.000 C 
ATOM     14  C   UNL     1       3.725   5.789  17.486  0.00  0.00    +0.000 C 
ATOM     15  C   UNL     1       3.268   7.277  17.428  0.00  0.00    +0.000 C 
ATOM     16  C   UNL     1       2.103   7.474  18.302  0.00  0.00    +0.000 C 
ATOM     17  C   UNL     1       2.541   6.777  19.547  0.00  0.00    +0.000 C 
ATOM     18  O   UNL     1       1.756   6.671  20.489  0.00  0.00    +0.000 OA
ATOM     19  C   UNL     1       4.026   6.241  19.625  0.00  0.00    +0.000 C 
ENDROOT
BRANCH   1  21
ATOM     20  C   UNL     1       8.161   5.541  12.916  0.00  0.00    +0.000 C 
ATOM     21  O   UNL     1       8.085   5.553  14.334  0.00  0.00    +0.000 OA
ENDBRANCH   1  21
TORSDOF 1
ENDMDL
MODEL 6
REMARK VINA RESULT:      -6.0      8.227     10.122
REMARK  Name = 
REMARK  3 active torsions:
REMARK  status: ('A' for Active; 'I' for Inactive)
REMARK    1  A    between atoms: C_1  and  O_2
REMARK    2  A    between atoms: O_2  and  C_3
REMARK    3  A    between atoms: N_12  and  C_13
REMARK                            x       y       z     vdW  Elec       q    Type
REMARK                         _______ _______ _______ _____ _____    ______ ____
ROOT
ATOM      1  C   UNL     1      -2.847  10.373  17.236  0.00  0.00    +0.000 A 
ATOM      2  C   UNL     1      -3.893  11.247  17.624  0.00  0.00    +0.000 A 
ATOM      3  C   UNL     1      -3.778  12.000  18.777  0.00  0.00    +0.000 A 
ATOM      4  C   UNL     1      -2.584  11.959  19.484  0.00  0.00    +0.000 A 
ATOM      5  C   UNL     1      -1.430  11.136  19.041  0.00  0.00    +0.000 A 
ATOM      6  C   UNL     1      -1.646  10.310  17.937  0.00  0.00    +0.000 A 
ATOM      7  C   UNL     1       0.227  11.380  19.480  0.00  0.00    +0.000 C 
ATOM      8  C   UNL     1       0.166  10.201  20.476  0.00  0.00    +0.000 C 
ATOM      9  C   UNL     1      -0.504  10.558  21.782  0.00  0.00    +0.000 C 
ATOM     10  N   UNL     1      -0.946  11.946  22.019  0.00  0.00    +0.000 NA
ATOM     11  C   UNL     1      -2.196  11.798  22.804  0.00  0.00    +0.000 C 
ATOM     12  C   UNL     1      -0.960  13.019  20.916  0.00  0.00    +0.000 C 
ATOM     13  C   UNL     1      -2.389  13.157  20.417  0.00  0.00    +0.000 C 
ATOM     14  C   UNL     1      -0.227  12.820  19.470  0.00  0.00    +0.000 C 
ATOM     15  C   UNL     1       0.776  13.596  18.565  0.00  0.00    +0.000 C 
ATOM     16  C   UNL     1       1.612  14.478  19.392  0.00  0.00    +0.000 C 
ATOM     17  C   UNL     1       2.013  13.560  20.499  0.00  0.00    +0.000 C 
ATOM     18  O   UNL     1       2.669  14.002  21.443  0.00  0.00    +0.000 OA
ATOM     19  C   UNL     1       1.619  12.034  20.389  0.00  0.00    +0.000 C 
ENDROOT
BRANCH   1  21
ATOM     20  C   UNL     1      -2.986  10.301  14.872  0.00  0.00    +0.000 C 
ATOM     21  O   UNL     1      -2.922   9.595  16.103  0.00  0.00    +0.000 OA
ENDBRANCH   1  21
TORSDOF 1
ENDMDL
MODEL 7
REMARK VINA RESULT:      -6.0      2.316      5.412
REMARK  Name = 
REMARK  3 active torsions:
REMARK  status: ('A' for Active; 'I' for Inactive)
REMARK    1  A    between atoms: C_1  and  O_2
REMARK    2  A    between atoms: O_2  and  C_3
REMARK    3  A    between atoms: N_12  and  C_13
REMARK                            x       y       z     vdW  Elec       q    Type
REMARK                         _______ _______ _______ _____ _____    ______ ____
ROOT
ATOM      1  C   UNL     1       2.009   3.555  18.427  0.00  0.00    +0.000 A 
ATOM      2  C   UNL     1       2.542   2.349  17.908  0.00  0.00    +0.000 A 
ATOM      3  C   UNL     1       3.674   2.373  17.116  0.00  0.00    +0.000 A 
ATOM      4  C   UNL     1       4.330   3.581  16.928  0.00  0.00    +0.000 A 
ATOM      5  C   UNL     1       3.858   4.844  17.549  0.00  0.00    +0.000 A 
ATOM      6  C   UNL     1       2.648   4.778  18.240  0.00  0.00    +0.000 A 
ATOM      7  C   UNL     1       4.815   6.256  17.847  0.00  0.00    +0.000 C 
ATOM      8  C   UNL     1       4.178   6.976  16.638  0.00  0.00    +0.000 C 
ATOM      9  C   UNL     1       4.759   6.544  15.313  0.00  0.00    +0.000 C 
ATOM     10  N   UNL     1       5.881   5.585  15.287  0.00  0.00    +0.000 NA
ATOM     11  C   UNL     1       5.626   4.764  14.078  0.00  0.00    +0.000 C 
ATOM     12  C   UNL     1       6.359   4.824  16.536  0.00  0.00    +0.000 C 
ATOM     13  C   UNL     1       5.785   3.418  16.474  0.00  0.00    +0.000 C 
ATOM     14  C   UNL     1       5.879   5.206  18.050  0.00  0.00    +0.000 C 
ATOM     15  C   UNL     1       6.536   5.499  19.432  0.00  0.00    +0.000 C 
ATOM     16  C   UNL     1       7.903   6.005  19.235  0.00  0.00    +0.000 C 
ATOM     17  C   UNL     1       7.692   7.029  18.169  0.00  0.00    +0.000 C 
ATOM     18  O   UNL     1       8.665   7.610  17.689  0.00  0.00    +0.000 OA
ATOM     19  C   UNL     1       6.211   7.363  17.731  0.00  0.00    +0.000 C 
ENDROOT
BRANCH   1  21
ATOM     20  C   UNL     1       1.098   3.624  20.613  0.00  0.00    +0.000 C 
ATOM     21  O   UNL     1       0.878   3.582  19.210  0.00  0.00    +0.000 OA
ENDBRANCH   1  21
TORSDOF 1
ENDMDL
MODEL 8
REMARK VINA RESULT:      -5.8      8.373     10.666
REMARK  Name = 
REMARK  3 active torsions:
REMARK  status: ('A' for Active; 'I' for Inactive)
REMARK    1  A    between atoms: C_1  and  O_2
REMARK    2  A    between atoms: O_2  and  C_3
REMARK    3  A    between atoms: N_12  and  C_13
REMARK                            x       y       z     vdW  Elec       q    Type
REMARK                         _______ _______ _______ _____ _____    ______ ____
ROOT
ATOM      1  C   UNL     1      -4.049  11.535  17.898  0.00  0.00    +0.000 A 
ATOM      2  C   UNL     1      -4.775  12.254  18.880  0.00  0.00    +0.000 A 
ATOM      3  C   UNL     1      -4.170  12.612  20.069  0.00  0.00    +0.000 A 
ATOM      4  C   UNL     1      -2.819  12.345  20.236  0.00  0.00    +0.000 A 
ATOM      5  C   UNL     1      -2.005  11.690  19.181  0.00  0.00    +0.000 A 
ATOM      6  C   UNL     1      -2.695  11.249  18.052  0.00  0.00    +0.000 A 
ATOM      7  C   UNL     1      -0.282  11.774  19.020  0.00  0.00    +0.000 C 
ATOM      8  C   UNL     1      -0.133  10.344  19.588  0.00  0.00    +0.000 C 
ATOM      9  C   UNL     1      -0.250  10.286  21.092  0.00  0.00    +0.000 C 
ATOM     10  N   UNL     1      -0.406  11.536  21.861  0.00  0.00    +0.000 NA
ATOM     11  C   UNL     1      -1.307  11.162  22.978  0.00  0.00    +0.000 C 
ATOM     12  C   UNL     1      -0.677  12.897  21.197  0.00  0.00    +0.000 C 
ATOM     13  C   UNL     1      -2.162  13.194  21.329  0.00  0.00    +0.000 C 
ATOM     14  C   UNL     1      -0.531  13.149  19.589  0.00  0.00    +0.000 C 
ATOM     15  C   UNL     1       0.176  14.159  18.636  0.00  0.00    +0.000 C 
ATOM     16  C   UNL     1       1.351  14.736  19.306  0.00  0.00    +0.000 C 
ATOM     17  C   UNL     1       2.001  13.517  19.873  0.00  0.00    +0.000 C 
ATOM     18  O   UNL     1       2.996  13.640  20.588  0.00  0.00    +0.000 OA
ATOM     19  C   UNL     1       1.409  12.104  19.489  0.00  0.00    +0.000 C 
ENDROOT
BRANCH   1  21
ATOM     20  C   UNL     1      -3.700  10.757  15.688  0.00  0.00    +0.000 C 
ATOM     21  O   UNL     1      -4.613  11.146  16.704  0.00  0.00    +0.000 OA
ENDBRANCH   1  21
TORSDOF 1
ENDMDL
MODEL 9
REMARK VINA RESULT:      -5.7      2.372      5.008
REMARK  Name = 
REMARK  3 active torsions:
REMARK  status: ('A' for Active; 'I' for Inactive)
REMARK    1  A    between atoms: C_1  and  O_2
REMARK    2  A    between atoms: O_2  and  C_3
REMARK    3  A    between atoms: N_12  and  C_13
REMARK                            x       y       z     vdW  Elec       q    Type
REMARK                         _______ _______ _______ _____ _____    ______ ____
ROOT
ATOM      1  C   UNL     1       1.719   8.260  19.670  0.00  0.00    +0.000 A 
ATOM      2  C   UNL     1       1.929   8.814  18.382  0.00  0.00    +0.000 A 
ATOM      3  C   UNL     1       2.789   8.199  17.492  0.00  0.00    +0.000 A 
ATOM      4  C   UNL     1       3.358   6.984  17.847  0.00  0.00    +0.000 A 
ATOM      5  C   UNL     1       3.071   6.324  19.146  0.00  0.00    +0.000 A 
ATOM      6  C   UNL     1       2.289   7.047  20.047  0.00  0.00    +0.000 A 
ATOM      7  C   UNL     1       3.256   4.639  19.499  0.00  0.00    +0.000 C 
ATOM      8  C   UNL     1       4.559   4.918  20.281  0.00  0.00    +0.000 C 
ATOM      9  C   UNL     1       5.758   5.128  19.386  0.00  0.00    +0.000 C 
ATOM     10  N   UNL     1       5.612   4.978  17.925  0.00  0.00    +0.000 NA
ATOM     11  C   UNL     1       6.522   6.006  17.364  0.00  0.00    +0.000 C 
ATOM     12  C   UNL     1       4.247   4.829  17.232  0.00  0.00    +0.000 C 
ATOM     13  C   UNL     1       3.869   6.180  16.647  0.00  0.00    +0.000 C 
ATOM     14  C   UNL     1       2.862   4.532  18.046  0.00  0.00    +0.000 C 
ATOM     15  C   UNL     1       1.675   3.524  17.981  0.00  0.00    +0.000 C 
ATOM     16  C   UNL     1       2.118   2.275  17.345  0.00  0.00    +0.000 C 
ATOM     17  C   UNL     1       3.404   2.015  18.058  0.00  0.00    +0.000 C 
ATOM     18  O   UNL     1       4.106   1.065  17.712  0.00  0.00    +0.000 OA
ATOM     19  C   UNL     1       3.791   2.950  19.272  0.00  0.00    +0.000 C 
ENDROOT
BRANCH   1  21
ATOM     20  C   UNL     1       0.569  10.210  20.368  0.00  0.00    +0.000 C 
ATOM     21  O   UNL     1       0.881   8.843  20.593  0.00  0.00    +0.000 OA
ENDBRANCH   1  21
TORSDOF 1
ENDMDL
