MODEL 1
REMARK VINA RESULT:      -7.7      0.000      0.000
REMARK  Name = 
REMARK  7 active torsions:
REMARK  status: ('A' for Active; 'I' for Inactive)
REMARK    1  A    between atoms: C_1  and  C_2
REMARK    2  A    between atoms: C_4  and  S_5
REMARK    3  A    between atoms: S_5  and  N_8
REMARK    4  A    between atoms: N_8  and  C_9
REMARK    5  A    between atoms: N_8  and  C_10
REMARK    6  A    between atoms: C_10  and  C_11
REMARK    7  A    between atoms: C_11  and  C_12
REMARK                            x       y       z     vdW  Elec       q    Type
REMARK                         _______ _______ _______ _____ _____    ______ ____
ROOT
ATOM      1  N   UNL     1       4.870   4.718  18.632  0.00  0.00    +0.000 NA
ATOM      2  C   UNL     1       5.007   3.502  19.473  0.00  0.00    +0.000 C 
ENDROOT
BRANCH   1   3
ATOM      3  S   UNL     1       6.317   5.321  17.927  0.00  0.00    +0.000 S 
ATOM      4  O   UNL     1       7.411   4.601  18.561  0.00  0.00    +0.000 OA
ATOM      5  O   UNL     1       6.287   6.761  17.899  0.00  0.00    +0.000 OA
BRANCH   3   9
ATOM      6  C   UNL     1       8.137   5.399  12.969  0.00  0.00    +0.000 C 
ATOM      7  C   UNL     1       7.156   4.855  13.969  0.00  0.00    +0.000 A 
ATOM      8  C   UNL     1       7.222   5.268  15.312  0.00  0.00    +0.000 A 
ATOM      9  C   UNL     1       6.277   4.796  16.229  0.00  0.00    +0.000 A 
ATOM     10  C   UNL     1       5.289   3.889  15.841  0.00  0.00    +0.000 A 
ATOM     11  C   UNL     1       5.233   3.460  14.518  0.00  0.00    +0.000 A 
ATOM     12  C   UNL     1       6.156   3.938  13.589  0.00  0.00    +0.000 A 
ATOM     13 CL   UNL     1       6.014   3.374  11.962  0.00  0.00    +0.000 Cl
ENDBRANCH   3   9
ENDBRANCH   1   3
BRANCH   1  14
ATOM     14  C   UNL     1       4.159   5.778  19.458  0.00  0.00    +0.000 C 
BRANCH  14  15
ATOM     15  C   UNL     1       2.767   6.141  18.992  0.00  0.00    +0.000 C 
ATOM     16  C   UNL     1       2.312   7.569  19.192  0.00  0.00    +0.000 C 
ATOM     17  O   UNL     1       2.701   7.080  17.905  0.00  0.00    +0.000 OA
BRANCH  15  18
ATOM     18  C   UNL     1       1.820   4.970  19.031  0.00  0.00    +0.000 A 
ATOM     19  C   UNL     1       1.631   4.202  17.881  0.00  0.00    +0.000 A 
ATOM     20  C   UNL     1       1.500   2.823  18.009  0.00  0.00    +0.000 A 
ATOM     21  C   UNL     1       1.442   2.267  19.279  0.00  0.00    +0.000 A 
ATOM     22  C   UNL     1       1.406   3.131  20.355  0.00  0.00    +0.000 A 
ATOM     23 CL   UNL     1       1.328   2.544  21.963  0.00  0.00    +0.000 Cl
ATOM     24  N   UNL     1       1.558   4.464  20.265  0.00  0.00    +0.000 NA
ENDBRANCH  15  18
ENDBRANCH  14  15
ENDBRANCH   1  14
TORSDOF 5
ENDMDL
MODEL 2
REMARK VINA RESULT:      -7.1      3.018      7.253
REMARK  Name = 
REMARK  7 active torsions:
REMARK  status: ('A' for Active; 'I' for Inactive)
REMARK    1  A    between atoms: C_1  and  C_2
REMARK    2  A    between atoms: C_4  and  S_5
REMARK    3  A    between atoms: S_5  and  N_8
REMARK    4  A    between atoms: N_8  and  C_9
REMARK    5  A    between atoms: N_8  and  C_10
REMARK    6  A    between atoms: C_10  and  C_11
REMARK    7  A    between atoms: C_11  and  C_12
REMARK                            x       y       z     vdW  Elec       q    Type
REMARK                         _______ _______ _______ _____ _____    ______ ____
ROOT
ATOM      1  N   UNL     1       4.826   5.351  18.314  0.00  0.00    +0.000 NA
ATOM      2  C   UNL     1       5.874   4.973  19.295  0.00  0.00    +0.000 C 
ENDROOT
BRANCH   1   3
ATOM      3  S   UNL     1       3.199   5.079  18.799  0.00  0.00    +0.000 S 
ATOM      4  O   UNL     1       3.263   4.474  20.121  0.00  0.00    +0.000 OA
ATOM      5  O   UNL     1       2.463   4.457  17.728  0.00  0.00    +0.000 OA
BRANCH   3   9
ATOM      6  C   UNL     1       0.976   8.854  21.750  0.00  0.00    +0.000 C 
ATOM      7  C   UNL     1       1.481   8.402  20.409  0.00  0.00    +0.000 A 
ATOM      8  C   UNL     1       2.062   7.129  20.271  0.00  0.00    +0.000 A 
ATOM      9  C   UNL     1       2.486   6.693  19.011  0.00  0.00    +0.000 A 
ATOM     10  C   UNL     1       2.377   7.519  17.891  0.00  0.00    +0.000 A 
ATOM     11  C   UNL     1       1.823   8.790  18.026  0.00  0.00    +0.000 A 
ATOM     12  C   UNL     1       1.377   9.228  19.273  0.00  0.00    +0.000 A 
ATOM     13 CL   UNL     1       0.686  10.809  19.360  0.00  0.00    +0.000 Cl
ENDBRANCH   3   9
ENDBRANCH   1   3
BRANCH   1  14
ATOM     14  C   UNL     1       5.146   4.659  16.999  0.00  0.00    +0.000 C 
BRANCH  14  15
ATOM     15  C   UNL     1       5.730   5.547  15.922  0.00  0.00    +0.000 C 
ATOM     16  C   UNL     1       5.008   6.839  15.613  0.00  0.00    +0.000 C 
ATOM     17  O   UNL     1       6.222   6.822  16.369  0.00  0.00    +0.000 OA
BRANCH  15  18
ATOM     18  C   UNL     1       6.494   4.769  14.882  0.00  0.00    +0.000 A 
ATOM     19  C   UNL     1       5.869   3.715  14.216  0.00  0.00    +0.000 A 
ATOM     20  C   UNL     1       6.121   3.535  12.861  0.00  0.00    +0.000 A 
ATOM     21  C   UNL     1       7.074   4.330  12.240  0.00  0.00    +0.000 A 
ATOM     22  C   UNL     1       7.805   5.190  13.035  0.00  0.00    +0.000 A 
ATOM     23 CL   UNL     1       9.009   6.210  12.366  0.00  0.00    +0.000 Cl
ATOM     24  N   UNL     1       7.566   5.406  14.340  0.00  0.00    +0.000 NA
ENDBRANCH  15  18
ENDBRANCH  14  15
ENDBRANCH   1  14
TORSDOF 5
ENDMDL
MODEL 3
REMARK VINA RESULT:      -6.8      2.719      7.121
REMARK  Name = 
REMARK  7 active torsions:
REMARK  status: ('A' for Active; 'I' for Inactive)
REMARK    1  A    between atoms: C_1  and  C_2
REMARK    2  A    between atoms: C_4  and  S_5
REMARK    3  A    between atoms: S_5  and  N_8
REMARK    4  A    between atoms: N_8  and  C_9
REMARK    5  A    between atoms: N_8  and  C_10
REMARK    6  A    between atoms: C_10  and  C_11
REMARK    7  A    between atoms: C_11  and  C_12
REMARK                            x       y       z     vdW  Elec       q    Type
REMARK                         _______ _______ _______ _____ _____    ______ ____
ROOT
ATOM      1  N   UNL     1       5.315   5.197  18.243  0.00  0.00    +0.000 NA
ATOM      2  C   UNL     1       6.267   5.043  19.372  0.00  0.00    +0.000 C 
ENDROOT
BRANCH   1   3
ATOM      3  S   UNL     1       3.710   4.648  18.523  0.00  0.00    +0.000 S 
ATOM      4  O   UNL     1       3.786   3.717  19.638  0.00  0.00    +0.000 OA
ATOM      5  O   UNL     1       3.095   4.271  17.276  0.00  0.00    +0.000 OA
BRANCH   3   9
ATOM      6  C   UNL     1       1.877   9.569  17.953  0.00  0.00    +0.000 C 
ATOM      7  C   UNL     1       1.980   8.325  18.790  0.00  0.00    +0.000 A 
ATOM      8  C   UNL     1       2.676   7.206  18.300  0.00  0.00    +0.000 A 
ATOM      9  C   UNL     1       2.812   6.068  19.102  0.00  0.00    +0.000 A 
ATOM     10  C   UNL     1       2.231   6.009  20.371  0.00  0.00    +0.000 A 
ATOM     11  C   UNL     1       1.521   7.106  20.852  0.00  0.00    +0.000 A 
ATOM     12  C   UNL     1       1.397   8.254  20.071  0.00  0.00    +0.000 A 
ATOM     13 CL   UNL     1       0.515   9.581  20.740  0.00  0.00    +0.000 Cl
ENDBRANCH   3   9
ENDBRANCH   1   3
BRANCH   1  14
ATOM     14  C   UNL     1       5.932   4.540  17.020  0.00  0.00    +0.000 C 
BRANCH  14  15
ATOM     15  C   UNL     1       6.148   5.450  15.831  0.00  0.00    +0.000 C 
ATOM     16  C   UNL     1       5.188   6.605  15.650  0.00  0.00    +0.000 C 
ATOM     17  O   UNL     1       6.515   6.805  16.145  0.00  0.00    +0.000 OA
BRANCH  15  18
ATOM     18  C   UNL     1       6.804   4.744  14.672  0.00  0.00    +0.000 A 
ATOM     19  C   UNL     1       6.219   3.588  14.154  0.00  0.00    +0.000 A 
ATOM     20  C   UNL     1       6.232   3.391  12.777  0.00  0.00    +0.000 A 
ATOM     21  C   UNL     1       6.927   4.284  11.974  0.00  0.00    +0.000 A 
ATOM     22  C   UNL     1       7.665   5.267  12.601  0.00  0.00    +0.000 A 
ATOM     23 CL   UNL     1       8.562   6.415  11.699  0.00  0.00    +0.000 Cl
ATOM     24  N   UNL     1       7.651   5.500  13.925  0.00  0.00    +0.000 NA
ENDBRANCH  15  18
ENDBRANCH  14  15
ENDBRANCH   1  14
TORSDOF 5
ENDMDL
MODEL 4
REMARK VINA RESULT:      -6.6      2.710      7.029
REMARK  Name = 
REMARK  7 active torsions:
REMARK  status: ('A' for Active; 'I' for Inactive)
REMARK    1  A    between atoms: C_1  and  C_2
REMARK    2  A    between atoms: C_4  and  S_5
REMARK    3  A    between atoms: S_5  and  N_8
REMARK    4  A    between atoms: N_8  and  C_9
REMARK    5  A    between atoms: N_8  and  C_10
REMARK    6  A    between atoms: C_10  and  C_11
REMARK    7  A    between atoms: C_11  and  C_12
REMARK                            x       y       z     vdW  Elec       q    Type
REMARK                         _______ _______ _______ _____ _____    ______ ____
ROOT
ATOM      1  N   UNL     1       4.078   4.323  18.077  0.00  0.00    +0.000 NA
ATOM      2  C   UNL     1       4.944   3.281  18.684  0.00  0.00    +0.000 C 
ENDROOT
BRANCH   1   3
ATOM      3  S   UNL     1       2.422   4.300  18.543  0.00  0.00    +0.000 S 
ATOM      4  O   UNL     1       2.338   3.427  19.704  0.00  0.00    +0.000 OA
ATOM      5  O   UNL     1       1.589   4.088  17.387  0.00  0.00    +0.000 OA
BRANCH   3   9
ATOM      6  C   UNL     1       2.144   9.528  17.850  0.00  0.00    +0.000 C 
ATOM      7  C   UNL     1       1.938   8.338  18.744  0.00  0.00    +0.000 A 
ATOM      8  C   UNL     1       2.208   7.045  18.262  0.00  0.00    +0.000 A 
ATOM      9  C   UNL     1       2.062   5.944  19.113  0.00  0.00    +0.000 A 
ATOM     10  C   UNL     1       1.613   6.104  20.425  0.00  0.00    +0.000 A 
ATOM     11  C   UNL     1       1.322   7.381  20.900  0.00  0.00    +0.000 A 
ATOM     12  C   UNL     1       1.484   8.488  20.069  0.00  0.00    +0.000 A 
ATOM     13 CL   UNL     1       1.119  10.041  20.732  0.00  0.00    +0.000 Cl
ENDBRANCH   3   9
ENDBRANCH   1   3
BRANCH   1  14
ATOM     14  C   UNL     1       4.240   4.244  16.568  0.00  0.00    +0.000 C 
BRANCH  14  15
ATOM     15  C   UNL     1       5.290   5.160  15.979  0.00  0.00    +0.000 C 
ATOM     16  C   UNL     1       4.981   6.640  15.930  0.00  0.00    +0.000 C 
ATOM     17  O   UNL     1       5.884   6.095  16.896  0.00  0.00    +0.000 OA
BRANCH  15  18
ATOM     18  C   UNL     1       6.148   4.471  14.949  0.00  0.00    +0.000 A 
ATOM     19  C   UNL     1       5.573   3.526  14.098  0.00  0.00    +0.000 A 
ATOM     20  C   UNL     1       5.979   3.488  12.768  0.00  0.00    +0.000 A 
ATOM     21  C   UNL     1       7.022   4.305  12.357  0.00  0.00    +0.000 A 
ATOM     22  C   UNL     1       7.680   5.038  13.325  0.00  0.00    +0.000 A 
ATOM     23 CL   UNL     1       8.985   6.072  12.921  0.00  0.00    +0.000 Cl
ATOM     24  N   UNL     1       7.295   5.117  14.611  0.00  0.00    +0.000 NA
ENDBRANCH  15  18
ENDBRANCH  14  15
ENDBRANCH   1  14
TORSDOF 5
ENDMDL
MODEL 5
REMARK VINA RESULT:      -6.5      2.843      4.375
REMARK  Name = 
REMARK  7 active torsions:
REMARK  status: ('A' for Active; 'I' for Inactive)
REMARK    1  A    between atoms: C_1  and  C_2
REMARK    2  A    between atoms: C_4  and  S_5
REMARK    3  A    between atoms: S_5  and  N_8
REMARK    4  A    between atoms: N_8  and  C_9
REMARK    5  A    between atoms: N_8  and  C_10
REMARK    6  A    between atoms: C_10  and  C_11
REMARK    7  A    between atoms: C_11  and  C_12
REMARK                            x       y       z     vdW  Elec       q    Type
REMARK                         _______ _______ _______ _____ _____    ______ ____
ROOT
ATOM      1  N   UNL     1       1.882   4.774  19.503  0.00  0.00    +0.000 NA
ATOM      2  C   UNL     1       0.729   4.673  20.432  0.00  0.00    +0.000 C 
ENDROOT
BRANCH   1   3
ATOM      3  S   UNL     1       2.921   3.405  19.431  0.00  0.00    +0.000 S 
ATOM      4  O   UNL     1       2.148   2.339  18.814  0.00  0.00    +0.000 OA
ATOM      5  O   UNL     1       3.574   3.216  20.701  0.00  0.00    +0.000 OA
BRANCH   3   9
ATOM      6  C   UNL     1       7.760   5.181  18.279  0.00  0.00    +0.000 C 
ATOM      7  C   UNL     1       6.440   4.647  17.800  0.00  0.00    +0.000 A 
ATOM      8  C   UNL     1       5.449   4.289  18.731  0.00  0.00    +0.000 A 
ATOM      9  C   UNL     1       4.204   3.838  18.280  0.00  0.00    +0.000 A 
ATOM     10  C   UNL     1       3.942   3.700  16.916  0.00  0.00    +0.000 A 
ATOM     11  C   UNL     1       4.927   4.031  15.989  0.00  0.00    +0.000 A 
ATOM     12  C   UNL     1       6.165   4.501  16.426  0.00  0.00    +0.000 A 
ATOM     13 CL   UNL     1       7.333   4.907  15.220  0.00  0.00    +0.000 Cl
ENDBRANCH   3   9
ENDBRANCH   1   3
BRANCH   1  14
ATOM     14  C   UNL     1       2.645   6.044  19.842  0.00  0.00    +0.000 C 
BRANCH  14  15
ATOM     15  C   UNL     1       2.533   7.160  18.827  0.00  0.00    +0.000 C 
ATOM     16  C   UNL     1       3.553   7.195  17.710  0.00  0.00    +0.000 C 
ATOM     17  O   UNL     1       2.212   6.750  17.486  0.00  0.00    +0.000 OA
BRANCH  15  18
ATOM     18  C   UNL     1       1.909   8.406  19.401  0.00  0.00    +0.000 A 
ATOM     19  C   UNL     1       1.476   9.416  18.541  0.00  0.00    +0.000 A 
ATOM     20  C   UNL     1       0.294  10.087  18.836  0.00  0.00    +0.000 A 
ATOM     21  C   UNL     1      -0.354   9.816  20.032  0.00  0.00    +0.000 A 
ATOM     22  C   UNL     1       0.273   8.969  20.923  0.00  0.00    +0.000 A 
ATOM     23 CL   UNL     1      -0.442   8.576  22.430  0.00  0.00    +0.000 Cl
ATOM     24  N   UNL     1       1.400   8.285  20.656  0.00  0.00    +0.000 NA
ENDBRANCH  15  18
ENDBRANCH  14  15
ENDBRANCH   1  14
TORSDOF 5
ENDMDL
MODEL 6
REMARK VINA RESULT:      -6.4      2.790      7.057
REMARK  Name = 
REMARK  7 active torsions:
REMARK  status: ('A' for Active; 'I' for Inactive)
REMARK    1  A    between atoms: C_1  and  C_2
REMARK    2  A    between atoms: C_4  and  S_5
REMARK    3  A    between atoms: S_5  and  N_8
REMARK    4  A    between atoms: N_8  and  C_9
REMARK    5  A    between atoms: N_8  and  C_10
REMARK    6  A    between atoms: C_10  and  C_11
REMARK    7  A    between atoms: C_11  and  C_12
REMARK                            x       y       z     vdW  Elec       q    Type
REMARK                         _______ _______ _______ _____ _____    ______ ____
ROOT
ATOM      1  N   UNL     1       4.384   5.119  18.699  0.00  0.00    +0.000 NA
ATOM      2  C   UNL     1       5.219   3.930  19.002  0.00  0.00    +0.000 C 
ENDROOT
BRANCH   1   3
ATOM      3  S   UNL     1       2.700   4.966  19.014  0.00  0.00    +0.000 S 
ATOM      4  O   UNL     1       2.583   4.156  20.216  0.00  0.00    +0.000 OA
ATOM      5  O   UNL     1       2.004   4.612  17.804  0.00  0.00    +0.000 OA
BRANCH   3   9
ATOM      6  C   UNL     1       1.837  10.053  17.887  0.00  0.00    +0.000 C 
ATOM      7  C   UNL     1       1.752   8.924  18.874  0.00  0.00    +0.000 A 
ATOM      8  C   UNL     1       2.178   7.636  18.504  0.00  0.00    +0.000 A 
ATOM      9  C   UNL     1       2.142   6.598  19.442  0.00  0.00    +0.000 A 
ATOM     10  C   UNL     1       1.652   6.812  20.732  0.00  0.00    +0.000 A 
ATOM     11  C   UNL     1       1.208   8.080  21.096  0.00  0.00    +0.000 A 
ATOM     12  C   UNL     1       1.258   9.127  20.177  0.00  0.00    +0.000 A 
ATOM     13 CL   UNL     1       0.704  10.676  20.706  0.00  0.00    +0.000 Cl
ENDBRANCH   3   9
ENDBRANCH   1   3
BRANCH   1  14
ATOM     14  C   UNL     1       4.654   5.524  17.259  0.00  0.00    +0.000 C 
BRANCH  14  15
ATOM     15  C   UNL     1       6.105   5.778  16.916  0.00  0.00    +0.000 C 
ATOM     16  C   UNL     1       6.647   7.170  17.153  0.00  0.00    +0.000 C 
ATOM     17  O   UNL     1       6.962   6.085  18.030  0.00  0.00    +0.000 OA
BRANCH  15  18
ATOM     18  C   UNL     1       6.604   4.885  15.809  0.00  0.00    +0.000 A 
ATOM     19  C   UNL     1       5.791   3.851  15.343  0.00  0.00    +0.000 A 
ATOM     20  C   UNL     1       5.771   3.578  13.980  0.00  0.00    +0.000 A 
ATOM     21  C   UNL     1       6.644   4.257  13.143  0.00  0.00    +0.000 A 
ATOM     22  C   UNL     1       7.571   5.096  13.729  0.00  0.00    +0.000 A 
ATOM     23 CL   UNL     1       8.697   5.975  12.783  0.00  0.00    +0.000 Cl
ATOM     24  N   UNL     1       7.597   5.402  15.038  0.00  0.00    +0.000 NA
ENDBRANCH  15  18
ENDBRANCH  14  15
ENDBRANCH   1  14
TORSDOF 5
ENDMDL
MODEL 7
REMARK VINA RESULT:      -6.4      1.982      3.111
REMARK  Name = 
REMARK  7 active torsions:
REMARK  status: ('A' for Active; 'I' for Inactive)
REMARK    1  A    between atoms: C_1  and  C_2
REMARK    2  A    between atoms: C_4  and  S_5
REMARK    3  A    between atoms: S_5  and  N_8
REMARK    4  A    between atoms: N_8  and  C_9
REMARK    5  A    between atoms: N_8  and  C_10
REMARK    6  A    between atoms: C_10  and  C_11
REMARK    7  A    between atoms: C_11  and  C_12
REMARK                            x       y       z     vdW  Elec       q    Type
REMARK                         _______ _______ _______ _____ _____    ______ ____
ROOT
ATOM      1  N   UNL     1       4.704   4.567  18.542  0.00  0.00    +0.000 NA
ATOM      2  C   UNL     1       4.813   3.196  19.099  0.00  0.00    +0.000 C 
ENDROOT
BRANCH   1   3
ATOM      3  S   UNL     1       6.150   5.247  17.906  0.00  0.00    +0.000 S 
ATOM      4  O   UNL     1       7.248   4.561  18.569  0.00  0.00    +0.000 OA
ATOM      5  O   UNL     1       6.059   6.684  17.905  0.00  0.00    +0.000 OA
BRANCH   3   9
ATOM      6  C   UNL     1       8.180   5.480  13.036  0.00  0.00    +0.000 C 
ATOM      7  C   UNL     1       7.173   4.888  13.981  0.00  0.00    +0.000 A 
ATOM      8  C   UNL     1       7.169   5.274  15.333  0.00  0.00    +0.000 A 
ATOM      9  C   UNL     1       6.199   4.757  16.198  0.00  0.00    +0.000 A 
ATOM     10  C   UNL     1       5.255   3.831  15.749  0.00  0.00    +0.000 A 
ATOM     11  C   UNL     1       5.269   3.428  14.417  0.00  0.00    +0.000 A 
ATOM     12  C   UNL     1       6.218   3.952  13.539  0.00  0.00    +0.000 A 
ATOM     13 CL   UNL     1       6.163   3.418  11.897  0.00  0.00    +0.000 Cl
ENDBRANCH   3   9
ENDBRANCH   1   3
BRANCH   1  14
ATOM     14  C   UNL     1       4.083   5.456  19.608  0.00  0.00    +0.000 C 
BRANCH  14  15
ATOM     15  C   UNL     1       2.659   5.892  19.343  0.00  0.00    +0.000 C 
ATOM     16  C   UNL     1       1.771   4.946  18.566  0.00  0.00    +0.000 C 
ATOM     17  O   UNL     1       1.640   5.103  19.982  0.00  0.00    +0.000 OA
BRANCH  15  18
ATOM     18  C   UNL     1       2.515   7.390  19.273  0.00  0.00    +0.000 A 
ATOM     19  C   UNL     1       2.723   8.044  18.058  0.00  0.00    +0.000 A 
ATOM     20  C   UNL     1       1.899   9.112  17.722  0.00  0.00    +0.000 A 
ATOM     21  C   UNL     1       0.977   9.571  18.652  0.00  0.00    +0.000 A 
ATOM     22  C   UNL     1       1.004   9.008  19.912  0.00  0.00    +0.000 A 
ATOM     23 CL   UNL     1      -0.089   9.509  21.132  0.00  0.00    +0.000 Cl
ATOM     24  N   UNL     1       1.769   7.957  20.258  0.00  0.00    +0.000 NA
ENDBRANCH  15  18
ENDBRANCH  14  15
ENDBRANCH   1  14
TORSDOF 5
ENDMDL
MODEL 8
REMARK VINA RESULT:      -6.4      3.247      4.684
REMARK  Name = 
REMARK  7 active torsions:
REMARK  status: ('A' for Active; 'I' for Inactive)
REMARK    1  A    between atoms: C_1  and  C_2
REMARK    2  A    between atoms: C_4  and  S_5
REMARK    3  A    between atoms: S_5  and  N_8
REMARK    4  A    between atoms: N_8  and  C_9
REMARK    5  A    between atoms: N_8  and  C_10
REMARK    6  A    between atoms: C_10  and  C_11
REMARK    7  A    between atoms: C_11  and  C_12
REMARK                            x       y       z     vdW  Elec       q    Type
REMARK                         _______ _______ _______ _____ _____    ______ ____
ROOT
ATOM      1  N   UNL     1       1.934   4.361  19.547  0.00  0.00    +0.000 NA
ATOM      2  C   UNL     1       0.778   4.090  20.438  0.00  0.00    +0.000 C 
ENDROOT
BRANCH   1   3
ATOM      3  S   UNL     1       3.058   3.075  19.347  0.00  0.00    +0.000 S 
ATOM      4  O   UNL     1       2.344   2.014  18.653  0.00  0.00    +0.000 OA
ATOM      5  O   UNL     1       3.744   2.825  20.589  0.00  0.00    +0.000 OA
BRANCH   3   9
ATOM      6  C   UNL     1       7.764   5.226  18.287  0.00  0.00    +0.000 C 
ATOM      7  C   UNL     1       6.465   4.662  17.782  0.00  0.00    +0.000 A 
ATOM      8  C   UNL     1       5.516   4.164  18.692  0.00  0.00    +0.000 A 
ATOM      9  C   UNL     1       4.289   3.685  18.221  0.00  0.00    +0.000 A 
ATOM     10  C   UNL     1       4.005   3.657  16.854  0.00  0.00    +0.000 A 
ATOM     11  C   UNL     1       4.951   4.128  15.947  0.00  0.00    +0.000 A 
ATOM     12  C   UNL     1       6.170   4.627  16.405  0.00  0.00    +0.000 A 
ATOM     13 CL   UNL     1       7.287   5.209  15.222  0.00  0.00    +0.000 Cl
ENDBRANCH   3   9
ENDBRANCH   1   3
BRANCH   1  14
ATOM     14  C   UNL     1       2.611   5.632  20.034  0.00  0.00    +0.000 C 
BRANCH  14  15
ATOM     15  C   UNL     1       2.385   6.858  19.178  0.00  0.00    +0.000 C 
ATOM     16  C   UNL     1       3.500   7.275  18.244  0.00  0.00    +0.000 C 
ATOM     17  O   UNL     1       2.322   6.623  17.760  0.00  0.00    +0.000 OA
BRANCH  15  18
ATOM     18  C   UNL     1       1.445   7.847  19.817  0.00  0.00    +0.000 A 
ATOM     19  C   UNL     1       1.235   7.801  21.196  0.00  0.00    +0.000 A 
ATOM     20  C   UNL     1       1.114   8.997  21.895  0.00  0.00    +0.000 A 
ATOM     21  C   UNL     1       1.085  10.191  21.190  0.00  0.00    +0.000 A 
ATOM     22  C   UNL     1       1.068  10.119  19.811  0.00  0.00    +0.000 A 
ATOM     23 CL   UNL     1       1.026  11.536  18.848  0.00  0.00    +0.000 Cl
ATOM     24  N   UNL     1       1.212   8.982  19.108  0.00  0.00    +0.000 NA
ENDBRANCH  15  18
ENDBRANCH  14  15
ENDBRANCH   1  14
TORSDOF 5
ENDMDL
MODEL 9
REMARK VINA RESULT:      -6.4      1.078      1.328
REMARK  Name = 
REMARK  7 active torsions:
REMARK  status: ('A' for Active; 'I' for Inactive)
REMARK    1  A    between atoms: C_1  and  C_2
REMARK    2  A    between atoms: C_4  and  S_5
REMARK    3  A    between atoms: S_5  and  N_8
REMARK    4  A    between atoms: N_8  and  C_9
REMARK    5  A    between atoms: N_8  and  C_10
REMARK    6  A    between atoms: C_10  and  C_11
REMARK    7  A    between atoms: C_11  and  C_12
REMARK                            x       y       z     vdW  Elec       q    Type
REMARK                         _______ _______ _______ _____ _____    ______ ____
ROOT
ATOM      1  N   UNL     1       5.347   6.164  18.153  0.00  0.00    +0.000 NA
ATOM      2  C   UNL     1       5.980   7.439  17.732  0.00  0.00    +0.000 C 
ENDROOT
BRANCH   1   3
ATOM      3  S   UNL     1       6.301   4.745  17.966  0.00  0.00    +0.000 S 
ATOM      4  O   UNL     1       5.547   3.663  18.580  0.00  0.00    +0.000 OA
ATOM      5  O   UNL     1       7.664   5.016  18.348  0.00  0.00    +0.000 OA
BRANCH   3   9
ATOM      6  C   UNL     1       8.170   5.567  13.095  0.00  0.00    +0.000 C 
ATOM      7  C   UNL     1       7.235   4.819  14.004  0.00  0.00    +0.000 A 
ATOM      8  C   UNL     1       7.242   5.080  15.385  0.00  0.00    +0.000 A 
ATOM      9  C   UNL     1       6.336   4.417  16.220  0.00  0.00    +0.000 A 
ATOM     10  C   UNL     1       5.448   3.470  15.708  0.00  0.00    +0.000 A 
ATOM     11  C   UNL     1       5.452   3.191  14.344  0.00  0.00    +0.000 A 
ATOM     12  C   UNL     1       6.336   3.860  13.498  0.00  0.00    +0.000 A 
ATOM     13 CL   UNL     1       6.272   3.474  11.815  0.00  0.00    +0.000 Cl
ENDBRANCH   3   9
ENDBRANCH   1   3
BRANCH   1  14
ATOM     14  C   UNL     1       4.013   6.046  17.434  0.00  0.00    +0.000 C 
BRANCH  14  15
ATOM     15  C   UNL     1       2.790   6.083  18.323  0.00  0.00    +0.000 C 
ATOM     16  C   UNL     1       2.779   7.085  19.457  0.00  0.00    +0.000 C 
ATOM     17  O   UNL     1       2.016   7.294  18.265  0.00  0.00    +0.000 OA
BRANCH  15  18
ATOM     18  C   UNL     1       2.092   4.750  18.405  0.00  0.00    +0.000 A 
ATOM     19  C   UNL     1       2.286   3.811  17.392  0.00  0.00    +0.000 A 
ATOM     20  C   UNL     1       2.394   2.468  17.735  0.00  0.00    +0.000 A 
ATOM     21  C   UNL     1       2.189   2.089  19.053  0.00  0.00    +0.000 A 
ATOM     22  C   UNL     1       1.776   3.062  19.941  0.00  0.00    +0.000 A 
ATOM     23 CL   UNL     1       1.489   2.696  21.590  0.00  0.00    +0.000 Cl
ATOM     24  N   UNL     1       1.689   4.372  19.647  0.00  0.00    +0.000 NA
ENDBRANCH  15  18
ENDBRANCH  14  15
ENDBRANCH   1  14
TORSDOF 5
ENDMDL
