MODEL 1
REMARK VINA RESULT:      -7.3      0.000      0.000
REMARK  Name = 
REMARK  11 active torsions:
REMARK  status: ('A' for Active; 'I' for Inactive)
REMARK    1  A    between atoms: C_1  and  C_2
REMARK    2  A    between atoms: C_4  and  C_5
REMARK    3  A    between atoms: C_6  and  N_7
REMARK    4  A    between atoms: N_10  and  C_11
REMARK    5  A    between atoms: C_14  and  O_15
REMARK    6  A    between atoms: O_15  and  C_16
REMARK    7  A    between atoms: C_16  and  C_17
REMARK    8  A    between atoms: C_16  and  C_18
REMARK    9  A    between atoms: C_16  and  C_19
REMARK   10  A    between atoms: C_19  and  O_21
REMARK   11  A    between atoms: C_24  and  C_25
REMARK                            x       y       z     vdW  Elec       q    Type
REMARK                         _______ _______ _______ _____ _____    ______ ____
ROOT
ATOM      1  N   UNL     1      -1.668  11.677  18.397  0.00  0.00    +0.000 N 
ATOM      2  C   UNL     1      -1.107  10.406  18.503  0.00  0.00    +0.000 C 
ATOM      3  O   UNL     1      -1.736   9.354  18.495  0.00  0.00    +0.000 OA
ATOM      4  N   UNL     1       0.270  10.486  18.689  0.00  0.00    +0.000 N 
ATOM      5  H   UNL     1      -1.110  12.415  18.793  0.00  0.00    +0.000 HD
ATOM      6  H   UNL     1       0.593  11.326  19.143  0.00  0.00    +0.000 HD
ENDROOT
BRANCH   1  12
ATOM      7  C   UNL     1      -7.342  12.583  18.244  0.00  0.00    +0.000 C 
ATOM      8  C   UNL     1      -5.862  12.345  18.279  0.00  0.00    +0.000 A 
ATOM      9  C   UNL     1      -5.183  11.823  17.177  0.00  0.00    +0.000 A 
ATOM     10  C   UNL     1      -3.796  11.592  17.219  0.00  0.00    +0.000 A 
ATOM     11  C   UNL     1      -3.129  11.073  15.972  0.00  0.00    +0.000 C 
ATOM     12  C   UNL     1      -3.070  11.904  18.394  0.00  0.00    +0.000 A 
ATOM     13  C   UNL     1      -3.758  12.378  19.528  0.00  0.00    +0.000 A 
ATOM     14  C   UNL     1      -3.113  12.597  20.869  0.00  0.00    +0.000 C 
ATOM     15  C   UNL     1      -5.142  12.623  19.441  0.00  0.00    +0.000 A 
ENDBRANCH   1  12
BRANCH   4  16
ATOM     16  C   UNL     1       1.095   9.350  18.846  0.00  0.00    +0.000 A 
ATOM     17  C   UNL     1       1.202   8.642  20.043  0.00  0.00    +0.000 A 
ATOM     18  C   UNL     1       2.043   7.518  20.129  0.00  0.00    +0.000 A 
ATOM     19  C   UNL     1       2.793   7.088  19.027  0.00  0.00    +0.000 A 
ATOM     20  C   UNL     1       2.671   7.805  17.840  0.00  0.00    +0.000 A 
ATOM     21  C   UNL     1       1.818   8.912  17.742  0.00  0.00    +0.000 A 
BRANCH  19  22
ATOM     22  O   UNL     1       3.617   6.015  19.247  0.00  0.00    +0.000 OA
BRANCH  22  23
ATOM     23  C   UNL     1       3.462   4.770  18.520  0.00  0.00    +0.000 C 
ATOM     24  C   UNL     1       1.990   4.384  18.352  0.00  0.00    +0.000 C 
ATOM     25  C   UNL     1       4.315   4.704  17.246  0.00  0.00    +0.000 C 
BRANCH  23  26
ATOM     26  C   UNL     1       4.064   3.660  19.413  0.00  0.00    +0.000 C 
ATOM     27  O   UNL     1       3.455   3.067  20.300  0.00  0.00    +0.000 OA
BRANCH  26  28
ATOM     28  O   UNL     1       5.365   3.365  19.138  0.00  0.00    +0.000 OA
ATOM     29  H   UNL     1       5.447   2.389  19.045  0.00  0.00    +0.000 HD
ENDBRANCH  26  28
ENDBRANCH  23  26
ENDBRANCH  22  23
ENDBRANCH  19  22
ENDBRANCH   4  16
TORSDOF 6
ENDMDL
MODEL 2
REMARK VINA RESULT:      -7.3      0.594      1.955
REMARK  Name = 
REMARK  11 active torsions:
REMARK  status: ('A' for Active; 'I' for Inactive)
REMARK    1  A    between atoms: C_1  and  C_2
REMARK    2  A    between atoms: C_4  and  C_5
REMARK    3  A    between atoms: C_6  and  N_7
REMARK    4  A    between atoms: N_10  and  C_11
REMARK    5  A    between atoms: C_14  and  O_15
REMARK    6  A    between atoms: O_15  and  C_16
REMARK    7  A    between atoms: C_16  and  C_17
REMARK    8  A    between atoms: C_16  and  C_18
REMARK    9  A    between atoms: C_16  and  C_19
REMARK   10  A    between atoms: C_19  and  O_21
REMARK   11  A    between atoms: C_24  and  C_25
REMARK                            x       y       z     vdW  Elec       q    Type
REMARK                         _______ _______ _______ _____ _____    ______ ____
ROOT
ATOM      1  N   UNL     1      -1.663  11.649  18.494  0.00  0.00    +0.000 N 
ATOM      2  C   UNL     1      -1.093  10.378  18.527  0.00  0.00    +0.000 C 
ATOM      3  O   UNL     1      -1.704   9.325  18.389  0.00  0.00    +0.000 OA
ATOM      4  N   UNL     1       0.269  10.454  18.808  0.00  0.00    +0.000 N 
ATOM      5  H   UNL     1      -1.143  12.355  18.986  0.00  0.00    +0.000 HD
ATOM      6  H   UNL     1       0.550  11.255  19.352  0.00  0.00    +0.000 HD
ENDROOT
BRANCH   1  12
ATOM      7  C   UNL     1      -7.342  12.528  18.326  0.00  0.00    +0.000 C 
ATOM      8  C   UNL     1      -5.860  12.301  18.375  0.00  0.00    +0.000 A 
ATOM      9  C   UNL     1      -5.111  12.627  19.506  0.00  0.00    +0.000 A 
ATOM     10  C   UNL     1      -3.720  12.420  19.543  0.00  0.00    +0.000 A 
ATOM     11  C   UNL     1      -2.990  12.752  20.818  0.00  0.00    +0.000 C 
ATOM     12  C   UNL     1      -3.066  11.862  18.418  0.00  0.00    +0.000 A 
ATOM     13  C   UNL     1      -3.807  11.583  17.253  0.00  0.00    +0.000 A 
ATOM     14  C   UNL     1      -3.192  11.133  15.956  0.00  0.00    +0.000 C 
ATOM     15  C   UNL     1      -5.201  11.777  17.262  0.00  0.00    +0.000 A 
ENDBRANCH   1  12
BRANCH   4  16
ATOM     16  C   UNL     1       1.099   9.317  18.922  0.00  0.00    +0.000 A 
ATOM     17  C   UNL     1       1.204   8.560  20.088  0.00  0.00    +0.000 A 
ATOM     18  C   UNL     1       2.050   7.437  20.131  0.00  0.00    +0.000 A 
ATOM     19  C   UNL     1       2.806   7.056  19.016  0.00  0.00    +0.000 A 
ATOM     20  C   UNL     1       2.686   7.822  17.858  0.00  0.00    +0.000 A 
ATOM     21  C   UNL     1       1.828   8.928  17.803  0.00  0.00    +0.000 A 
BRANCH  19  22
ATOM     22  O   UNL     1       3.634   5.979  19.194  0.00  0.00    +0.000 OA
BRANCH  22  23
ATOM     23  C   UNL     1       3.175   4.619  18.986  0.00  0.00    +0.000 C 
ATOM     24  C   UNL     1       2.922   3.892  20.310  0.00  0.00    +0.000 C 
ATOM     25  C   UNL     1       2.053   4.511  17.945  0.00  0.00    +0.000 C 
BRANCH  23  26
ATOM     26  C   UNL     1       4.348   3.854  18.331  0.00  0.00    +0.000 C 
ATOM     27  O   UNL     1       4.387   3.502  17.155  0.00  0.00    +0.000 OA
BRANCH  26  28
ATOM     28  O   UNL     1       5.384   3.588  19.176  0.00  0.00    +0.000 OA
ATOM     29  H   UNL     1       5.110   3.838  20.087  0.00  0.00    +0.000 HD
ENDBRANCH  26  28
ENDBRANCH  23  26
ENDBRANCH  22  23
ENDBRANCH  19  22
ENDBRANCH   4  16
TORSDOF 6
ENDMDL
MODEL 3
REMARK VINA RESULT:      -7.3      0.589      1.835
REMARK  Name = 
REMARK  11 active torsions:
REMARK  status: ('A' for Active; 'I' for Inactive)
REMARK    1  A    between atoms: C_1  and  C_2
REMARK    2  A    between atoms: C_4  and  C_5
REMARK    3  A    between atoms: C_6  and  N_7
REMARK    4  A    between atoms: N_10  and  C_11
REMARK    5  A    between atoms: C_14  and  O_15
REMARK    6  A    between atoms: O_15  and  C_16
REMARK    7  A    between atoms: C_16  and  C_17
REMARK    8  A    between atoms: C_16  and  C_18
REMARK    9  A    between atoms: C_16  and  C_19
REMARK   10  A    between atoms: C_19  and  O_21
REMARK   11  A    between atoms: C_24  and  C_25
REMARK                            x       y       z     vdW  Elec       q    Type
REMARK                         _______ _______ _______ _____ _____    ______ ____
ROOT
ATOM      1  N   UNL     1      -1.510  11.584  18.379  0.00  0.00    +0.000 N 
ATOM      2  C   UNL     1      -0.924  10.320  18.362  0.00  0.00    +0.000 C 
ATOM      3  O   UNL     1      -1.517   9.268  18.153  0.00  0.00    +0.000 OA
ATOM      4  N   UNL     1       0.428  10.397  18.684  0.00  0.00    +0.000 N 
ATOM      5  H   UNL     1      -1.013  12.270  18.921  0.00  0.00    +0.000 HD
ATOM      6  H   UNL     1       0.684  11.172  19.277  0.00  0.00    +0.000 HD
ENDROOT
BRANCH   1  12
ATOM      7  C   UNL     1      -7.193  12.405  18.098  0.00  0.00    +0.000 C 
ATOM      8  C   UNL     1      -5.710  12.193  18.177  0.00  0.00    +0.000 A 
ATOM      9  C   UNL     1      -4.993  12.492  19.336  0.00  0.00    +0.000 A 
ATOM     10  C   UNL     1      -3.600  12.299  19.400  0.00  0.00    +0.000 A 
ATOM     11  C   UNL     1      -2.906  12.598  20.703  0.00  0.00    +0.000 C 
ATOM     12  C   UNL     1      -2.913  11.784  18.275  0.00  0.00    +0.000 A 
ATOM     13  C   UNL     1      -3.623  11.534  17.085  0.00  0.00    +0.000 A 
ATOM     14  C   UNL     1      -2.971  11.131  15.789  0.00  0.00    +0.000 C 
ATOM     15  C   UNL     1      -5.019  11.711  17.065  0.00  0.00    +0.000 A 
ENDBRANCH   1  12
BRANCH   4  16
ATOM     16  C   UNL     1       1.270   9.266  18.762  0.00  0.00    +0.000 A 
ATOM     17  C   UNL     1       1.339   8.439  19.883  0.00  0.00    +0.000 A 
ATOM     18  C   UNL     1       2.199   7.326  19.892  0.00  0.00    +0.000 A 
ATOM     19  C   UNL     1       3.006   7.025  18.788  0.00  0.00    +0.000 A 
ATOM     20  C   UNL     1       2.922   7.860  17.676  0.00  0.00    +0.000 A 
ATOM     21  C   UNL     1       2.051   8.957  17.653  0.00  0.00    +0.000 A 
BRANCH  19  22
ATOM     22  O   UNL     1       3.842   5.950  18.934  0.00  0.00    +0.000 OA
BRANCH  22  23
ATOM     23  C   UNL     1       3.834   4.841  17.998  0.00  0.00    +0.000 C 
ATOM     24  C   UNL     1       2.421   4.298  17.768  0.00  0.00    +0.000 C 
ATOM     25  C   UNL     1       4.656   5.113  16.731  0.00  0.00    +0.000 C 
BRANCH  23  26
ATOM     26  C   UNL     1       4.598   3.683  18.680  0.00  0.00    +0.000 C 
ATOM     27  O   UNL     1       5.394   3.816  19.606  0.00  0.00    +0.000 OA
BRANCH  26  28
ATOM     28  O   UNL     1       4.316   2.451  18.171  0.00  0.00    +0.000 OA
ATOM     29  H   UNL     1       4.091   1.852  18.919  0.00  0.00    +0.000 HD
ENDBRANCH  26  28
ENDBRANCH  23  26
ENDBRANCH  22  23
ENDBRANCH  19  22
ENDBRANCH   4  16
TORSDOF 6
ENDMDL
MODEL 4
REMARK VINA RESULT:      -7.2      0.645      1.265
REMARK  Name = 
REMARK  11 active torsions:
REMARK  status: ('A' for Active; 'I' for Inactive)
REMARK    1  A    between atoms: C_1  and  C_2
REMARK    2  A    between atoms: C_4  and  C_5
REMARK    3  A    between atoms: C_6  and  N_7
REMARK    4  A    between atoms: N_10  and  C_11
REMARK    5  A    between atoms: C_14  and  O_15
REMARK    6  A    between atoms: O_15  and  C_16
REMARK    7  A    between atoms: C_16  and  C_17
REMARK    8  A    between atoms: C_16  and  C_18
REMARK    9  A    between atoms: C_16  and  C_19
REMARK   10  A    between atoms: C_19  and  O_21
REMARK   11  A    between atoms: C_24  and  C_25
REMARK                            x       y       z     vdW  Elec       q    Type
REMARK                         _______ _______ _______ _____ _____    ______ ____
ROOT
ATOM      1  N   UNL     1      -1.753  11.638  18.049  0.00  0.00    +0.000 N 
ATOM      2  C   UNL     1      -1.184  10.393  18.309  0.00  0.00    +0.000 C 
ATOM      3  O   UNL     1      -1.810   9.360  18.516  0.00  0.00    +0.000 OA
ATOM      4  N   UNL     1       0.204  10.486  18.369  0.00  0.00    +0.000 N 
ATOM      5  H   UNL     1      -1.167  12.423  18.278  0.00  0.00    +0.000 HD
ATOM      6  H   UNL     1       0.560  11.383  18.659  0.00  0.00    +0.000 HD
ENDROOT
BRANCH   1  12
ATOM      7  C   UNL     1      -7.421  12.590  18.204  0.00  0.00    +0.000 C 
ATOM      8  C   UNL     1      -5.942  12.340  18.158  0.00  0.00    +0.000 A 
ATOM      9  C   UNL     1      -5.332  11.794  17.029  0.00  0.00    +0.000 A 
ATOM     10  C   UNL     1      -3.946  11.552  16.995  0.00  0.00    +0.000 A 
ATOM     11  C   UNL     1      -3.355  11.007  15.722  0.00  0.00    +0.000 C 
ATOM     12  C   UNL     1      -3.152  11.877  18.121  0.00  0.00    +0.000 A 
ATOM     13  C   UNL     1      -3.770  12.376  19.285  0.00  0.00    +0.000 A 
ATOM     14  C   UNL     1      -3.048  12.610  20.584  0.00  0.00    +0.000 C 
ATOM     15  C   UNL     1      -5.155  12.631  19.273  0.00  0.00    +0.000 A 
ENDBRANCH   1  12
BRANCH   4  16
ATOM     16  C   UNL     1       1.041   9.381  18.637  0.00  0.00    +0.000 A 
ATOM     17  C   UNL     1       1.843   8.776  17.670  0.00  0.00    +0.000 A 
ATOM     18  C   UNL     1       2.655   7.677  18.008  0.00  0.00    +0.000 A 
ATOM     19  C   UNL     1       2.674   7.164  19.310  0.00  0.00    +0.000 A 
ATOM     20  C   UNL     1       1.869   7.783  20.263  0.00  0.00    +0.000 A 
ATOM     21  C   UNL     1       1.076   8.890  19.938  0.00  0.00    +0.000 A 
BRANCH  19  22
ATOM     22  O   UNL     1       3.461   6.060  19.505  0.00  0.00    +0.000 OA
BRANCH  22  23
ATOM     23  C   UNL     1       2.908   4.719  19.525  0.00  0.00    +0.000 C 
ATOM     24  C   UNL     1       2.400   4.331  20.917  0.00  0.00    +0.000 C 
ATOM     25  C   UNL     1       1.941   4.447  18.365  0.00  0.00    +0.000 C 
BRANCH  23  26
ATOM     26  C   UNL     1       4.083   3.753  19.247  0.00  0.00    +0.000 C 
ATOM     27  O   UNL     1       4.280   2.698  19.844  0.00  0.00    +0.000 OA
BRANCH  26  28
ATOM     28  O   UNL     1       4.917   4.160  18.250  0.00  0.00    +0.000 OA
ATOM     29  H   UNL     1       4.624   5.048  17.946  0.00  0.00    +0.000 HD
ENDBRANCH  26  28
ENDBRANCH  23  26
ENDBRANCH  22  23
ENDBRANCH  19  22
ENDBRANCH   4  16
TORSDOF 6
ENDMDL
MODEL 5
REMARK VINA RESULT:      -7.1      0.945      2.335
REMARK  Name = 
REMARK  11 active torsions:
REMARK  status: ('A' for Active; 'I' for Inactive)
REMARK    1  A    between atoms: C_1  and  C_2
REMARK    2  A    between atoms: C_4  and  C_5
REMARK    3  A    between atoms: C_6  and  N_7
REMARK    4  A    between atoms: N_10  and  C_11
REMARK    5  A    between atoms: C_14  and  O_15
REMARK    6  A    between atoms: O_15  and  C_16
REMARK    7  A    between atoms: C_16  and  C_17
REMARK    8  A    between atoms: C_16  and  C_18
REMARK    9  A    between atoms: C_16  and  C_19
REMARK   10  A    between atoms: C_19  and  O_21
REMARK   11  A    between atoms: C_24  and  C_25
REMARK                            x       y       z     vdW  Elec       q    Type
REMARK                         _______ _______ _______ _____ _____    ______ ____
ROOT
ATOM      1  N   UNL     1      -1.725  11.630  18.374  0.00  0.00    +0.000 N 
ATOM      2  C   UNL     1      -1.174  10.358  18.510  0.00  0.00    +0.000 C 
ATOM      3  O   UNL     1      -1.807   9.308  18.488  0.00  0.00    +0.000 OA
ATOM      4  N   UNL     1       0.196  10.433  18.743  0.00  0.00    +0.000 N 
ATOM      5  H   UNL     1      -1.178  12.370  18.783  0.00  0.00    +0.000 HD
ATOM      6  H   UNL     1       0.506  11.275  19.201  0.00  0.00    +0.000 HD
ENDROOT
BRANCH   1  12
ATOM      7  C   UNL     1      -7.393  12.587  18.290  0.00  0.00    +0.000 C 
ATOM      8  C   UNL     1      -5.914  12.339  18.318  0.00  0.00    +0.000 A 
ATOM      9  C   UNL     1      -5.144  12.653  19.438  0.00  0.00    +0.000 A 
ATOM     10  C   UNL     1      -3.755  12.428  19.454  0.00  0.00    +0.000 A 
ATOM     11  C   UNL     1      -3.003  12.747  20.719  0.00  0.00    +0.000 C 
ATOM     12  C   UNL     1      -3.125  11.863  18.319  0.00  0.00    +0.000 A 
ATOM     13  C   UNL     1      -3.887  11.596  17.165  0.00  0.00    +0.000 A 
ATOM     14  C   UNL     1      -3.297  11.140  15.858  0.00  0.00    +0.000 C 
ATOM     15  C   UNL     1      -5.278  11.809  17.195  0.00  0.00    +0.000 A 
ENDBRANCH   1  12
BRANCH   4  16
ATOM     16  C   UNL     1       1.010   9.296  18.938  0.00  0.00    +0.000 A 
ATOM     17  C   UNL     1       1.788   8.729  17.930  0.00  0.00    +0.000 A 
ATOM     18  C   UNL     1       2.578   7.595  18.195  0.00  0.00    +0.000 A 
ATOM     19  C   UNL     1       2.598   7.008  19.466  0.00  0.00    +0.000 A 
ATOM     20  C   UNL     1       1.817   7.589  20.462  0.00  0.00    +0.000 A 
ATOM     21  C   UNL     1       1.046   8.731  20.209  0.00  0.00    +0.000 A 
BRANCH  19  22
ATOM     22  O   UNL     1       3.362   5.877  19.589  0.00  0.00    +0.000 OA
BRANCH  22  23
ATOM     23  C   UNL     1       2.816   4.555  19.344  0.00  0.00    +0.000 C 
ATOM     24  C   UNL     1       1.848   4.548  18.158  0.00  0.00    +0.000 C 
ATOM     25  C   UNL     1       3.883   3.453  19.337  0.00  0.00    +0.000 C 
BRANCH  23  26
ATOM     26  C   UNL     1       1.944   4.203  20.571  0.00  0.00    +0.000 C 
ATOM     27  O   UNL     1       2.369   4.053  21.714  0.00  0.00    +0.000 OA
BRANCH  26  28
ATOM     28  O   UNL     1       0.617   4.071  20.294  0.00  0.00    +0.000 OA
ATOM     29  H   UNL     1       0.175   4.930  20.483  0.00  0.00    +0.000 HD
ENDBRANCH  26  28
ENDBRANCH  23  26
ENDBRANCH  22  23
ENDBRANCH  19  22
ENDBRANCH   4  16
TORSDOF 6
ENDMDL
MODEL 6
REMARK VINA RESULT:      -7.1      3.437      4.234
REMARK  Name = 
REMARK  11 active torsions:
REMARK  status: ('A' for Active; 'I' for Inactive)
REMARK    1  A    between atoms: C_1  and  C_2
REMARK    2  A    between atoms: C_4  and  C_5
REMARK    3  A    between atoms: C_6  and  N_7
REMARK    4  A    between atoms: N_10  and  C_11
REMARK    5  A    between atoms: C_14  and  O_15
REMARK    6  A    between atoms: O_15  and  C_16
REMARK    7  A    between atoms: C_16  and  C_17
REMARK    8  A    between atoms: C_16  and  C_18
REMARK    9  A    between atoms: C_16  and  C_19
REMARK   10  A    between atoms: C_19  and  O_21
REMARK   11  A    between atoms: C_24  and  C_25
REMARK                            x       y       z     vdW  Elec       q    Type
REMARK                         _______ _______ _______ _____ _____    ______ ____
ROOT
ATOM      1  N   UNL     1      -0.400  11.989  20.649  0.00  0.00    +0.000 N 
ATOM      2  C   UNL     1       0.504  10.935  20.762  0.00  0.00    +0.000 C 
ATOM      3  O   UNL     1       1.299  10.781  21.682  0.00  0.00    +0.000 OA
ATOM      4  N   UNL     1       0.434  10.101  19.649  0.00  0.00    +0.000 N 
ATOM      5  H   UNL     1      -0.694  12.190  19.707  0.00  0.00    +0.000 HD
ATOM      6  H   UNL     1       0.135  10.549  18.797  0.00  0.00    +0.000 HD
ENDROOT
BRANCH   1  12
ATOM      7  C   UNL     1      -0.564  16.401  24.330  0.00  0.00    +0.000 C 
ATOM      8  C   UNL     1      -0.525  15.247  23.373  0.00  0.00    +0.000 A 
ATOM      9  C   UNL     1      -1.242  14.075  23.617  0.00  0.00    +0.000 A 
ATOM     10  C   UNL     1      -1.193  12.991  22.720  0.00  0.00    +0.000 A 
ATOM     11  C   UNL     1      -2.033  11.781  23.030  0.00  0.00    +0.000 C 
ATOM     12  C   UNL     1      -0.413  13.092  21.543  0.00  0.00    +0.000 A 
ATOM     13  C   UNL     1       0.356  14.251  21.319  0.00  0.00    +0.000 A 
ATOM     14  C   UNL     1       1.333  14.403  20.184  0.00  0.00    +0.000 C 
ATOM     15  C   UNL     1       0.262  15.326  22.223  0.00  0.00    +0.000 A 
ENDBRANCH   1  12
BRANCH   4  16
ATOM     16  C   UNL     1       1.252   8.961  19.486  0.00  0.00    +0.000 A 
ATOM     17  C   UNL     1       1.388   7.971  20.458  0.00  0.00    +0.000 A 
ATOM     18  C   UNL     1       2.220   6.860  20.228  0.00  0.00    +0.000 A 
ATOM     19  C   UNL     1       2.930   6.723  19.029  0.00  0.00    +0.000 A 
ATOM     20  C   UNL     1       2.780   7.719  18.068  0.00  0.00    +0.000 A 
ATOM     21  C   UNL     1       1.936   8.817  18.283  0.00  0.00    +0.000 A 
BRANCH  19  22
ATOM     22  O   UNL     1       3.749   5.628  18.942  0.00  0.00    +0.000 OA
BRANCH  22  23
ATOM     23  C   UNL     1       3.453   4.520  18.054  0.00  0.00    +0.000 C 
ATOM     24  C   UNL     1       1.948   4.362  17.819  0.00  0.00    +0.000 C 
ATOM     25  C   UNL     1       4.327   4.505  16.794  0.00  0.00    +0.000 C 
BRANCH  23  26
ATOM     26  C   UNL     1       3.875   3.232  18.799  0.00  0.00    +0.000 C 
ATOM     27  O   UNL     1       3.119   2.309  19.090  0.00  0.00    +0.000 OA
BRANCH  26  28
ATOM     28  O   UNL     1       5.198   3.181  19.122  0.00  0.00    +0.000 OA
ATOM     29  H   UNL     1       5.410   2.266  19.413  0.00  0.00    +0.000 HD
ENDBRANCH  26  28
ENDBRANCH  23  26
ENDBRANCH  22  23
ENDBRANCH  19  22
ENDBRANCH   4  16
TORSDOF 6
ENDMDL
MODEL 7
REMARK VINA RESULT:      -7.0      1.129      2.202
REMARK  Name = 
REMARK  11 active torsions:
REMARK  status: ('A' for Active; 'I' for Inactive)
REMARK    1  A    between atoms: C_1  and  C_2
REMARK    2  A    between atoms: C_4  and  C_5
REMARK    3  A    between atoms: C_6  and  N_7
REMARK    4  A    between atoms: N_10  and  C_11
REMARK    5  A    between atoms: C_14  and  O_15
REMARK    6  A    between atoms: O_15  and  C_16
REMARK    7  A    between atoms: C_16  and  C_17
REMARK    8  A    between atoms: C_16  and  C_18
REMARK    9  A    between atoms: C_16  and  C_19
REMARK   10  A    between atoms: C_19  and  O_21
REMARK   11  A    between atoms: C_24  and  C_25
REMARK                            x       y       z     vdW  Elec       q    Type
REMARK                         _______ _______ _______ _____ _____    ______ ____
ROOT
ATOM      1  N   UNL     1      -0.896  11.657  19.327  0.00  0.00    +0.000 N 
ATOM      2  C   UNL     1      -0.478  10.328  19.303  0.00  0.00    +0.000 C 
ATOM      3  O   UNL     1      -1.203   9.356  19.481  0.00  0.00    +0.000 OA
ATOM      4  N   UNL     1       0.899  10.245  19.114  0.00  0.00    +0.000 N 
ATOM      5  H   UNL     1      -0.171  12.320  19.548  0.00  0.00    +0.000 HD
ATOM      6  H   UNL     1       1.426  11.036  19.452  0.00  0.00    +0.000 HD
ENDROOT
BRANCH   1  12
ATOM      7  C   UNL     1      -6.184  13.234  20.936  0.00  0.00    +0.000 C 
ATOM      8  C   UNL     1      -4.802  12.825  20.522  0.00  0.00    +0.000 A 
ATOM      9  C   UNL     1      -3.705  13.011  21.363  0.00  0.00    +0.000 A 
ATOM     10  C   UNL     1      -2.409  12.634  20.964  0.00  0.00    +0.000 A 
ATOM     11  C   UNL     1      -1.285  12.822  21.949  0.00  0.00    +0.000 C 
ATOM     12  C   UNL     1      -2.213  12.044  19.692  0.00  0.00    +0.000 A 
ATOM     13  C   UNL     1      -3.307  11.905  18.817  0.00  0.00    +0.000 A 
ATOM     14  C   UNL     1      -3.187  11.434  17.393  0.00  0.00    +0.000 C 
ATOM     15  C   UNL     1      -4.593  12.268  19.259  0.00  0.00    +0.000 A 
ENDBRANCH   1  12
BRANCH   4  16
ATOM     16  C   UNL     1       1.600   9.020  19.067  0.00  0.00    +0.000 A 
ATOM     17  C   UNL     1       1.661   8.132  20.140  0.00  0.00    +0.000 A 
ATOM     18  C   UNL     1       2.377   6.926  20.023  0.00  0.00    +0.000 A 
ATOM     19  C   UNL     1       3.047   6.593  18.839  0.00  0.00    +0.000 A 
ATOM     20  C   UNL     1       2.972   7.491  17.777  0.00  0.00    +0.000 A 
ATOM     21  C   UNL     1       2.242   8.682  17.880  0.00  0.00    +0.000 A 
BRANCH  19  22
ATOM     22  O   UNL     1       3.755   5.420  18.863  0.00  0.00    +0.000 OA
BRANCH  22  23
ATOM     23  C   UNL     1       3.454   4.327  17.959  0.00  0.00    +0.000 C 
ATOM     24  C   UNL     1       1.949   4.188  17.709  0.00  0.00    +0.000 C 
ATOM     25  C   UNL     1       4.339   4.318  16.705  0.00  0.00    +0.000 C 
BRANCH  23  26
ATOM     26  C   UNL     1       3.857   3.026  18.691  0.00  0.00    +0.000 C 
ATOM     27  O   UNL     1       3.153   2.023  18.779  0.00  0.00    +0.000 OA
BRANCH  26  28
ATOM     28  O   UNL     1       5.098   3.061  19.252  0.00  0.00    +0.000 OA
ATOM     29  H   UNL     1       5.231   3.951  19.650  0.00  0.00    +0.000 HD
ENDBRANCH  26  28
ENDBRANCH  23  26
ENDBRANCH  22  23
ENDBRANCH  19  22
ENDBRANCH   4  16
TORSDOF 6
ENDMDL
MODEL 8
REMARK VINA RESULT:      -7.0      2.567      3.724
REMARK  Name = 
REMARK  11 active torsions:
REMARK  status: ('A' for Active; 'I' for Inactive)
REMARK    1  A    between atoms: C_1  and  C_2
REMARK    2  A    between atoms: C_4  and  C_5
REMARK    3  A    between atoms: C_6  and  N_7
REMARK    4  A    between atoms: N_10  and  C_11
REMARK    5  A    between atoms: C_14  and  O_15
REMARK    6  A    between atoms: O_15  and  C_16
REMARK    7  A    between atoms: C_16  and  C_17
REMARK    8  A    between atoms: C_16  and  C_18
REMARK    9  A    between atoms: C_16  and  C_19
REMARK   10  A    between atoms: C_19  and  O_21
REMARK   11  A    between atoms: C_24  and  C_25
REMARK                            x       y       z     vdW  Elec       q    Type
REMARK                         _______ _______ _______ _____ _____    ______ ____
ROOT
ATOM      1  N   UNL     1       0.648  11.507  18.192  0.00  0.00    +0.000 N 
ATOM      2  C   UNL     1       1.114  10.415  18.919  0.00  0.00    +0.000 C 
ATOM      3  O   UNL     1       1.182  10.356  20.142  0.00  0.00    +0.000 OA
ATOM      4  N   UNL     1       1.563   9.408  18.069  0.00  0.00    +0.000 N 
ATOM      5  H   UNL     1       0.999  11.565  17.250  0.00  0.00    +0.000 HD
ATOM      6  H   UNL     1       1.901   9.724  17.173  0.00  0.00    +0.000 HD
ENDROOT
BRANCH   1  12
ATOM      7  C   UNL     1      -0.590  16.561  20.636  0.00  0.00    +0.000 C 
ATOM      8  C   UNL     1      -0.262  15.244  19.997  0.00  0.00    +0.000 A 
ATOM      9  C   UNL     1       0.979  15.014  19.401  0.00  0.00    +0.000 A 
ATOM     10  C   UNL     1       1.277  13.780  18.794  0.00  0.00    +0.000 A 
ATOM     11  C   UNL     1       2.656  13.593  18.217  0.00  0.00    +0.000 C 
ATOM     12  C   UNL     1       0.309  12.748  18.796  0.00  0.00    +0.000 A 
ATOM     13  C   UNL     1      -0.964  12.993  19.346  0.00  0.00    +0.000 A 
ATOM     14  C   UNL     1      -2.113  12.024  19.266  0.00  0.00    +0.000 C 
ATOM     15  C   UNL     1      -1.219  14.229  19.969  0.00  0.00    +0.000 A 
ENDBRANCH   1  12
BRANCH   4  16
ATOM     16  C   UNL     1       2.107   8.190  18.532  0.00  0.00    +0.000 A 
ATOM     17  C   UNL     1       1.735   7.595  19.737  0.00  0.00    +0.000 A 
ATOM     18  C   UNL     1       2.317   6.378  20.138  0.00  0.00    +0.000 A 
ATOM     19  C   UNL     1       3.281   5.742  19.347  0.00  0.00    +0.000 A 
ATOM     20  C   UNL     1       3.639   6.349  18.145  0.00  0.00    +0.000 A 
ATOM     21  C   UNL     1       3.046   7.549  17.731  0.00  0.00    +0.000 A 
BRANCH  19  22
ATOM     22  O   UNL     1       3.816   4.592  19.866  0.00  0.00    +0.000 OA
BRANCH  22  23
ATOM     23  C   UNL     1       3.090   3.337  19.852  0.00  0.00    +0.000 C 
ATOM     24  C   UNL     1       2.438   3.038  21.205  0.00  0.00    +0.000 C 
ATOM     25  C   UNL     1       2.181   3.178  18.626  0.00  0.00    +0.000 C 
BRANCH  23  26
ATOM     26  C   UNL     1       4.144   2.221  19.664  0.00  0.00    +0.000 C 
ATOM     27  O   UNL     1       5.073   1.996  20.435  0.00  0.00    +0.000 OA
BRANCH  26  28
ATOM     28  O   UNL     1       3.964   1.465  18.545  0.00  0.00    +0.000 OA
ATOM     29  H   UNL     1       4.847   1.287  18.148  0.00  0.00    +0.000 HD
ENDBRANCH  26  28
ENDBRANCH  23  26
ENDBRANCH  22  23
ENDBRANCH  19  22
ENDBRANCH   4  16
TORSDOF 6
ENDMDL
MODEL 9
REMARK VINA RESULT:      -7.0      7.609     10.049
REMARK  Name = 
REMARK  11 active torsions:
REMARK  status: ('A' for Active; 'I' for Inactive)
REMARK    1  A    between atoms: C_1  and  C_2
REMARK    2  A    between atoms: C_4  and  C_5
REMARK    3  A    between atoms: C_6  and  N_7
REMARK    4  A    between atoms: N_10  and  C_11
REMARK    5  A    between atoms: C_14  and  O_15
REMARK    6  A    between atoms: O_15  and  C_16
REMARK    7  A    between atoms: C_16  and  C_17
REMARK    8  A    between atoms: C_16  and  C_18
REMARK    9  A    between atoms: C_16  and  C_19
REMARK   10  A    between atoms: C_19  and  O_21
REMARK   11  A    between atoms: C_24  and  C_25
REMARK                            x       y       z     vdW  Elec       q    Type
REMARK                         _______ _______ _______ _____ _____    ______ ____
ROOT
ATOM      1  N   UNL     1       9.839  10.452  19.346  0.00  0.00    +0.000 N 
ATOM      2  C   UNL     1       8.798   9.751  18.740  0.00  0.00    +0.000 C 
ATOM      3  O   UNL     1       7.854  10.261  18.147  0.00  0.00    +0.000 OA
ATOM      4  N   UNL     1       8.933   8.382  18.954  0.00  0.00    +0.000 N 
ATOM      5  H   UNL     1      10.302   9.956  20.089  0.00  0.00    +0.000 HD
ATOM      6  H   UNL     1       9.419   8.127  19.799  0.00  0.00    +0.000 HD
ENDROOT
BRANCH   1  12
ATOM      7  C   UNL     1       9.816  16.176  19.882  0.00  0.00    +0.000 C 
ATOM      8  C   UNL     1       9.819  14.682  19.747  0.00  0.00    +0.000 A 
ATOM      9  C   UNL     1       9.326  13.859  20.761  0.00  0.00    +0.000 A 
ATOM     10  C   UNL     1       9.341  12.457  20.633  0.00  0.00    +0.000 A 
ATOM     11  C   UNL     1       8.746  11.640  21.749  0.00  0.00    +0.000 C 
ATOM     12  C   UNL     1       9.855  11.868  19.452  0.00  0.00    +0.000 A 
ATOM     13  C   UNL     1      10.405  12.692  18.450  0.00  0.00    +0.000 A 
ATOM     14  C   UNL     1      11.112  12.168  17.229  0.00  0.00    +0.000 C 
ATOM     15  C   UNL     1      10.348  14.090  18.600  0.00  0.00    +0.000 A 
ENDBRANCH   1  12
BRANCH   4  16
ATOM     16  C   UNL     1       8.009   7.430  18.469  0.00  0.00    +0.000 A 
ATOM     17  C   UNL     1       7.172   7.662  17.378  0.00  0.00    +0.000 A 
ATOM     18  C   UNL     1       6.276   6.667  16.947  0.00  0.00    +0.000 A 
ATOM     19  C   UNL     1       6.196   5.431  17.601  0.00  0.00    +0.000 A 
ATOM     20  C   UNL     1       7.041   5.216  18.687  0.00  0.00    +0.000 A 
ATOM     21  C   UNL     1       7.952   6.195  19.106  0.00  0.00    +0.000 A 
BRANCH  19  22
ATOM     22  O   UNL     1       5.248   4.564  17.125  0.00  0.00    +0.000 OA
BRANCH  22  23
ATOM     23  C   UNL     1       4.065   4.227  17.894  0.00  0.00    +0.000 C 
ATOM     24  C   UNL     1       3.778   5.263  18.985  0.00  0.00    +0.000 C 
ATOM     25  C   UNL     1       2.868   3.834  17.019  0.00  0.00    +0.000 C 
BRANCH  23  26
ATOM     26  C   UNL     1       4.394   2.925  18.660  0.00  0.00    +0.000 C 
ATOM     27  O   UNL     1       4.855   2.877  19.797  0.00  0.00    +0.000 OA
BRANCH  26  28
ATOM     28  O   UNL     1       4.120   1.784  17.966  0.00  0.00    +0.000 OA
ATOM     29  H   UNL     1       4.567   1.841  17.092  0.00  0.00    +0.000 HD
ENDBRANCH  26  28
ENDBRANCH  23  26
ENDBRANCH  22  23
ENDBRANCH  19  22
ENDBRANCH   4  16
TORSDOF 6
ENDMDL
