MODEL 1
REMARK VINA RESULT:      -8.1      0.000      0.000
REMARK  Name = 
REMARK  9 active torsions:
REMARK  status: ('A' for Active; 'I' for Inactive)
REMARK    1  A    between atoms: C_1  and  C_2
REMARK    2  A    between atoms: C_2  and  N_3
REMARK    3  A    between atoms: C_2  and  C_26
REMARK    4  A    between atoms: C_4  and  C_6
REMARK    5  A    between atoms: C_6  and  O_7
REMARK    6  A    between atoms: O_7  and  C_8
REMARK    7  A    between atoms: C_8  and  C_10
REMARK    8  A    between atoms: C_12  and  S_13
REMARK    9  A    between atoms: S_13  and  N_16
REMARK                            x       y       z     vdW  Elec       q    Type
REMARK                         _______ _______ _______ _____ _____    ______ ____
ROOT
ATOM      1  C   UNL     1       0.915   9.353  21.863  0.00  0.00    +0.000 C 
ATOM      2  O   UNL     1       1.743   9.496  22.746  0.00  0.00    +0.000 OA
ENDROOT
BRANCH   1   3
ATOM      3  C   UNL     1       1.271   8.911  20.499  0.00  0.00    +0.000 A 
ATOM      4  C   UNL     1       1.998   7.719  20.333  0.00  0.00    +0.000 A 
ATOM      5  C   UNL     1       2.369   7.325  19.044  0.00  0.00    +0.000 A 
ATOM      6  C   UNL     1       2.046   8.124  17.935  0.00  0.00    +0.000 A 
ATOM      7  C   UNL     1       1.322   9.302  18.106  0.00  0.00    +0.000 A 
ATOM      8  C   UNL     1       0.930   9.686  19.384  0.00  0.00    +0.000 A 
ATOM      9  F   UNL     1       0.221  10.817  19.503  0.00  0.00    +0.000 F 
BRANCH   5  10
ATOM     10  S   UNL     1       3.026   5.700  18.731  0.00  0.00    +0.000 S 
ATOM     11  O   UNL     1       3.717   5.774  17.460  0.00  0.00    +0.000 OA
ATOM     12  O   UNL     1       3.747   5.321  19.927  0.00  0.00    +0.000 OA
BRANCH  10  13
ATOM     13  N   UNL     1       1.719   4.618  18.540  0.00  0.00    +0.000 NA
ATOM     14  C   UNL     1       1.171   3.906  19.731  0.00  0.00    +0.000 C 
ATOM     15  C   UNL     1       2.122   2.811  20.227  0.00  0.00    +0.000 C 
ATOM     16  O   UNL     1       2.414   1.858  19.194  0.00  0.00    +0.000 OA
ATOM     17  C   UNL     1       2.944   2.481  18.012  0.00  0.00    +0.000 C 
ATOM     18  C   UNL     1       2.001   3.573  17.478  0.00  0.00    +0.000 C 
ENDBRANCH  10  13
ENDBRANCH   5  10
ENDBRANCH   1   3
BRANCH   1  19
ATOM     19  O   UNL     1      -0.420   9.554  21.964  0.00  0.00    +0.000 OA
BRANCH  19  20
ATOM     20  C   UNL     1      -0.881  10.230  23.139  0.00  0.00    +0.000 C 
BRANCH  20  22
ATOM     21  N   UNL     1      -2.696  11.854  23.431  0.00  0.00    +0.000 N 
ATOM     22  C   UNL     1      -1.523  11.567  22.772  0.00  0.00    +0.000 C 
ATOM     23  O   UNL     1      -0.994  12.345  21.979  0.00  0.00    +0.000 OA
ATOM     24  H   UNL     1      -3.102  11.136  24.030  0.00  0.00    +0.000 HD
BRANCH  21  26
ATOM     25  C   UNL     1      -3.323  13.967  24.529  0.00  0.00    +0.000 C 
ATOM     26  C   UNL     1      -3.394  13.117  23.256  0.00  0.00    +0.000 C 
BRANCH  26  27
ATOM     27  C   UNL     1      -4.829  12.891  22.818  0.00  0.00    +0.000 A 
ATOM     28  C   UNL     1      -5.860  12.916  23.768  0.00  0.00    +0.000 A 
ATOM     29  C   UNL     1      -7.184  12.671  23.393  0.00  0.00    +0.000 A 
ATOM     30  C   UNL     1      -7.494  12.409  22.061  0.00  0.00    +0.000 A 
ATOM     31  C   UNL     1      -6.483  12.396  21.103  0.00  0.00    +0.000 A 
ATOM     32  C   UNL     1      -5.160  12.638  21.476  0.00  0.00    +0.000 A 
ENDBRANCH  26  27
ENDBRANCH  21  26
ENDBRANCH  20  22
ENDBRANCH  19  20
ENDBRANCH   1  19
TORSDOF 8
ENDMDL
MODEL 2
REMARK VINA RESULT:      -8.0      2.398      3.453
REMARK  Name = 
REMARK  9 active torsions:
REMARK  status: ('A' for Active; 'I' for Inactive)
REMARK    1  A    between atoms: C_1  and  C_2
REMARK    2  A    between atoms: C_2  and  N_3
REMARK    3  A    between atoms: C_2  and  C_26
REMARK    4  A    between atoms: C_4  and  C_6
REMARK    5  A    between atoms: C_6  and  O_7
REMARK    6  A    between atoms: O_7  and  C_8
REMARK    7  A    between atoms: C_8  and  C_10
REMARK    8  A    between atoms: C_12  and  S_13
REMARK    9  A    between atoms: S_13  and  N_16
REMARK                            x       y       z     vdW  Elec       q    Type
REMARK                         _______ _______ _______ _____ _____    ______ ____
ROOT
ATOM      1  C   UNL     1       0.504   9.627  21.378  0.00  0.00    +0.000 C 
ATOM      2  O   UNL     1      -0.159   9.022  22.202  0.00  0.00    +0.000 OA
ENDROOT
BRANCH   1   3
ATOM      3  C   UNL     1       1.187   8.955  20.254  0.00  0.00    +0.000 A 
ATOM      4  C   UNL     1       1.788   7.701  20.469  0.00  0.00    +0.000 A 
ATOM      5  C   UNL     1       2.470   7.086  19.414  0.00  0.00    +0.000 A 
ATOM      6  C   UNL     1       2.578   7.725  18.168  0.00  0.00    +0.000 A 
ATOM      7  C   UNL     1       1.977   8.965  17.961  0.00  0.00    +0.000 A 
ATOM      8  C   UNL     1       1.278   9.570  19.000  0.00  0.00    +0.000 A 
ATOM      9  F   UNL     1       0.702  10.754  18.754  0.00  0.00    +0.000 F 
BRANCH   5  10
ATOM     10  S   UNL     1       2.995   5.389  19.524  0.00  0.00    +0.000 S 
ATOM     11  O   UNL     1       4.442   5.401  19.444  0.00  0.00    +0.000 OA
ATOM     12  O   UNL     1       2.339   4.839  20.690  0.00  0.00    +0.000 OA
BRANCH  10  13
ATOM     13  N   UNL     1       2.415   4.555  18.152  0.00  0.00    +0.000 NA
ATOM     14  C   UNL     1       1.325   3.547  18.307  0.00  0.00    +0.000 C 
ATOM     15  C   UNL     1       1.826   2.267  18.985  0.00  0.00    +0.000 C 
ATOM     16  O   UNL     1       2.918   1.680  18.262  0.00  0.00    +0.000 OA
ATOM     17  C   UNL     1       4.004   2.602  18.073  0.00  0.00    +0.000 C 
ATOM     18  C   UNL     1       3.536   3.892  17.376  0.00  0.00    +0.000 C 
ENDBRANCH  10  13
ENDBRANCH   5  10
ENDBRANCH   1   3
BRANCH   1  19
ATOM     19  O   UNL     1       0.721  10.962  21.335  0.00  0.00    +0.000 OA
BRANCH  19  20
ATOM     20  C   UNL     1      -0.220  11.789  22.029  0.00  0.00    +0.000 C 
BRANCH  20  22
ATOM     21  N   UNL     1      -1.908  11.775  20.249  0.00  0.00    +0.000 N 
ATOM     22  C   UNL     1      -1.094  12.556  21.038  0.00  0.00    +0.000 C 
ATOM     23  O   UNL     1      -1.097  13.785  20.992  0.00  0.00    +0.000 OA
ATOM     24  H   UNL     1      -1.807  10.762  20.304  0.00  0.00    +0.000 HD
BRANCH  21  26
ATOM     25  C   UNL     1      -4.219  12.578  19.970  0.00  0.00    +0.000 C 
ATOM     26  C   UNL     1      -2.856  12.349  19.309  0.00  0.00    +0.000 C 
BRANCH  26  27
ATOM     27  C   UNL     1      -2.980  11.489  18.064  0.00  0.00    +0.000 A 
ATOM     28  C   UNL     1      -4.056  11.683  17.187  0.00  0.00    +0.000 A 
ATOM     29  C   UNL     1      -4.212  10.877  16.057  0.00  0.00    +0.000 A 
ATOM     30  C   UNL     1      -3.287   9.873  15.784  0.00  0.00    +0.000 A 
ATOM     31  C   UNL     1      -2.203   9.677  16.637  0.00  0.00    +0.000 A 
ATOM     32  C   UNL     1      -2.047  10.480  17.769  0.00  0.00    +0.000 A 
ENDBRANCH  26  27
ENDBRANCH  21  26
ENDBRANCH  20  22
ENDBRANCH  19  20
ENDBRANCH   1  19
TORSDOF 8
ENDMDL
MODEL 3
REMARK VINA RESULT:      -7.8      2.718      4.064
REMARK  Name = 
REMARK  9 active torsions:
REMARK  status: ('A' for Active; 'I' for Inactive)
REMARK    1  A    between atoms: C_1  and  C_2
REMARK    2  A    between atoms: C_2  and  N_3
REMARK    3  A    between atoms: C_2  and  C_26
REMARK    4  A    between atoms: C_4  and  C_6
REMARK    5  A    between atoms: C_6  and  O_7
REMARK    6  A    between atoms: O_7  and  C_8
REMARK    7  A    between atoms: C_8  and  C_10
REMARK    8  A    between atoms: C_12  and  S_13
REMARK    9  A    between atoms: S_13  and  N_16
REMARK                            x       y       z     vdW  Elec       q    Type
REMARK                         _______ _______ _______ _____ _____    ______ ____
ROOT
ATOM      1  C   UNL     1       1.667   9.422  18.257  0.00  0.00    +0.000 C 
ATOM      2  O   UNL     1       2.458  10.144  17.676  0.00  0.00    +0.000 OA
ENDROOT
BRANCH   1   3
ATOM      3  C   UNL     1       2.054   8.118  18.835  0.00  0.00    +0.000 A 
ATOM      4  C   UNL     1       2.751   7.193  18.035  0.00  0.00    +0.000 A 
ATOM      5  C   UNL     1       3.078   5.945  18.572  0.00  0.00    +0.000 A 
ATOM      6  C   UNL     1       2.691   5.608  19.880  0.00  0.00    +0.000 A 
ATOM      7  C   UNL     1       2.005   6.530  20.667  0.00  0.00    +0.000 A 
ATOM      8  C   UNL     1       1.697   7.782  20.146  0.00  0.00    +0.000 A 
ATOM      9  F   UNL     1       1.050   8.644  20.942  0.00  0.00    +0.000 F 
BRANCH   5  10
ATOM     10  S   UNL     1       4.202   4.849  17.732  0.00  0.00    +0.000 S 
ATOM     11  O   UNL     1       4.979   4.191  18.762  0.00  0.00    +0.000 OA
ATOM     12  O   UNL     1       3.395   4.066  16.822  0.00  0.00    +0.000 OA
BRANCH  10  13
ATOM     13  N   UNL     1       5.280   5.791  16.803  0.00  0.00    +0.000 NA
ATOM     14  C   UNL     1       5.699   5.315  15.452  0.00  0.00    +0.000 C 
ATOM     15  C   UNL     1       6.668   4.131  15.540  0.00  0.00    +0.000 C 
ATOM     16  O   UNL     1       7.833   4.459  16.313  0.00  0.00    +0.000 OA
ATOM     17  C   UNL     1       7.499   4.930  17.629  0.00  0.00    +0.000 C 
ATOM     18  C   UNL     1       6.541   6.133  17.573  0.00  0.00    +0.000 C 
ENDBRANCH  10  13
ENDBRANCH   5  10
ENDBRANCH   1   3
BRANCH   1  19
ATOM     19  O   UNL     1       0.356   9.668  18.478  0.00  0.00    +0.000 OA
BRANCH  19  20
ATOM     20  C   UNL     1      -0.030  11.043  18.588  0.00  0.00    +0.000 C 
BRANCH  20  22
ATOM     21  N   UNL     1      -0.761  11.131  20.927  0.00  0.00    +0.000 N 
ATOM     22  C   UNL     1       0.180  11.548  20.015  0.00  0.00    +0.000 C 
ATOM     23  O   UNL     1       1.153  12.235  20.323  0.00  0.00    +0.000 OA
ATOM     24  H   UNL     1      -1.569  10.611  20.586  0.00  0.00    +0.000 HD
BRANCH  21  26
ATOM     25  C   UNL     1      -0.829  10.203  23.207  0.00  0.00    +0.000 C 
ATOM     26  C   UNL     1      -0.667  11.456  22.341  0.00  0.00    +0.000 C 
BRANCH  26  27
ATOM     27  C   UNL     1      -1.670  12.530  22.723  0.00  0.00    +0.000 A 
ATOM     28  C   UNL     1      -3.009  12.405  22.325  0.00  0.00    +0.000 A 
ATOM     29  C   UNL     1      -3.942  13.399  22.630  0.00  0.00    +0.000 A 
ATOM     30  C   UNL     1      -3.548  14.527  23.347  0.00  0.00    +0.000 A 
ATOM     31  C   UNL     1      -2.225  14.658  23.763  0.00  0.00    +0.000 A 
ATOM     32  C   UNL     1      -1.292  13.666  23.456  0.00  0.00    +0.000 A 
ENDBRANCH  26  27
ENDBRANCH  21  26
ENDBRANCH  20  22
ENDBRANCH  19  20
ENDBRANCH   1  19
TORSDOF 8
ENDMDL
MODEL 4
REMARK VINA RESULT:      -7.7      2.754      3.686
REMARK  Name = 
REMARK  9 active torsions:
REMARK  status: ('A' for Active; 'I' for Inactive)
REMARK    1  A    between atoms: C_1  and  C_2
REMARK    2  A    between atoms: C_2  and  N_3
REMARK    3  A    between atoms: C_2  and  C_26
REMARK    4  A    between atoms: C_4  and  C_6
REMARK    5  A    between atoms: C_6  and  O_7
REMARK    6  A    between atoms: O_7  and  C_8
REMARK    7  A    between atoms: C_8  and  C_10
REMARK    8  A    between atoms: C_12  and  S_13
REMARK    9  A    between atoms: S_13  and  N_16
REMARK                            x       y       z     vdW  Elec       q    Type
REMARK                         _______ _______ _______ _____ _____    ______ ____
ROOT
ATOM      1  C   UNL     1       1.287   7.644  20.847  0.00  0.00    +0.000 C 
ATOM      2  O   UNL     1       0.217   7.100  21.060  0.00  0.00    +0.000 OA
ENDROOT
BRANCH   1   3
ATOM      3  C   UNL     1       2.208   7.200  19.781  0.00  0.00    +0.000 A 
ATOM      4  C   UNL     1       2.936   6.009  19.955  0.00  0.00    +0.000 A 
ATOM      5  C   UNL     1       3.838   5.614  18.963  0.00  0.00    +0.000 A 
ATOM      6  C   UNL     1       4.036   6.411  17.823  0.00  0.00    +0.000 A 
ATOM      7  C   UNL     1       3.309   7.587  17.654  0.00  0.00    +0.000 A 
ATOM      8  C   UNL     1       2.393   7.972  18.628  0.00  0.00    +0.000 A 
ATOM      9  F   UNL     1       1.703   9.101  18.419  0.00  0.00    +0.000 F 
BRANCH   5  10
ATOM     10  S   UNL     1       4.568   3.990  18.976  0.00  0.00    +0.000 S 
ATOM     11  O   UNL     1       5.951   4.159  18.579  0.00  0.00    +0.000 OA
ATOM     12  O   UNL     1       4.249   3.417  20.266  0.00  0.00    +0.000 OA
BRANCH  10  13
ATOM     13  N   UNL     1       3.803   3.046  17.777  0.00  0.00    +0.000 NA
ATOM     14  C   UNL     1       2.693   3.635  16.972  0.00  0.00    +0.000 C 
ATOM     15  C   UNL     1       1.410   3.790  17.796  0.00  0.00    +0.000 C 
ATOM     16  O   UNL     1       0.984   2.536  18.349  0.00  0.00    +0.000 OA
ATOM     17  C   UNL     1       2.011   1.911  19.137  0.00  0.00    +0.000 C 
ATOM     18  C   UNL     1       3.308   1.723  18.330  0.00  0.00    +0.000 C 
ENDBRANCH  10  13
ENDBRANCH   5  10
ENDBRANCH   1   3
BRANCH   1  19
ATOM     19  O   UNL     1       1.801   8.706  21.508  0.00  0.00    +0.000 OA
BRANCH  19  20
ATOM     20  C   UNL     1       0.871   9.537  22.212  0.00  0.00    +0.000 C 
BRANCH  20  22
ATOM     21  N   UNL     1      -0.741  10.671  20.752  0.00  0.00    +0.000 N 
ATOM     22  C   UNL     1       0.488  10.750  21.366  0.00  0.00    +0.000 C 
ATOM     23  O   UNL     1       1.212  11.741  21.288  0.00  0.00    +0.000 OA
ATOM     24  H   UNL     1      -1.258   9.795  20.816  0.00  0.00    +0.000 HD
BRANCH  21  26
ATOM     25  C   UNL     1      -2.217  12.640  20.829  0.00  0.00    +0.000 C 
ATOM     26  C   UNL     1      -1.290  11.769  19.975  0.00  0.00    +0.000 C 
BRANCH  26  27
ATOM     27  C   UNL     1      -1.996  11.259  18.731  0.00  0.00    +0.000 A 
ATOM     28  C   UNL     1      -3.265  11.753  18.398  0.00  0.00    +0.000 A 
ATOM     29  C   UNL     1      -3.950  11.270  17.281  0.00  0.00    +0.000 A 
ATOM     30  C   UNL     1      -3.369  10.293  16.476  0.00  0.00    +0.000 A 
ATOM     31  C   UNL     1      -2.102   9.803  16.785  0.00  0.00    +0.000 A 
ATOM     32  C   UNL     1      -1.417  10.284  17.903  0.00  0.00    +0.000 A 
ENDBRANCH  26  27
ENDBRANCH  21  26
ENDBRANCH  20  22
ENDBRANCH  19  20
ENDBRANCH   1  19
TORSDOF 8
ENDMDL
MODEL 5
REMARK VINA RESULT:      -7.7      4.684     11.587
REMARK  Name = 
REMARK  9 active torsions:
REMARK  status: ('A' for Active; 'I' for Inactive)
REMARK    1  A    between atoms: C_1  and  C_2
REMARK    2  A    between atoms: C_2  and  N_3
REMARK    3  A    between atoms: C_2  and  C_26
REMARK    4  A    between atoms: C_4  and  C_6
REMARK    5  A    between atoms: C_6  and  O_7
REMARK    6  A    between atoms: O_7  and  C_8
REMARK    7  A    between atoms: C_8  and  C_10
REMARK    8  A    between atoms: C_12  and  S_13
REMARK    9  A    between atoms: S_13  and  N_16
REMARK                            x       y       z     vdW  Elec       q    Type
REMARK                         _______ _______ _______ _____ _____    ______ ____
ROOT
ATOM      1  C   UNL     1       4.038   5.330  17.764  0.00  0.00    +0.000 C 
ATOM      2  O   UNL     1       3.613   4.418  17.075  0.00  0.00    +0.000 OA
ENDROOT
BRANCH   1   3
ATOM      3  C   UNL     1       3.160   6.168  18.607  0.00  0.00    +0.000 A 
ATOM      4  C   UNL     1       2.825   7.463  18.172  0.00  0.00    +0.000 A 
ATOM      5  C   UNL     1       2.029   8.268  18.991  0.00  0.00    +0.000 A 
ATOM      6  C   UNL     1       1.595   7.801  20.243  0.00  0.00    +0.000 A 
ATOM      7  C   UNL     1       1.926   6.516  20.665  0.00  0.00    +0.000 A 
ATOM      8  C   UNL     1       2.698   5.702  19.844  0.00  0.00    +0.000 A 
ATOM      9  F   UNL     1       2.981   4.468  20.281  0.00  0.00    +0.000 F 
BRANCH   5  10
ATOM     10  S   UNL     1       1.329   9.789  18.386  0.00  0.00    +0.000 S 
ATOM     11  O   UNL     1       2.374  10.449  17.630  0.00  0.00    +0.000 OA
ATOM     12  O   UNL     1       0.085   9.430  17.741  0.00  0.00    +0.000 OA
BRANCH  10  13
ATOM     13  N   UNL     1       0.961  10.784  19.724  0.00  0.00    +0.000 NA
ATOM     14  C   UNL     1      -0.438  10.838  20.239  0.00  0.00    +0.000 C 
ATOM     15  C   UNL     1      -1.365  11.611  19.295  0.00  0.00    +0.000 C 
ATOM     16  O   UNL     1      -0.889  12.947  19.066  0.00  0.00    +0.000 OA
ATOM     17  C   UNL     1       0.460  12.967  18.570  0.00  0.00    +0.000 C 
ATOM     18  C   UNL     1       1.419  12.213  19.509  0.00  0.00    +0.000 C 
ENDBRANCH  10  13
ENDBRANCH   5  10
ENDBRANCH   1   3
BRANCH   1  19
ATOM     19  O   UNL     1       5.327   5.720  17.887  0.00  0.00    +0.000 OA
BRANCH  19  20
ATOM     20  C   UNL     1       5.903   6.399  16.765  0.00  0.00    +0.000 C 
BRANCH  20  22
ATOM     21  N   UNL     1       6.553   5.465  14.592  0.00  0.00    +0.000 N 
ATOM     22  C   UNL     1       6.775   5.445  15.950  0.00  0.00    +0.000 C 
ATOM     23  O   UNL     1       7.643   4.750  16.476  0.00  0.00    +0.000 OA
ATOM     24  H   UNL     1       5.778   6.023  14.237  0.00  0.00    +0.000 HD
BRANCH  21  26
ATOM     25  C   UNL     1       8.292   5.567  12.852  0.00  0.00    +0.000 C 
ATOM     26  C   UNL     1       7.349   4.676  13.666  0.00  0.00    +0.000 C 
BRANCH  26  27
ATOM     27  C   UNL     1       6.464   3.834  12.765  0.00  0.00    +0.000 A 
ATOM     28  C   UNL     1       5.090   4.105  12.688  0.00  0.00    +0.000 A 
ATOM     29  C   UNL     1       4.249   3.318  11.896  0.00  0.00    +0.000 A 
ATOM     30  C   UNL     1       4.774   2.257  11.163  0.00  0.00    +0.000 A 
ATOM     31  C   UNL     1       6.140   1.984  11.217  0.00  0.00    +0.000 A 
ATOM     32  C   UNL     1       6.981   2.768  12.010  0.00  0.00    +0.000 A 
ENDBRANCH  26  27
ENDBRANCH  21  26
ENDBRANCH  20  22
ENDBRANCH  19  20
ENDBRANCH   1  19
TORSDOF 8
ENDMDL
MODEL 6
REMARK VINA RESULT:      -7.7      0.902      1.304
REMARK  Name = 
REMARK  9 active torsions:
REMARK  status: ('A' for Active; 'I' for Inactive)
REMARK    1  A    between atoms: C_1  and  C_2
REMARK    2  A    between atoms: C_2  and  N_3
REMARK    3  A    between atoms: C_2  and  C_26
REMARK    4  A    between atoms: C_4  and  C_6
REMARK    5  A    between atoms: C_6  and  O_7
REMARK    6  A    between atoms: O_7  and  C_8
REMARK    7  A    between atoms: C_8  and  C_10
REMARK    8  A    between atoms: C_12  and  S_13
REMARK    9  A    between atoms: S_13  and  N_16
REMARK                            x       y       z     vdW  Elec       q    Type
REMARK                         _______ _______ _______ _____ _____    ______ ____
ROOT
ATOM      1  C   UNL     1       0.683  10.239  21.280  0.00  0.00    +0.000 C 
ATOM      2  O   UNL     1       1.309  11.214  21.657  0.00  0.00    +0.000 OA
ENDROOT
BRANCH   1   3
ATOM      3  C   UNL     1       1.147   9.372  20.177  0.00  0.00    +0.000 A 
ATOM      4  C   UNL     1       1.706   8.117  20.480  0.00  0.00    +0.000 A 
ATOM      5  C   UNL     1       2.181   7.316  19.437  0.00  0.00    +0.000 A 
ATOM      6  C   UNL     1       2.128   7.772  18.110  0.00  0.00    +0.000 A 
ATOM      7  C   UNL     1       1.570   9.014  17.816  0.00  0.00    +0.000 A 
ATOM      8  C   UNL     1       1.074   9.804  18.848  0.00  0.00    +0.000 A 
ATOM      9  F   UNL     1       0.531  10.984  18.520  0.00  0.00    +0.000 F 
BRANCH   5  10
ATOM     10  S   UNL     1       2.626   5.615  19.713  0.00  0.00    +0.000 S 
ATOM     11  O   UNL     1       4.074   5.567  19.732  0.00  0.00    +0.000 OA
ATOM     12  O   UNL     1       1.872   5.184  20.870  0.00  0.00    +0.000 OA
BRANCH  10  13
ATOM     13  N   UNL     1       2.102   4.697  18.372  0.00  0.00    +0.000 NA
ATOM     14  C   UNL     1       1.248   3.493  18.591  0.00  0.00    +0.000 C 
ATOM     15  C   UNL     1       2.046   2.330  19.190  0.00  0.00    +0.000 C 
ATOM     16  O   UNL     1       3.165   1.976  18.363  0.00  0.00    +0.000 OA
ATOM     17  C   UNL     1       4.029   3.095  18.109  0.00  0.00    +0.000 C 
ATOM     18  C   UNL     1       3.260   4.275  17.488  0.00  0.00    +0.000 C 
ENDBRANCH  10  13
ENDBRANCH   5  10
ENDBRANCH   1   3
BRANCH   1  19
ATOM     19  O   UNL     1      -0.489   9.785  21.780  0.00  0.00    +0.000 OA
BRANCH  19  20
ATOM     20  C   UNL     1      -1.007  10.470  22.926  0.00  0.00    +0.000 C 
BRANCH  20  22
ATOM     21  N   UNL     1      -2.650  12.197  23.504  0.00  0.00    +0.000 N 
ATOM     22  C   UNL     1      -1.897  11.635  22.498  0.00  0.00    +0.000 C 
ATOM     23  O   UNL     1      -1.896  12.064  21.345  0.00  0.00    +0.000 OA
ATOM     24  H   UNL     1      -2.642  11.751  24.420  0.00  0.00    +0.000 HD
BRANCH  21  26
ATOM     25  C   UNL     1      -3.398  14.339  24.459  0.00  0.00    +0.000 C 
ATOM     26  C   UNL     1      -3.491  13.361  23.284  0.00  0.00    +0.000 C 
BRANCH  26  27
ATOM     27  C   UNL     1      -4.928  12.954  23.012  0.00  0.00    +0.000 A 
ATOM     28  C   UNL     1      -5.361  12.768  21.691  0.00  0.00    +0.000 A 
ATOM     29  C   UNL     1      -6.689  12.432  21.414  0.00  0.00    +0.000 A 
ATOM     30  C   UNL     1      -7.597  12.268  22.457  0.00  0.00    +0.000 A 
ATOM     31  C   UNL     1      -7.179  12.434  23.775  0.00  0.00    +0.000 A 
ATOM     32  C   UNL     1      -5.853  12.772  24.053  0.00  0.00    +0.000 A 
ENDBRANCH  26  27
ENDBRANCH  21  26
ENDBRANCH  20  22
ENDBRANCH  19  20
ENDBRANCH   1  19
TORSDOF 8
ENDMDL
MODEL 7
REMARK VINA RESULT:      -7.6      6.823     10.035
REMARK  Name = 
REMARK  9 active torsions:
REMARK  status: ('A' for Active; 'I' for Inactive)
REMARK    1  A    between atoms: C_1  and  C_2
REMARK    2  A    between atoms: C_2  and  N_3
REMARK    3  A    between atoms: C_2  and  C_26
REMARK    4  A    between atoms: C_4  and  C_6
REMARK    5  A    between atoms: C_6  and  O_7
REMARK    6  A    between atoms: O_7  and  C_8
REMARK    7  A    between atoms: C_8  and  C_10
REMARK    8  A    between atoms: C_12  and  S_13
REMARK    9  A    between atoms: S_13  and  N_16
REMARK                            x       y       z     vdW  Elec       q    Type
REMARK                         _______ _______ _______ _____ _____    ______ ____
ROOT
ATOM      1  C   UNL     1       7.621   5.696  18.604  0.00  0.00    +0.000 C 
ATOM      2  O   UNL     1       8.306   5.128  19.436  0.00  0.00    +0.000 OA
ENDROOT
BRANCH   1   3
ATOM      3  C   UNL     1       6.502   5.031  17.904  0.00  0.00    +0.000 A 
ATOM      4  C   UNL     1       5.577   4.278  18.650  0.00  0.00    +0.000 A 
ATOM      5  C   UNL     1       4.544   3.617  17.979  0.00  0.00    +0.000 A 
ATOM      6  C   UNL     1       4.450   3.679  16.579  0.00  0.00    +0.000 A 
ATOM      7  C   UNL     1       5.366   4.430  15.847  0.00  0.00    +0.000 A 
ATOM      8  C   UNL     1       6.382   5.109  16.511  0.00  0.00    +0.000 A 
ATOM      9  F   UNL     1       7.233   5.832  15.771  0.00  0.00    +0.000 F 
BRANCH   5  10
ATOM     10  S   UNL     1       3.182   2.896  18.871  0.00  0.00    +0.000 S 
ATOM     11  O   UNL     1       2.877   1.643  18.211  0.00  0.00    +0.000 OA
ATOM     12  O   UNL     1       3.564   2.907  20.266  0.00  0.00    +0.000 OA
BRANCH  10  13
ATOM     13  N   UNL     1       1.822   3.913  18.690  0.00  0.00    +0.000 NA
ATOM     14  C   UNL     1       1.992   5.274  18.102  0.00  0.00    +0.000 C 
ATOM     15  C   UNL     1       2.691   6.231  19.074  0.00  0.00    +0.000 C 
ATOM     16  O   UNL     1       1.980   6.334  20.317  0.00  0.00    +0.000 OA
ATOM     17  C   UNL     1       1.778   5.053  20.936  0.00  0.00    +0.000 C 
ATOM     18  C   UNL     1       1.060   4.074  19.991  0.00  0.00    +0.000 C 
ENDBRANCH  10  13
ENDBRANCH   5  10
ENDBRANCH   1   3
BRANCH   1  19
ATOM     19  O   UNL     1       7.743   6.978  18.192  0.00  0.00    +0.000 OA
BRANCH  19  20
ATOM     20  C   UNL     1       8.590   7.827  18.976  0.00  0.00    +0.000 C 
BRANCH  20  22
ATOM     21  N   UNL     1       9.353  10.154  19.117  0.00  0.00    +0.000 N 
ATOM     22  C   UNL     1       8.526   9.267  18.468  0.00  0.00    +0.000 C 
ATOM     23  O   UNL     1       7.818   9.587  17.514  0.00  0.00    +0.000 OA
ATOM     24  H   UNL     1       9.866   9.827  19.935  0.00  0.00    +0.000 HD
BRANCH  21  26
ATOM     25  C   UNL     1      10.647  11.738  17.747  0.00  0.00    +0.000 C 
ATOM     26  C   UNL     1       9.471  11.544  18.709  0.00  0.00    +0.000 C 
BRANCH  26  27
ATOM     27  C   UNL     1       9.581  12.460  19.915  0.00  0.00    +0.000 A 
ATOM     28  C   UNL     1       9.056  12.052  21.149  0.00  0.00    +0.000 A 
ATOM     29  C   UNL     1       9.110  12.895  22.262  0.00  0.00    +0.000 A 
ATOM     30  C   UNL     1       9.699  14.152  22.157  0.00  0.00    +0.000 A 
ATOM     31  C   UNL     1      10.239  14.566  20.941  0.00  0.00    +0.000 A 
ATOM     32  C   UNL     1      10.184  13.725  19.827  0.00  0.00    +0.000 A 
ENDBRANCH  26  27
ENDBRANCH  21  26
ENDBRANCH  20  22
ENDBRANCH  19  20
ENDBRANCH   1  19
TORSDOF 8
ENDMDL
MODEL 8
REMARK VINA RESULT:      -7.6      3.500      9.259
REMARK  Name = 
REMARK  9 active torsions:
REMARK  status: ('A' for Active; 'I' for Inactive)
REMARK    1  A    between atoms: C_1  and  C_2
REMARK    2  A    between atoms: C_2  and  N_3
REMARK    3  A    between atoms: C_2  and  C_26
REMARK    4  A    between atoms: C_4  and  C_6
REMARK    5  A    between atoms: C_6  and  O_7
REMARK    6  A    between atoms: O_7  and  C_8
REMARK    7  A    between atoms: C_8  and  C_10
REMARK    8  A    between atoms: C_12  and  S_13
REMARK    9  A    between atoms: S_13  and  N_16
REMARK                            x       y       z     vdW  Elec       q    Type
REMARK                         _______ _______ _______ _____ _____    ______ ____
ROOT
ATOM      1  C   UNL     1       1.548   8.393  20.180  0.00  0.00    +0.000 C 
ATOM      2  O   UNL     1       1.590   7.303  20.723  0.00  0.00    +0.000 OA
ENDROOT
BRANCH   1   3
ATOM      3  C   UNL     1       0.595   9.448  20.581  0.00  0.00    +0.000 A 
ATOM      4  C   UNL     1      -0.176  10.088  19.594  0.00  0.00    +0.000 A 
ATOM      5  C   UNL     1      -1.046  11.114  19.972  0.00  0.00    +0.000 A 
ATOM      6  C   UNL     1      -1.126  11.521  21.314  0.00  0.00    +0.000 A 
ATOM      7  C   UNL     1      -0.363  10.881  22.288  0.00  0.00    +0.000 A 
ATOM      8  C   UNL     1       0.487   9.843  21.920  0.00  0.00    +0.000 A 
ATOM      9  F   UNL     1       1.192   9.244  22.889  0.00  0.00    +0.000 F 
BRANCH   5  10
ATOM     10  S   UNL     1      -2.256  11.760  18.837  0.00  0.00    +0.000 S 
ATOM     11  O   UNL     1      -3.230  12.473  19.637  0.00  0.00    +0.000 OA
ATOM     12  O   UNL     1      -1.511  12.458  17.811  0.00  0.00    +0.000 OA
BRANCH  10  13
ATOM     13  N   UNL     1      -3.061  10.447  18.102  0.00  0.00    +0.000 NA
ATOM     14  C   UNL     1      -2.527   9.872  16.832  0.00  0.00    +0.000 C 
ATOM     15  C   UNL     1      -2.767  10.803  15.639  0.00  0.00    +0.000 C 
ATOM     16  O   UNL     1      -4.161  11.104  15.477  0.00  0.00    +0.000 OA
ATOM     17  C   UNL     1      -4.741  11.660  16.668  0.00  0.00    +0.000 C 
ATOM     18  C   UNL     1      -4.533  10.737  17.882  0.00  0.00    +0.000 C 
ENDBRANCH  10  13
ENDBRANCH   5  10
ENDBRANCH   1   3
BRANCH   1  19
ATOM     19  O   UNL     1       2.331   8.823  19.164  0.00  0.00    +0.000 OA
BRANCH  19  20
ATOM     20  C   UNL     1       2.241   8.098  17.932  0.00  0.00    +0.000 C 
BRANCH  20  22
ATOM     21  N   UNL     1       2.323   5.653  18.107  0.00  0.00    +0.000 N 
ATOM     22  C   UNL     1       3.060   6.810  18.005  0.00  0.00    +0.000 C 
ATOM     23  O   UNL     1       4.288   6.817  17.928  0.00  0.00    +0.000 OA
ATOM     24  H   UNL     1       1.314   5.731  18.224  0.00  0.00    +0.000 HD
BRANCH  21  26
ATOM     25  C   UNL     1       2.516   3.524  16.884  0.00  0.00    +0.000 C 
ATOM     26  C   UNL     1       2.943   4.338  18.109  0.00  0.00    +0.000 C 
BRANCH  26  27
ATOM     27  C   UNL     1       2.646   3.596  19.400  0.00  0.00    +0.000 A 
ATOM     28  C   UNL     1       1.372   3.689  19.979  0.00  0.00    +0.000 A 
ATOM     29  C   UNL     1       1.088   3.048  21.188  0.00  0.00    +0.000 A 
ATOM     30  C   UNL     1       2.071   2.297  21.826  0.00  0.00    +0.000 A 
ATOM     31  C   UNL     1       3.337   2.182  21.256  0.00  0.00    +0.000 A 
ATOM     32  C   UNL     1       3.624   2.825  20.050  0.00  0.00    +0.000 A 
ENDBRANCH  26  27
ENDBRANCH  21  26
ENDBRANCH  20  22
ENDBRANCH  19  20
ENDBRANCH   1  19
TORSDOF 8
ENDMDL
MODEL 9
REMARK VINA RESULT:      -7.6      3.876     10.192
REMARK  Name = 
REMARK  9 active torsions:
REMARK  status: ('A' for Active; 'I' for Inactive)
REMARK    1  A    between atoms: C_1  and  C_2
REMARK    2  A    between atoms: C_2  and  N_3
REMARK    3  A    between atoms: C_2  and  C_26
REMARK    4  A    between atoms: C_4  and  C_6
REMARK    5  A    between atoms: C_6  and  O_7
REMARK    6  A    between atoms: O_7  and  C_8
REMARK    7  A    between atoms: C_8  and  C_10
REMARK    8  A    between atoms: C_12  and  S_13
REMARK    9  A    between atoms: S_13  and  N_16
REMARK                            x       y       z     vdW  Elec       q    Type
REMARK                         _______ _______ _______ _____ _____    ______ ____
ROOT
ATOM      1  C   UNL     1       2.096   5.923  20.315  0.00  0.00    +0.000 C 
ATOM      2  O   UNL     1       3.168   5.483  20.693  0.00  0.00    +0.000 OA
ENDROOT
BRANCH   1   3
ATOM      3  C   UNL     1       1.965   7.230  19.638  0.00  0.00    +0.000 A 
ATOM      4  C   UNL     1       1.296   8.279  20.295  0.00  0.00    +0.000 A 
ATOM      5  C   UNL     1       1.138   9.500  19.635  0.00  0.00    +0.000 A 
ATOM      6  C   UNL     1       1.612   9.668  18.324  0.00  0.00    +0.000 A 
ATOM      7  C   UNL     1       2.277   8.627  17.680  0.00  0.00    +0.000 A 
ATOM      8  C   UNL     1       2.458   7.417  18.341  0.00  0.00    +0.000 A 
ATOM      9  F   UNL     1       3.117   6.447  17.692  0.00  0.00    +0.000 F 
BRANCH   5  10
ATOM     10  S   UNL     1       0.571  10.948  20.503  0.00  0.00    +0.000 S 
ATOM     11  O   UNL     1      -0.861  11.016  20.295  0.00  0.00    +0.000 OA
ATOM     12  O   UNL     1       1.105  10.847  21.843  0.00  0.00    +0.000 OA
BRANCH  10  13
ATOM     13  N   UNL     1       1.260  12.324  19.764  0.00  0.00    +0.000 NA
ATOM     14  C   UNL     1       2.009  13.310  20.596  0.00  0.00    +0.000 C 
ATOM     15  C   UNL     1       1.070  14.142  21.476  0.00  0.00    +0.000 C 
ATOM     16  O   UNL     1       0.084  14.831  20.693  0.00  0.00    +0.000 OA
ATOM     17  C   UNL     1      -0.674  13.936  19.862  0.00  0.00    +0.000 C 
ATOM     18  C   UNL     1       0.242  13.099  18.951  0.00  0.00    +0.000 C 
ENDBRANCH  10  13
ENDBRANCH   5  10
ENDBRANCH   1   3
BRANCH   1  19
ATOM     19  O   UNL     1       0.888   5.325  20.430  0.00  0.00    +0.000 OA
BRANCH  19  20
ATOM     20  C   UNL     1       0.840   3.918  20.168  0.00  0.00    +0.000 C 
BRANCH  20  22
ATOM     21  N   UNL     1       2.811   3.079  18.971  0.00  0.00    +0.000 N 
ATOM     22  C   UNL     1       1.540   3.593  18.849  0.00  0.00    +0.000 C 
ATOM     23  O   UNL     1       0.980   3.739  17.764  0.00  0.00    +0.000 OA
ATOM     24  H   UNL     1       3.229   3.041  19.900  0.00  0.00    +0.000 HD
BRANCH  21  26
ATOM     25  C   UNL     1       4.124   1.226  18.021  0.00  0.00    +0.000 C 
ATOM     26  C   UNL     1       3.585   2.646  17.820  0.00  0.00    +0.000 C 
BRANCH  26  27
ATOM     27  C   UNL     1       4.702   3.626  17.513  0.00  0.00    +0.000 A 
ATOM     28  C   UNL     1       5.026   3.918  16.180  0.00  0.00    +0.000 A 
ATOM     29  C   UNL     1       6.076   4.787  15.873  0.00  0.00    +0.000 A 
ATOM     30  C   UNL     1       6.809   5.383  16.896  0.00  0.00    +0.000 A 
ATOM     31  C   UNL     1       6.490   5.116  18.226  0.00  0.00    +0.000 A 
ATOM     32  C   UNL     1       5.442   4.246  18.534  0.00  0.00    +0.000 A 
ENDBRANCH  26  27
ENDBRANCH  21  26
ENDBRANCH  20  22
ENDBRANCH  19  20
ENDBRANCH   1  19
TORSDOF 8
ENDMDL
