MODEL 1
REMARK VINA RESULT:      -7.2      0.000      0.000
REMARK  Name = 
REMARK  3 active torsions:
REMARK  status: ('A' for Active; 'I' for Inactive)
REMARK    1  A    between atoms: C_1  and  O_2
REMARK    2  A    between atoms: O_2  and  C_3
REMARK    3  A    between atoms: C_8  and  C_9
REMARK                            x       y       z     vdW  Elec       q    Type
REMARK                         _______ _______ _______ _____ _____    ______ ____
ROOT
ATOM      1  C   UNL     1       5.048   4.048  17.615  0.00  0.00    +0.000 C 
ATOM      2  O   UNL     1       5.209   2.873  17.969  0.00  0.00    +0.000 OA
ATOM      3  N   UNL     1       4.217   4.924  18.347  0.00  0.00    +0.000 N 
ATOM      4  C   UNL     1       4.025   6.353  18.051  0.00  0.00    +0.000 C 
ATOM      5  C   UNL     1       2.575   6.838  18.044  0.00  0.00    +0.000 C 
ATOM      6  O   UNL     1       1.955   7.097  19.293  0.00  0.00    +0.000 OA
ATOM      7  C   UNL     1       2.261   6.264  20.399  0.00  0.00    +0.000 C 
ATOM      8  C   UNL     1       2.387   4.756  20.138  0.00  0.00    +0.000 C 
ATOM      9  C   UNL     1       1.337   4.187  19.160  0.00  0.00    +0.000 C 
ATOM     10  C   UNL     1       1.049   2.784  19.664  0.00  0.00    +0.000 C 
ATOM     11  C   UNL     1       1.002   2.975  21.164  0.00  0.00    +0.000 C 
ATOM     12  C   UNL     1       2.122   3.970  21.465  0.00  0.00    +0.000 C 
ATOM     13  C   UNL     1       3.829   4.449  19.680  0.00  0.00    +0.000 C 
ENDROOT
BRANCH   1  19
ATOM     14  C   UNL     1       6.990   5.025  16.230  0.00  0.00    +0.000 A 
ATOM     15  C   UNL     1       7.521   5.273  14.952  0.00  0.00    +0.000 A 
ATOM     16  C   UNL     1       6.876   4.810  13.802  0.00  0.00    +0.000 A 
ATOM     17  C   UNL     1       5.682   4.110  13.911  0.00  0.00    +0.000 A 
ATOM     18  C   UNL     1       5.106   3.930  15.167  0.00  0.00    +0.000 A 
ATOM     19  C   UNL     1       5.729   4.411  16.338  0.00  0.00    +0.000 A 
BRANCH  14  21
ATOM     20  C   UNL     1       7.631   6.659  17.853  0.00  0.00    +0.000 C 
ATOM     21  O   UNL     1       7.661   5.316  17.388  0.00  0.00    +0.000 OA
ENDBRANCH  14  21
ENDBRANCH   1  19
TORSDOF 2
ENDMDL
MODEL 2
REMARK VINA RESULT:      -6.8      1.730      6.101
REMARK  Name = 
REMARK  3 active torsions:
REMARK  status: ('A' for Active; 'I' for Inactive)
REMARK    1  A    between atoms: C_1  and  O_2
REMARK    2  A    between atoms: O_2  and  C_3
REMARK    3  A    between atoms: C_8  and  C_9
REMARK                            x       y       z     vdW  Elec       q    Type
REMARK                         _______ _______ _______ _____ _____    ______ ____
ROOT
ATOM      1  C   UNL     1       3.235   3.987  18.124  0.00  0.00    +0.000 C 
ATOM      2  O   UNL     1       2.702   3.549  17.097  0.00  0.00    +0.000 OA
ATOM      3  N   UNL     1       4.335   4.869  18.056  0.00  0.00    +0.000 N 
ATOM      4  C   UNL     1       4.986   5.502  19.216  0.00  0.00    +0.000 C 
ATOM      5  C   UNL     1       6.513   5.440  19.233  0.00  0.00    +0.000 C 
ATOM      6  O   UNL     1       7.225   6.367  18.431  0.00  0.00    +0.000 OA
ATOM      7  C   UNL     1       6.695   6.733  17.168  0.00  0.00    +0.000 C 
ATOM      8  C   UNL     1       6.062   5.624  16.315  0.00  0.00    +0.000 C 
ATOM      9  C   UNL     1       6.828   4.284  16.340  0.00  0.00    +0.000 C 
ATOM     10  C   UNL     1       6.646   3.700  14.950  0.00  0.00    +0.000 C 
ATOM     11  C   UNL     1       6.805   4.913  14.059  0.00  0.00    +0.000 C 
ATOM     12  C   UNL     1       6.093   6.040  14.806  0.00  0.00    +0.000 C 
ATOM     13  C   UNL     1       4.586   5.454  16.734  0.00  0.00    +0.000 C 
ENDROOT
BRANCH   1  19
ATOM     14  C   UNL     1       3.354   2.611  20.300  0.00  0.00    +0.000 A 
ATOM     15  C   UNL     1       2.705   2.209  21.481  0.00  0.00    +0.000 A 
ATOM     16  C   UNL     1       1.452   2.725  21.824  0.00  0.00    +0.000 A 
ATOM     17  C   UNL     1       0.821   3.632  20.983  0.00  0.00    +0.000 A 
ATOM     18  C   UNL     1       1.420   3.974  19.772  0.00  0.00    +0.000 A 
ATOM     19  C   UNL     1       2.673   3.446  19.396  0.00  0.00    +0.000 A 
BRANCH  14  21
ATOM     20  C   UNL     1       5.301   1.343  20.865  0.00  0.00    +0.000 C 
ATOM     21  O   UNL     1       4.644   2.260  20.000  0.00  0.00    +0.000 OA
ENDBRANCH  14  21
ENDBRANCH   1  19
TORSDOF 2
ENDMDL
MODEL 3
REMARK VINA RESULT:      -6.0      1.403      6.222
REMARK  Name = 
REMARK  3 active torsions:
REMARK  status: ('A' for Active; 'I' for Inactive)
REMARK    1  A    between atoms: C_1  and  O_2
REMARK    2  A    between atoms: O_2  and  C_3
REMARK    3  A    between atoms: C_8  and  C_9
REMARK                            x       y       z     vdW  Elec       q    Type
REMARK                         _______ _______ _______ _____ _____    ______ ____
ROOT
ATOM      1  C   UNL     1       3.302   4.441  18.004  0.00  0.00    +0.000 C 
ATOM      2  O   UNL     1       2.636   4.181  16.995  0.00  0.00    +0.000 OA
ATOM      3  N   UNL     1       4.560   5.076  17.907  0.00  0.00    +0.000 N 
ATOM      4  C   UNL     1       5.388   5.493  19.050  0.00  0.00    +0.000 C 
ATOM      5  C   UNL     1       6.867   5.112  18.971  0.00  0.00    +0.000 C 
ATOM      6  O   UNL     1       7.717   5.912  18.166  0.00  0.00    +0.000 OA
ATOM      7  C   UNL     1       7.212   6.451  16.955  0.00  0.00    +0.000 C 
ATOM      8  C   UNL     1       6.316   5.548  16.096  0.00  0.00    +0.000 C 
ATOM      9  C   UNL     1       6.780   4.078  16.016  0.00  0.00    +0.000 C 
ATOM     10  C   UNL     1       6.407   3.622  14.616  0.00  0.00    +0.000 C 
ATOM     11  C   UNL     1       6.773   4.823  13.770  0.00  0.00    +0.000 C 
ATOM     12  C   UNL     1       6.356   6.030  14.608  0.00  0.00    +0.000 C 
ATOM     13  C   UNL     1       4.861   5.667  16.599  0.00  0.00    +0.000 C 
ENDROOT
BRANCH   1  19
ATOM     14  C   UNL     1       2.219   4.779  20.319  0.00  0.00    +0.000 A 
ATOM     15  C   UNL     1       1.646   4.179  21.454  0.00  0.00    +0.000 A 
ATOM     16  C   UNL     1       1.443   2.798  21.513  0.00  0.00    +0.000 A 
ATOM     17  C   UNL     1       1.826   1.995  20.447  0.00  0.00    +0.000 A 
ATOM     18  C   UNL     1       2.468   2.570  19.352  0.00  0.00    +0.000 A 
ATOM     19  C   UNL     1       2.705   3.959  19.284  0.00  0.00    +0.000 A 
BRANCH  14  21
ATOM     20  C   UNL     1       1.365   6.946  20.858  0.00  0.00    +0.000 C 
ATOM     21  O   UNL     1       2.292   6.137  20.147  0.00  0.00    +0.000 OA
ENDBRANCH  14  21
ENDBRANCH   1  19
TORSDOF 2
ENDMDL
MODEL 4
REMARK VINA RESULT:      -5.9      1.785      5.966
REMARK  Name = 
REMARK  3 active torsions:
REMARK  status: ('A' for Active; 'I' for Inactive)
REMARK    1  A    between atoms: C_1  and  O_2
REMARK    2  A    between atoms: O_2  and  C_3
REMARK    3  A    between atoms: C_8  and  C_9
REMARK                            x       y       z     vdW  Elec       q    Type
REMARK                         _______ _______ _______ _____ _____    ______ ____
ROOT
ATOM      1  C   UNL     1       3.496   3.117  18.057  0.00  0.00    +0.000 C 
ATOM      2  O   UNL     1       3.921   2.089  17.517  0.00  0.00    +0.000 OA
ATOM      3  N   UNL     1       3.752   4.392  17.505  0.00  0.00    +0.000 N 
ATOM      4  C   UNL     1       3.226   5.663  18.030  0.00  0.00    +0.000 C 
ATOM      5  C   UNL     1       4.245   6.794  18.171  0.00  0.00    +0.000 C 
ATOM      6  O   UNL     1       4.601   7.516  17.004  0.00  0.00    +0.000 OA
ATOM      7  C   UNL     1       4.699   6.825  15.770  0.00  0.00    +0.000 C 
ATOM      8  C   UNL     1       5.346   5.433  15.785  0.00  0.00    +0.000 C 
ATOM      9  C   UNL     1       6.581   5.314  16.703  0.00  0.00    +0.000 C 
ATOM     10  C   UNL     1       7.504   4.335  15.997  0.00  0.00    +0.000 C 
ATOM     11  C   UNL     1       7.385   4.755  14.547  0.00  0.00    +0.000 C 
ATOM     12  C   UNL     1       5.907   5.099  14.363  0.00  0.00    +0.000 C 
ATOM     13  C   UNL     1       4.266   4.386  16.131  0.00  0.00    +0.000 C 
ENDROOT
BRANCH   1  19
ATOM     14  C   UNL     1       3.387   2.540  20.567  0.00  0.00    +0.000 A 
ATOM     15  C   UNL     1       2.584   2.398  21.712  0.00  0.00    +0.000 A 
ATOM     16  C   UNL     1       1.225   2.720  21.683  0.00  0.00    +0.000 A 
ATOM     17  C   UNL     1       0.644   3.170  20.505  0.00  0.00    +0.000 A 
ATOM     18  C   UNL     1       1.412   3.237  19.344  0.00  0.00    +0.000 A 
ATOM     19  C   UNL     1       2.781   2.892  19.347  0.00  0.00    +0.000 A 
BRANCH  14  21
ATOM     20  C   UNL     1       5.274   1.140  21.008  0.00  0.00    +0.000 C 
ATOM     21  O   UNL     1       4.749   2.391  20.585  0.00  0.00    +0.000 OA
ENDBRANCH  14  21
ENDBRANCH   1  19
TORSDOF 2
ENDMDL
MODEL 5
REMARK VINA RESULT:      -5.7      2.600      6.317
REMARK  Name = 
REMARK  3 active torsions:
REMARK  status: ('A' for Active; 'I' for Inactive)
REMARK    1  A    between atoms: C_1  and  O_2
REMARK    2  A    between atoms: O_2  and  C_3
REMARK    3  A    between atoms: C_8  and  C_9
REMARK                            x       y       z     vdW  Elec       q    Type
REMARK                         _______ _______ _______ _____ _____    ______ ____
ROOT
ATOM      1  C   UNL     1       2.565   7.897  18.608  0.00  0.00    +0.000 C 
ATOM      2  O   UNL     1       3.375   8.472  17.870  0.00  0.00    +0.000 OA
ATOM      3  N   UNL     1       2.799   6.581  19.064  0.00  0.00    +0.000 N 
ATOM      4  C   UNL     1       1.935   5.845  20.002  0.00  0.00    +0.000 C 
ATOM      5  C   UNL     1       1.594   4.410  19.600  0.00  0.00    +0.000 C 
ATOM      6  O   UNL     1       2.566   3.405  19.833  0.00  0.00    +0.000 OA
ATOM      7  C   UNL     1       3.938   3.722  19.663  0.00  0.00    +0.000 C 
ATOM      8  C   UNL     1       4.319   4.603  18.464  0.00  0.00    +0.000 C 
ATOM      9  C   UNL     1       3.555   4.276  17.163  0.00  0.00    +0.000 C 
ATOM     10  C   UNL     1       4.550   4.538  16.046  0.00  0.00    +0.000 C 
ATOM     11  C   UNL     1       5.836   3.969  16.608  0.00  0.00    +0.000 C 
ATOM     12  C   UNL     1       5.817   4.356  18.087  0.00  0.00    +0.000 C 
ATOM     13  C   UNL     1       4.165   6.086  18.867  0.00  0.00    +0.000 C 
ENDROOT
BRANCH   1  19
ATOM     14  C   UNL     1       0.908   9.120  20.158  0.00  0.00    +0.000 A 
ATOM     15  C   UNL     1      -0.273   9.876  20.264  0.00  0.00    +0.000 A 
ATOM     16  C   UNL     1      -0.967  10.290  19.124  0.00  0.00    +0.000 A 
ATOM     17  C   UNL     1      -0.502   9.939  17.863  0.00  0.00    +0.000 A 
ATOM     18  C   UNL     1       0.622   9.122  17.750  0.00  0.00    +0.000 A 
ATOM     19  C   UNL     1       1.322   8.673  18.890  0.00  0.00    +0.000 A 
BRANCH  14  21
ATOM     20  C   UNL     1       1.220   9.149  22.528  0.00  0.00    +0.000 C 
ATOM     21  O   UNL     1       1.707   8.827  21.232  0.00  0.00    +0.000 OA
ENDBRANCH  14  21
ENDBRANCH   1  19
TORSDOF 2
ENDMDL
MODEL 6
REMARK VINA RESULT:      -5.7      1.632      2.847
REMARK  Name = 
REMARK  3 active torsions:
REMARK  status: ('A' for Active; 'I' for Inactive)
REMARK    1  A    between atoms: C_1  and  O_2
REMARK    2  A    between atoms: O_2  and  C_3
REMARK    3  A    between atoms: C_8  and  C_9
REMARK                            x       y       z     vdW  Elec       q    Type
REMARK                         _______ _______ _______ _____ _____    ______ ____
ROOT
ATOM      1  C   UNL     1       5.450   4.741  18.793  0.00  0.00    +0.000 C 
ATOM      2  O   UNL     1       5.772   3.586  18.491  0.00  0.00    +0.000 OA
ATOM      3  N   UNL     1       4.218   5.015  19.427  0.00  0.00    +0.000 N 
ATOM      4  C   UNL     1       3.782   6.342  19.892  0.00  0.00    +0.000 C 
ATOM      5  C   UNL     1       2.355   6.740  19.513  0.00  0.00    +0.000 C 
ATOM      6  O   UNL     1       1.291   6.209  20.284  0.00  0.00    +0.000 OA
ATOM      7  C   UNL     1       1.389   4.881  20.772  0.00  0.00    +0.000 C 
ATOM      8  C   UNL     1       1.983   3.822  19.833  0.00  0.00    +0.000 C 
ATOM      9  C   UNL     1       1.531   3.947  18.362  0.00  0.00    +0.000 C 
ATOM     10  C   UNL     1       1.455   2.519  17.850  0.00  0.00    +0.000 C 
ATOM     11  C   UNL     1       0.833   1.782  19.018  0.00  0.00    +0.000 C 
ATOM     12  C   UNL     1       1.478   2.403  20.256  0.00  0.00    +0.000 C 
ATOM     13  C   UNL     1       3.521   3.843  19.968  0.00  0.00    +0.000 C 
ENDROOT
BRANCH   1  19
ATOM     14  C   UNL     1       6.270   6.631  17.243  0.00  0.00    +0.000 A 
ATOM     15  C   UNL     1       7.253   7.602  16.982  0.00  0.00    +0.000 A 
ATOM     16  C   UNL     1       8.302   7.822  17.878  0.00  0.00    +0.000 A 
ATOM     17  C   UNL     1       8.395   7.064  19.038  0.00  0.00    +0.000 A 
ATOM     18  C   UNL     1       7.472   6.045  19.266  0.00  0.00    +0.000 A 
ATOM     19  C   UNL     1       6.420   5.790  18.360  0.00  0.00    +0.000 A 
BRANCH  14  21
ATOM     20  C   UNL     1       5.257   5.790  15.247  0.00  0.00    +0.000 C 
ATOM     21  O   UNL     1       5.141   6.487  16.481  0.00  0.00    +0.000 OA
ENDBRANCH  14  21
ENDBRANCH   1  19
TORSDOF 2
ENDMDL
MODEL 7
REMARK VINA RESULT:      -5.6      9.080     12.049
REMARK  Name = 
REMARK  3 active torsions:
REMARK  status: ('A' for Active; 'I' for Inactive)
REMARK    1  A    between atoms: C_1  and  O_2
REMARK    2  A    between atoms: O_2  and  C_3
REMARK    3  A    between atoms: C_8  and  C_9
REMARK                            x       y       z     vdW  Elec       q    Type
REMARK                         _______ _______ _______ _____ _____    ______ ____
ROOT
ATOM      1  C   UNL     1      -0.924  12.901  22.436  0.00  0.00    +0.000 C 
ATOM      2  O   UNL     1       0.120  13.555  22.547  0.00  0.00    +0.000 OA
ATOM      3  N   UNL     1      -2.177  13.465  22.760  0.00  0.00    +0.000 N 
ATOM      4  C   UNL     1      -3.477  12.795  22.588  0.00  0.00    +0.000 C 
ATOM      5  C   UNL     1      -4.428  12.878  23.782  0.00  0.00    +0.000 C 
ATOM      6  O   UNL     1      -5.161  14.077  23.965  0.00  0.00    +0.000 OA
ATOM      7  C   UNL     1      -4.545  15.315  23.653  0.00  0.00    +0.000 C 
ATOM      8  C   UNL     1      -3.072  15.495  24.049  0.00  0.00    +0.000 C 
ATOM      9  C   UNL     1      -2.707  14.910  25.430  0.00  0.00    +0.000 C 
ATOM     10  C   UNL     1      -1.647  15.845  25.986  0.00  0.00    +0.000 C 
ATOM     11  C   UNL     1      -2.174  17.209  25.598  0.00  0.00    +0.000 C 
ATOM     12  C   UNL     1      -2.750  17.019  24.195  0.00  0.00    +0.000 C 
ATOM     13  C   UNL     1      -2.182  14.923  22.925  0.00  0.00    +0.000 C 
ENDROOT
BRANCH   1  19
ATOM     14  C   UNL     1      -0.456  11.044  20.711  0.00  0.00    +0.000 A 
ATOM     15  C   UNL     1      -0.257   9.672  20.477  0.00  0.00    +0.000 A 
ATOM     16  C   UNL     1      -0.200   8.762  21.537  0.00  0.00    +0.000 A 
ATOM     17  C   UNL     1      -0.362   9.207  22.842  0.00  0.00    +0.000 A 
ATOM     18  C   UNL     1      -0.641  10.552  23.078  0.00  0.00    +0.000 A 
ATOM     19  C   UNL     1      -0.727  11.482  22.020  0.00  0.00    +0.000 A 
BRANCH  14  21
ATOM     20  C   UNL     1      -1.464  12.145  18.843  0.00  0.00    +0.000 C 
ATOM     21  O   UNL     1      -0.360  11.991  19.726  0.00  0.00    +0.000 OA
ENDBRANCH  14  21
ENDBRANCH   1  19
TORSDOF 2
ENDMDL
MODEL 8
REMARK VINA RESULT:      -5.6      3.019      4.742
REMARK  Name = 
REMARK  3 active torsions:
REMARK  status: ('A' for Active; 'I' for Inactive)
REMARK    1  A    between atoms: C_1  and  O_2
REMARK    2  A    between atoms: O_2  and  C_3
REMARK    3  A    between atoms: C_8  and  C_9
REMARK                            x       y       z     vdW  Elec       q    Type
REMARK                         _______ _______ _______ _____ _____    ______ ____
ROOT
ATOM      1  C   UNL     1       2.301   6.253  19.873  0.00  0.00    +0.000 C 
ATOM      2  O   UNL     1       2.258   5.788  21.018  0.00  0.00    +0.000 OA
ATOM      3  N   UNL     1       2.027   7.616  19.628  0.00  0.00    +0.000 N 
ATOM      4  C   UNL     1       2.127   8.277  18.316  0.00  0.00    +0.000 C 
ATOM      5  C   UNL     1       0.941   9.161  17.927  0.00  0.00    +0.000 C 
ATOM      6  O   UNL     1       0.871  10.461  18.487  0.00  0.00    +0.000 OA
ATOM      7  C   UNL     1       1.303  10.661  19.822  0.00  0.00    +0.000 C 
ATOM      8  C   UNL     1       0.934   9.587  20.856  0.00  0.00    +0.000 C 
ATOM      9  C   UNL     1      -0.495   9.022  20.706  0.00  0.00    +0.000 C 
ATOM     10  C   UNL     1      -0.953   8.729  22.125  0.00  0.00    +0.000 C 
ATOM     11  C   UNL     1      -0.438   9.928  22.892  0.00  0.00    +0.000 C 
ATOM     12  C   UNL     1       0.937  10.214  22.289  0.00  0.00    +0.000 C 
ATOM     13  C   UNL     1       2.002   8.473  20.819  0.00  0.00    +0.000 C 
ENDROOT
BRANCH   1  19
ATOM     14  C   UNL     1       3.809   5.081  18.142  0.00  0.00    +0.000 A 
ATOM     15  C   UNL     1       3.932   4.064  17.179  0.00  0.00    +0.000 A 
ATOM     16  C   UNL     1       2.899   3.148  16.964  0.00  0.00    +0.000 A 
ATOM     17  C   UNL     1       1.721   3.247  17.693  0.00  0.00    +0.000 A 
ATOM     18  C   UNL     1       1.558   4.300  18.591  0.00  0.00    +0.000 A 
ATOM     19  C   UNL     1       2.579   5.249  18.805  0.00  0.00    +0.000 A 
BRANCH  14  21
ATOM     20  C   UNL     1       5.941   5.317  19.197  0.00  0.00    +0.000 C 
ATOM     21  O   UNL     1       4.847   5.900  18.502  0.00  0.00    +0.000 OA
ENDBRANCH  14  21
ENDBRANCH   1  19
TORSDOF 2
ENDMDL
MODEL 9
REMARK VINA RESULT:      -5.4      1.817      6.071
REMARK  Name = 
REMARK  3 active torsions:
REMARK  status: ('A' for Active; 'I' for Inactive)
REMARK    1  A    between atoms: C_1  and  O_2
REMARK    2  A    between atoms: O_2  and  C_3
REMARK    3  A    between atoms: C_8  and  C_9
REMARK                            x       y       z     vdW  Elec       q    Type
REMARK                         _______ _______ _______ _____ _____    ______ ____
ROOT
ATOM      1  C   UNL     1       3.996   4.700  19.204  0.00  0.00    +0.000 C 
ATOM      2  O   UNL     1       3.917   5.610  20.038  0.00  0.00    +0.000 OA
ATOM      3  N   UNL     1       5.119   4.580  18.357  0.00  0.00    +0.000 N 
ATOM      4  C   UNL     1       5.338   3.490  17.391  0.00  0.00    +0.000 C 
ATOM      5  C   UNL     1       5.776   3.924  15.992  0.00  0.00    +0.000 C 
ATOM      6  O   UNL     1       7.139   4.262  15.797  0.00  0.00    +0.000 OA
ATOM      7  C   UNL     1       7.837   4.930  16.834  0.00  0.00    +0.000 C 
ATOM      8  C   UNL     1       7.091   6.035  17.595  0.00  0.00    +0.000 C 
ATOM      9  C   UNL     1       6.213   6.941  16.706  0.00  0.00    +0.000 C 
ATOM     10  C   UNL     1       6.290   8.316  17.347  0.00  0.00    +0.000 C 
ATOM     11  C   UNL     1       7.751   8.420  17.729  0.00  0.00    +0.000 C 
ATOM     12  C   UNL     1       8.123   7.025  18.230  0.00  0.00    +0.000 C 
ATOM     13  C   UNL     1       6.280   5.390  18.741  0.00  0.00    +0.000 C 
ENDROOT
BRANCH   1  19
ATOM     14  C   UNL     1       2.504   2.753  19.997  0.00  0.00    +0.000 A 
ATOM     15  C   UNL     1       1.307   2.036  19.824  0.00  0.00    +0.000 A 
ATOM     16  C   UNL     1       0.352   2.445  18.889  0.00  0.00    +0.000 A 
ATOM     17  C   UNL     1       0.587   3.563  18.101  0.00  0.00    +0.000 A 
ATOM     18  C   UNL     1       1.805   4.233  18.208  0.00  0.00    +0.000 A 
ATOM     19  C   UNL     1       2.792   3.821  19.128  0.00  0.00    +0.000 A 
BRANCH  14  21
ATOM     20  C   UNL     1       4.563   1.746  20.678  0.00  0.00    +0.000 C 
ATOM     21  O   UNL     1       3.395   2.488  21.004  0.00  0.00    +0.000 OA
ENDBRANCH  14  21
ENDBRANCH   1  19
TORSDOF 2
ENDMDL
