MODEL 1
REMARK VINA RESULT:      -8.6      0.000      0.000
REMARK  Name = 
REMARK  11 active torsions:
REMARK  status: ('A' for Active; 'I' for Inactive)
REMARK    1  A    between atoms: CB_1  and  CA_2
REMARK    2  A    between atoms: CA_2  and  C_3
REMARK    3  A    between atoms: CA_2  and  N_5
REMARK    4  A    between atoms: C_3  and  O_4
REMARK    5  A    between atoms: C_8  and  N_9
REMARK    6  A    between atoms: N_9  and  S_10
REMARK    7  A    between atoms: S_10  and  C_13
REMARK    8  A    between atoms: N_15  and  C_16
REMARK    9  A    between atoms: C_20  and  S_21
REMARK   10  A    between atoms: S_21  and  C_22
REMARK   11  A    between atoms: C_22  and  C_23
REMARK                            x       y       z     vdW  Elec       q    Type
REMARK                         _______ _______ _______ _____ _____    ______ ____
ROOT
ATOM      1  N   ALA A   1       2.773   3.580  19.305  0.00  0.00    +0.000 N 
ATOM      2  C   UNK A   0       3.029   4.890  18.840  0.00  0.00    +0.000 A 
ATOM      3  C   UNK A   0       3.997   5.087  17.882  0.00  0.00    +0.000 A 
ATOM      4  C   UNK A   0       4.145   6.381  17.441  0.00  0.00    +0.000 A 
ATOM      5  N   UNK A   0       3.449   7.430  17.887  0.00  0.00    +0.000 NA
ATOM      6  C   UNK A   0       2.584   7.151  18.867  0.00  0.00    +0.000 A 
ATOM      7  N   UNK A   0       2.355   5.925  19.362  0.00  0.00    +0.000 NA
ATOM      8  H   ALA A   1       2.842   2.945  18.509  0.00  0.00    +0.000 HD
ENDROOT
BRANCH   1  10
ATOM      9  CB  ALA A   1       1.632   2.941  21.375  0.00  0.00    +0.000 C 
ATOM     10  CA  ALA A   1       1.438   3.418  19.929  0.00  0.00    +0.000 C 
BRANCH  10  11
ATOM     11  C   ALA A   1       0.605   2.376  19.143  0.00  0.00    +0.000 C 
BRANCH  11  12
ATOM     12  O   ALA A   1       1.348   1.847  18.039  0.00  0.00    +0.000 OA
ATOM     13  H   ALA A   1       2.276   1.770  18.318  0.00  0.00    +0.000 HD
ENDBRANCH  11  12
ENDBRANCH  10  11
ENDBRANCH   1  10
BRANCH   4  14
ATOM     14  N   UNK A   0       5.062   6.734  16.419  0.00  0.00    +0.000 N 
ATOM     15  H   UNK A   0       5.339   7.709  16.528  0.00  0.00    +0.000 HD
BRANCH  14  16
ATOM     16  S   UNK A   0       6.481   5.807  16.398  0.00  0.00    +0.000 S 
ATOM     17  O   UNK A   0       7.630   6.672  16.547  0.00  0.00    +0.000 OA
ATOM     18  O   UNK A   0       6.266   4.671  17.272  0.00  0.00    +0.000 OA
BRANCH  16  19
ATOM     19  C   UNK A   0       6.639   5.104  14.804  0.00  0.00    +0.000 A 
ATOM     20  C   UNK A   0       5.812   4.151  14.240  0.00  0.00    +0.000 A 
ATOM     21  N   UNK A   0       6.373   3.872  13.028  0.00  0.00    +0.000 N 
ATOM     22  C   UNK A   0       5.892   2.918  12.062  0.00  0.00    +0.000 C 
ATOM     23  C   UNK A   0       7.494   4.644  12.892  0.00  0.00    +0.000 A 
ATOM     24  N   UNK A   0       7.694   5.393  13.954  0.00  0.00    +0.000 NA
ENDBRANCH  16  19
ENDBRANCH  14  16
ENDBRANCH   4  14
BRANCH   6  25
ATOM     25  S   UNK A   0       1.670   8.457  19.641  0.00  0.00    +0.000 S 
BRANCH  25  26
ATOM     26  C   UNK A   0       1.027   9.342  18.185  0.00  0.00    +0.000 C 
BRANCH  26  27
ATOM     27  C   UNK A   0      -0.064  10.299  18.599  0.00  0.00    +0.000 A 
ATOM     28  C   UNK A   0       0.130  11.234  19.630  0.00  0.00    +0.000 A 
ATOM     29  C   UNK A   0      -0.873  12.157  19.956  0.00  0.00    +0.000 A 
ATOM     30  C   UNK A   0      -2.079  12.159  19.256  0.00  0.00    +0.000 A 
ATOM     31  C   UNK A   0      -2.277  11.236  18.237  0.00  0.00    +0.000 A 
ATOM     32  F   UNK A   0      -3.434  11.243  17.561  0.00  0.00    +0.000 F 
ATOM     33  C   UNK A   0      -1.283  10.311  17.911  0.00  0.00    +0.000 A 
ATOM     34  F   UNK A   0      -1.500   9.441  16.919  0.00  0.00    +0.000 F 
ENDBRANCH  26  27
ENDBRANCH  25  26
ENDBRANCH   6  25
TORSDOF 9
ENDMDL
MODEL 2
REMARK VINA RESULT:      -8.2      1.201      1.472
REMARK  Name = 
REMARK  11 active torsions:
REMARK  status: ('A' for Active; 'I' for Inactive)
REMARK    1  A    between atoms: CB_1  and  CA_2
REMARK    2  A    between atoms: CA_2  and  C_3
REMARK    3  A    between atoms: CA_2  and  N_5
REMARK    4  A    between atoms: C_3  and  O_4
REMARK    5  A    between atoms: C_8  and  N_9
REMARK    6  A    between atoms: N_9  and  S_10
REMARK    7  A    between atoms: S_10  and  C_13
REMARK    8  A    between atoms: N_15  and  C_16
REMARK    9  A    between atoms: C_20  and  S_21
REMARK   10  A    between atoms: S_21  and  C_22
REMARK   11  A    between atoms: C_22  and  C_23
REMARK                            x       y       z     vdW  Elec       q    Type
REMARK                         _______ _______ _______ _____ _____    ______ ____
ROOT
ATOM      1  N   ALA A   1       3.220   3.463  19.452  0.00  0.00    +0.000 N 
ATOM      2  C   UNK A   0       3.344   4.764  18.914  0.00  0.00    +0.000 A 
ATOM      3  C   UNK A   0       4.275   4.999  17.928  0.00  0.00    +0.000 A 
ATOM      4  C   UNK A   0       4.293   6.275  17.417  0.00  0.00    +0.000 A 
ATOM      5  N   UNK A   0       3.505   7.277  17.820  0.00  0.00    +0.000 NA
ATOM      6  C   UNK A   0       2.685   6.970  18.829  0.00  0.00    +0.000 A 
ATOM      7  N   UNK A   0       2.581   5.757  19.393  0.00  0.00    +0.000 NA
ATOM      8  H   ALA A   1       3.340   2.795  18.689  0.00  0.00    +0.000 HD
ENDROOT
BRANCH   1  10
ATOM      9  CB  ALA A   1       2.164   2.958  21.603  0.00  0.00    +0.000 C 
ATOM     10  CA  ALA A   1       1.917   3.209  20.109  0.00  0.00    +0.000 C 
BRANCH  10  11
ATOM     11  C   ALA A   1       1.233   1.971  19.477  0.00  0.00    +0.000 C 
BRANCH  11  12
ATOM     12  O   ALA A   1       0.239   2.360  18.522  0.00  0.00    +0.000 OA
ATOM     13  H   ALA A   1      -0.198   1.552  18.207  0.00  0.00    +0.000 HD
ENDBRANCH  11  12
ENDBRANCH  10  11
ENDBRANCH   1  10
BRANCH   4  14
ATOM     14  N   UNK A   0       5.158   6.658  16.361  0.00  0.00    +0.000 N 
ATOM     15  H   UNK A   0       5.412   7.639  16.464  0.00  0.00    +0.000 HD
BRANCH  14  16
ATOM     16  S   UNK A   0       6.599   5.769  16.277  0.00  0.00    +0.000 S 
ATOM     17  O   UNK A   0       7.729   6.665  16.380  0.00  0.00    +0.000 OA
ATOM     18  O   UNK A   0       6.452   4.626  17.155  0.00  0.00    +0.000 OA
BRANCH  16  19
ATOM     19  C   UNK A   0       6.709   5.075  14.675  0.00  0.00    +0.000 A 
ATOM     20  C   UNK A   0       5.888   4.097  14.145  0.00  0.00    +0.000 A 
ATOM     21  N   UNK A   0       6.404   3.839  12.908  0.00  0.00    +0.000 N 
ATOM     22  C   UNK A   0       5.911   2.873  11.961  0.00  0.00    +0.000 C 
ATOM     23  C   UNK A   0       7.493   4.646  12.726  0.00  0.00    +0.000 A 
ATOM     24  N   UNK A   0       7.717   5.398  13.780  0.00  0.00    +0.000 NA
ENDBRANCH  16  19
ENDBRANCH  14  16
ENDBRANCH   4  14
BRANCH   6  25
ATOM     25  S   UNK A   0       1.661   8.224  19.550  0.00  0.00    +0.000 S 
BRANCH  25  26
ATOM     26  C   UNK A   0       1.466   9.364  18.144  0.00  0.00    +0.000 C 
BRANCH  26  27
ATOM     27  C   UNK A   0       0.222  10.201  18.322  0.00  0.00    +0.000 A 
ATOM     28  C   UNK A   0      -0.987   9.864  17.691  0.00  0.00    +0.000 A 
ATOM     29  C   UNK A   0      -2.147  10.617  17.918  0.00  0.00    +0.000 A 
ATOM     30  C   UNK A   0      -2.114  11.712  18.780  0.00  0.00    +0.000 A 
ATOM     31  C   UNK A   0      -0.921  12.051  19.406  0.00  0.00    +0.000 A 
ATOM     32  F   UNK A   0      -0.892  13.101  20.239  0.00  0.00    +0.000 F 
ATOM     33  C   UNK A   0       0.239  11.308  19.178  0.00  0.00    +0.000 A 
ATOM     34  F   UNK A   0       1.370  11.654  19.803  0.00  0.00    +0.000 F 
ENDBRANCH  26  27
ENDBRANCH  25  26
ENDBRANCH   6  25
TORSDOF 9
ENDMDL
MODEL 3
REMARK VINA RESULT:      -8.2      4.226      8.117
REMARK  Name = 
REMARK  11 active torsions:
REMARK  status: ('A' for Active; 'I' for Inactive)
REMARK    1  A    between atoms: CB_1  and  CA_2
REMARK    2  A    between atoms: CA_2  and  C_3
REMARK    3  A    between atoms: CA_2  and  N_5
REMARK    4  A    between atoms: C_3  and  O_4
REMARK    5  A    between atoms: C_8  and  N_9
REMARK    6  A    between atoms: N_9  and  S_10
REMARK    7  A    between atoms: S_10  and  C_13
REMARK    8  A    between atoms: N_15  and  C_16
REMARK    9  A    between atoms: C_20  and  S_21
REMARK   10  A    between atoms: S_21  and  C_22
REMARK   11  A    between atoms: C_22  and  C_23
REMARK                            x       y       z     vdW  Elec       q    Type
REMARK                         _______ _______ _______ _____ _____    ______ ____
ROOT
ATOM      1  N   ALA A   1       1.806   3.794  20.418  0.00  0.00    +0.000 N 
ATOM      2  C   UNK A   0       1.969   5.180  20.192  0.00  0.00    +0.000 A 
ATOM      3  C   UNK A   0       1.580   6.071  21.166  0.00  0.00    +0.000 A 
ATOM      4  C   UNK A   0       1.826   7.396  20.894  0.00  0.00    +0.000 A 
ATOM      5  N   UNK A   0       2.377   7.861  19.769  0.00  0.00    +0.000 NA
ATOM      6  C   UNK A   0       2.653   6.927  18.855  0.00  0.00    +0.000 A 
ATOM      7  N   UNK A   0       2.464   5.609  19.022  0.00  0.00    +0.000 NA
ATOM      8  H   ALA A   1       2.021   3.608  21.398  0.00  0.00    +0.000 HD
ENDROOT
BRANCH   1  10
ATOM      9  CB  ALA A   1       1.808   1.849  18.931  0.00  0.00    +0.000 C 
ATOM     10  CA  ALA A   1       2.673   2.944  19.569  0.00  0.00    +0.000 C 
BRANCH  10  11
ATOM     11  C   ALA A   1       3.787   2.295  20.428  0.00  0.00    +0.000 C 
BRANCH  11  12
ATOM     12  O   ALA A   1       4.815   1.735  19.603  0.00  0.00    +0.000 OA
ATOM     13  H   ALA A   1       4.564   1.886  18.677  0.00  0.00    +0.000 HD
ENDBRANCH  11  12
ENDBRANCH  10  11
ENDBRANCH   1  10
BRANCH   4  14
ATOM     14  N   UNK A   0       1.532   8.428  21.819  0.00  0.00    +0.000 N 
ATOM     15  H   UNK A   0       2.169   9.210  21.676  0.00  0.00    +0.000 HD
BRANCH  14  16
ATOM     16  S   UNK A   0      -0.047   9.039  21.713  0.00  0.00    +0.000 S 
ATOM     17  O   UNK A   0      -0.953   7.979  21.329  0.00  0.00    +0.000 OA
ATOM     18  O   UNK A   0      -0.276   9.846  22.894  0.00  0.00    +0.000 OA
BRANCH  16  19
ATOM     19  C   UNK A   0      -0.091  10.182  20.389  0.00  0.00    +0.000 A 
ATOM     20  C   UNK A   0       0.707  11.301  20.243  0.00  0.00    +0.000 A 
ATOM     21  N   UNK A   0       0.258  11.906  19.105  0.00  0.00    +0.000 N 
ATOM     22  C   UNK A   0       0.757  13.129  18.533  0.00  0.00    +0.000 C 
ATOM     23  C   UNK A   0      -0.771  11.156  18.604  0.00  0.00    +0.000 A 
ATOM     24  N   UNK A   0      -1.020  10.113  19.364  0.00  0.00    +0.000 NA
ENDBRANCH  16  19
ENDBRANCH  14  16
ENDBRANCH   4  14
BRANCH   6  25
ATOM     25  S   UNK A   0       3.282   7.400  17.267  0.00  0.00    +0.000 S 
BRANCH  25  26
ATOM     26  C   UNK A   0       4.461   6.052  16.943  0.00  0.00    +0.000 C 
BRANCH  26  27
ATOM     27  C   UNK A   0       5.817   6.399  17.510  0.00  0.00    +0.000 A 
ATOM     28  C   UNK A   0       6.549   7.503  17.040  0.00  0.00    +0.000 A 
ATOM     29  C   UNK A   0       7.777   7.846  17.622  0.00  0.00    +0.000 A 
ATOM     30  C   UNK A   0       8.285   7.095  18.680  0.00  0.00    +0.000 A 
ATOM     31  C   UNK A   0       7.566   6.002  19.148  0.00  0.00    +0.000 A 
ATOM     32  F   UNK A   0       8.054   5.284  20.170  0.00  0.00    +0.000 F 
ATOM     33  C   UNK A   0       6.346   5.652  18.569  0.00  0.00    +0.000 A 
ATOM     34  F   UNK A   0       5.673   4.599  19.047  0.00  0.00    +0.000 F 
ENDBRANCH  26  27
ENDBRANCH  25  26
ENDBRANCH   6  25
TORSDOF 9
ENDMDL
MODEL 4
REMARK VINA RESULT:      -8.1      2.053      2.189
REMARK  Name = 
REMARK  11 active torsions:
REMARK  status: ('A' for Active; 'I' for Inactive)
REMARK    1  A    between atoms: CB_1  and  CA_2
REMARK    2  A    between atoms: CA_2  and  C_3
REMARK    3  A    between atoms: CA_2  and  N_5
REMARK    4  A    between atoms: C_3  and  O_4
REMARK    5  A    between atoms: C_8  and  N_9
REMARK    6  A    between atoms: N_9  and  S_10
REMARK    7  A    between atoms: S_10  and  C_13
REMARK    8  A    between atoms: N_15  and  C_16
REMARK    9  A    between atoms: C_20  and  S_21
REMARK   10  A    between atoms: S_21  and  C_22
REMARK   11  A    between atoms: C_22  and  C_23
REMARK                            x       y       z     vdW  Elec       q    Type
REMARK                         _______ _______ _______ _____ _____    ______ ____
ROOT
ATOM      1  N   ALA A   1       3.126   4.100  19.746  0.00  0.00    +0.000 N 
ATOM      2  C   UNK A   0       3.298   5.301  19.020  0.00  0.00    +0.000 A 
ATOM      3  C   UNK A   0       4.368   5.420  18.162  0.00  0.00    +0.000 A 
ATOM      4  C   UNK A   0       4.431   6.595  17.449  0.00  0.00    +0.000 A 
ATOM      5  N   UNK A   0       3.563   7.606  17.552  0.00  0.00    +0.000 NA
ATOM      6  C   UNK A   0       2.602   7.425  18.462  0.00  0.00    +0.000 A 
ATOM      7  N   UNK A   0       2.443   6.317  19.201  0.00  0.00    +0.000 NA
ATOM      8  H   ALA A   1       3.383   3.324  19.135  0.00  0.00    +0.000 HD
ENDROOT
BRANCH   1  10
ATOM      9  CB  ALA A   1       1.804   3.168  21.584  0.00  0.00    +0.000 C 
ATOM     10  CA  ALA A   1       1.742   3.888  20.230  0.00  0.00    +0.000 C 
BRANCH  10  11
ATOM     11  C   ALA A   1       0.948   3.027  19.217  0.00  0.00    +0.000 C 
BRANCH  11  12
ATOM     12  O   ALA A   1       1.671   1.840  18.870  0.00  0.00    +0.000 OA
ATOM     13  H   ALA A   1       1.033   1.108  18.832  0.00  0.00    +0.000 HD
ENDBRANCH  11  12
ENDBRANCH  10  11
ENDBRANCH   1  10
BRANCH   4  14
ATOM     14  N   UNK A   0       5.443   6.846  16.488  0.00  0.00    +0.000 N 
ATOM     15  H   UNK A   0       5.892   7.738  16.686  0.00  0.00    +0.000 HD
BRANCH  14  16
ATOM     16  S   UNK A   0       6.663   5.669  16.429  0.00  0.00    +0.000 S 
ATOM     17  O   UNK A   0       7.951   6.296  16.621  0.00  0.00    +0.000 OA
ATOM     18  O   UNK A   0       6.227   4.557  17.249  0.00  0.00    +0.000 OA
BRANCH  16  19
ATOM     19  C   UNK A   0       6.705   5.021  14.804  0.00  0.00    +0.000 A 
ATOM     20  C   UNK A   0       5.869   4.050  14.285  0.00  0.00    +0.000 A 
ATOM     21  N   UNK A   0       6.330   3.832  13.020  0.00  0.00    +0.000 N 
ATOM     22  C   UNK A   0       5.802   2.887  12.068  0.00  0.00    +0.000 C 
ATOM     23  C   UNK A   0       7.402   4.655  12.810  0.00  0.00    +0.000 A 
ATOM     24  N   UNK A   0       7.667   5.380  13.874  0.00  0.00    +0.000 NA
ENDBRANCH  16  19
ENDBRANCH  14  16
ENDBRANCH   4  14
BRANCH   6  25
ATOM     25  S   UNK A   0       1.443   8.724  18.795  0.00  0.00    +0.000 S 
BRANCH  25  26
ATOM     26  C   UNK A   0       1.327   8.630  20.610  0.00  0.00    +0.000 C 
BRANCH  26  27
ATOM     27  C   UNK A   0       0.616   9.848  21.149  0.00  0.00    +0.000 A 
ATOM     28  C   UNK A   0       0.810  11.121  20.587  0.00  0.00    +0.000 A 
ATOM     29  C   UNK A   0       0.094  12.228  21.061  0.00  0.00    +0.000 A 
ATOM     30  C   UNK A   0      -0.825  12.077  22.098  0.00  0.00    +0.000 A 
ATOM     31  C   UNK A   0      -1.020  10.821  22.659  0.00  0.00    +0.000 A 
ATOM     32  F   UNK A   0      -1.908  10.676  23.653  0.00  0.00    +0.000 F 
ATOM     33  C   UNK A   0      -0.305   9.715  22.195  0.00  0.00    +0.000 A 
ATOM     34  F   UNK A   0      -0.521   8.517  22.749  0.00  0.00    +0.000 F 
ENDBRANCH  26  27
ENDBRANCH  25  26
ENDBRANCH   6  25
TORSDOF 9
ENDMDL
MODEL 5
REMARK VINA RESULT:      -7.9      3.262      6.390
REMARK  Name = 
REMARK  11 active torsions:
REMARK  status: ('A' for Active; 'I' for Inactive)
REMARK    1  A    between atoms: CB_1  and  CA_2
REMARK    2  A    between atoms: CA_2  and  C_3
REMARK    3  A    between atoms: CA_2  and  N_5
REMARK    4  A    between atoms: C_3  and  O_4
REMARK    5  A    between atoms: C_8  and  N_9
REMARK    6  A    between atoms: N_9  and  S_10
REMARK    7  A    between atoms: S_10  and  C_13
REMARK    8  A    between atoms: N_15  and  C_16
REMARK    9  A    between atoms: C_20  and  S_21
REMARK   10  A    between atoms: S_21  and  C_22
REMARK   11  A    between atoms: C_22  and  C_23
REMARK                            x       y       z     vdW  Elec       q    Type
REMARK                         _______ _______ _______ _____ _____    ______ ____
ROOT
ATOM      1  N   ALA A   1       1.115   9.701  17.790  0.00  0.00    +0.000 N 
ATOM      2  C   UNK A   0       1.926   8.598  18.140  0.00  0.00    +0.000 A 
ATOM      3  C   UNK A   0       3.015   8.288  17.357  0.00  0.00    +0.000 A 
ATOM      4  C   UNK A   0       3.786   7.238  17.797  0.00  0.00    +0.000 A 
ATOM      5  N   UNK A   0       3.539   6.506  18.887  0.00  0.00    +0.000 NA
ATOM      6  C   UNK A   0       2.422   6.837  19.541  0.00  0.00    +0.000 A 
ATOM      7  N   UNK A   0       1.606   7.848  19.204  0.00  0.00    +0.000 NA
ATOM      8  H   ALA A   1       1.726  10.443  17.444  0.00  0.00    +0.000 HD
ENDROOT
BRANCH   1  10
ATOM      9  CB  ALA A   1      -1.176  10.106  18.555  0.00  0.00    +0.000 C 
ATOM     10  CA  ALA A   1       0.311  10.232  18.916  0.00  0.00    +0.000 C 
BRANCH  10  11
ATOM     11  C   ALA A   1       0.662  11.719  19.167  0.00  0.00    +0.000 C 
BRANCH  11  12
ATOM     12  O   ALA A   1       2.044  11.977  18.893  0.00  0.00    +0.000 OA
ATOM     13  H   ALA A   1       2.492  12.116  19.744  0.00  0.00    +0.000 HD
ENDBRANCH  11  12
ENDBRANCH  10  11
ENDBRANCH   1  10
BRANCH   4  14
ATOM     14  N   UNK A   0       4.969   6.833  17.129  0.00  0.00    +0.000 N 
ATOM     15  H   UNK A   0       5.784   7.141  17.656  0.00  0.00    +0.000 HD
BRANCH  14  16
ATOM     16  S   UNK A   0       5.113   5.157  16.911  0.00  0.00    +0.000 S 
ATOM     17  O   UNK A   0       5.979   4.608  17.930  0.00  0.00    +0.000 OA
ATOM     18  O   UNK A   0       3.780   4.637  16.684  0.00  0.00    +0.000 OA
BRANCH  16  19
ATOM     19  C   UNK A   0       5.951   4.883  15.400  0.00  0.00    +0.000 A 
ATOM     20  C   UNK A   0       5.500   4.124  14.337  0.00  0.00    +0.000 A 
ATOM     21  N   UNK A   0       6.518   4.153  13.429  0.00  0.00    +0.000 N 
ATOM     22  C   UNK A   0       6.543   3.489  12.150  0.00  0.00    +0.000 C 
ATOM     23  C   UNK A   0       7.531   4.910  13.950  0.00  0.00    +0.000 A 
ATOM     24  N   UNK A   0       7.228   5.357  15.149  0.00  0.00    +0.000 NA
ENDBRANCH  16  19
ENDBRANCH  14  16
ENDBRANCH   4  14
BRANCH   6  25
ATOM     25  S   UNK A   0       1.900   5.884  20.941  0.00  0.00    +0.000 S 
BRANCH  25  26
ATOM     26  C   UNK A   0       0.882   4.608  20.134  0.00  0.00    +0.000 C 
BRANCH  26  27
ATOM     27  C   UNK A   0       1.764   3.527  19.558  0.00  0.00    +0.000 A 
ATOM     28  C   UNK A   0       1.530   2.990  18.281  0.00  0.00    +0.000 A 
ATOM     29  C   UNK A   0       2.398   2.031  17.738  0.00  0.00    +0.000 A 
ATOM     30  C   UNK A   0       3.508   1.601  18.463  0.00  0.00    +0.000 A 
ATOM     31  C   UNK A   0       3.744   2.128  19.727  0.00  0.00    +0.000 A 
ATOM     32  F   UNK A   0       4.816   1.717  20.419  0.00  0.00    +0.000 F 
ATOM     33  C   UNK A   0       2.880   3.078  20.274  0.00  0.00    +0.000 A 
ATOM     34  F   UNK A   0       3.139   3.573  21.490  0.00  0.00    +0.000 F 
ENDBRANCH  26  27
ENDBRANCH  25  26
ENDBRANCH   6  25
TORSDOF 9
ENDMDL
MODEL 6
REMARK VINA RESULT:      -7.9      3.152      6.335
REMARK  Name = 
REMARK  11 active torsions:
REMARK  status: ('A' for Active; 'I' for Inactive)
REMARK    1  A    between atoms: CB_1  and  CA_2
REMARK    2  A    between atoms: CA_2  and  C_3
REMARK    3  A    between atoms: CA_2  and  N_5
REMARK    4  A    between atoms: C_3  and  O_4
REMARK    5  A    between atoms: C_8  and  N_9
REMARK    6  A    between atoms: N_9  and  S_10
REMARK    7  A    between atoms: S_10  and  C_13
REMARK    8  A    between atoms: N_15  and  C_16
REMARK    9  A    between atoms: C_20  and  S_21
REMARK   10  A    between atoms: S_21  and  C_22
REMARK   11  A    between atoms: C_22  and  C_23
REMARK                            x       y       z     vdW  Elec       q    Type
REMARK                         _______ _______ _______ _____ _____    ______ ____
ROOT
ATOM      1  N   ALA A   1       1.247   9.538  17.595  0.00  0.00    +0.000 N 
ATOM      2  C   UNK A   0       2.020   8.458  18.080  0.00  0.00    +0.000 A 
ATOM      3  C   UNK A   0       3.157   8.086  17.399  0.00  0.00    +0.000 A 
ATOM      4  C   UNK A   0       3.885   7.067  17.968  0.00  0.00    +0.000 A 
ATOM      5  N   UNK A   0       3.556   6.419  19.089  0.00  0.00    +0.000 NA
ATOM      6  C   UNK A   0       2.400   6.803  19.637  0.00  0.00    +0.000 A 
ATOM      7  N   UNK A   0       1.620   7.791  19.171  0.00  0.00    +0.000 NA
ATOM      8  H   ALA A   1       1.888  10.248  17.239  0.00  0.00    +0.000 HD
ENDROOT
BRANCH   1  10
ATOM      9  CB  ALA A   1      -1.035  10.313  18.028  0.00  0.00    +0.000 C 
ATOM     10  CA  ALA A   1       0.372  10.154  18.620  0.00  0.00    +0.000 C 
BRANCH  10  11
ATOM     11  C   ALA A   1       0.926  11.541  19.029  0.00  0.00    +0.000 C 
BRANCH  11  12
ATOM     12  O   ALA A   1       0.564  12.545  18.073  0.00  0.00    +0.000 OA
ATOM     13  H   ALA A   1       0.428  12.102  17.219  0.00  0.00    +0.000 HD
ENDBRANCH  11  12
ENDBRANCH  10  11
ENDBRANCH   1  10
BRANCH   4  14
ATOM     14  N   UNK A   0       5.107   6.607  17.416  0.00  0.00    +0.000 N 
ATOM     15  H   UNK A   0       5.861   6.747  18.086  0.00  0.00    +0.000 HD
BRANCH  14  16
ATOM     16  S   UNK A   0       5.111   4.966  16.988  0.00  0.00    +0.000 S 
ATOM     17  O   UNK A   0       5.926   4.223  17.923  0.00  0.00    +0.000 OA
ATOM     18  O   UNK A   0       3.739   4.591  16.709  0.00  0.00    +0.000 OA
BRANCH  16  19
ATOM     19  C   UNK A   0       5.925   4.815  15.447  0.00  0.00    +0.000 A 
ATOM     20  C   UNK A   0       5.558   3.990  14.401  0.00  0.00    +0.000 A 
ATOM     21  N   UNK A   0       6.527   4.170  13.457  0.00  0.00    +0.000 N 
ATOM     22  C   UNK A   0       6.607   3.511  12.178  0.00  0.00    +0.000 C 
ATOM     23  C   UNK A   0       7.430   5.076  13.942  0.00  0.00    +0.000 A 
ATOM     24  N   UNK A   0       7.106   5.478  15.151  0.00  0.00    +0.000 NA
ENDBRANCH  16  19
ENDBRANCH  14  16
ENDBRANCH   4  14
BRANCH   6  25
ATOM     25  S   UNK A   0       1.772   5.959  21.064  0.00  0.00    +0.000 S 
BRANCH  25  26
ATOM     26  C   UNK A   0       1.090   4.452  20.305  0.00  0.00    +0.000 C 
BRANCH  26  27
ATOM     27  C   UNK A   0       2.202   3.481  19.987  0.00  0.00    +0.000 A 
ATOM     28  C   UNK A   0       3.217   3.196  20.916  0.00  0.00    +0.000 A 
ATOM     29  C   UNK A   0       4.204   2.244  20.627  0.00  0.00    +0.000 A 
ATOM     30  C   UNK A   0       4.188   1.565  19.410  0.00  0.00    +0.000 A 
ATOM     31  C   UNK A   0       3.188   1.844  18.486  0.00  0.00    +0.000 A 
ATOM     32  F   UNK A   0       3.170   1.185  17.319  0.00  0.00    +0.000 F 
ATOM     33  C   UNK A   0       2.205   2.795  18.767  0.00  0.00    +0.000 A 
ATOM     34  F   UNK A   0       1.250   3.035  17.861  0.00  0.00    +0.000 F 
ENDBRANCH  26  27
ENDBRANCH  25  26
ENDBRANCH   6  25
TORSDOF 9
ENDMDL
MODEL 7
REMARK VINA RESULT:      -7.9      2.654      3.464
REMARK  Name = 
REMARK  11 active torsions:
REMARK  status: ('A' for Active; 'I' for Inactive)
REMARK    1  A    between atoms: CB_1  and  CA_2
REMARK    2  A    between atoms: CA_2  and  C_3
REMARK    3  A    between atoms: CA_2  and  N_5
REMARK    4  A    between atoms: C_3  and  O_4
REMARK    5  A    between atoms: C_8  and  N_9
REMARK    6  A    between atoms: N_9  and  S_10
REMARK    7  A    between atoms: S_10  and  C_13
REMARK    8  A    between atoms: N_15  and  C_16
REMARK    9  A    between atoms: C_20  and  S_21
REMARK   10  A    between atoms: S_21  and  C_22
REMARK   11  A    between atoms: C_22  and  C_23
REMARK                            x       y       z     vdW  Elec       q    Type
REMARK                         _______ _______ _______ _____ _____    ______ ____
ROOT
ATOM      1  N   ALA A   1       2.899   3.820  18.994  0.00  0.00    +0.000 N 
ATOM      2  C   UNK A   0       3.222   4.962  18.227  0.00  0.00    +0.000 A 
ATOM      3  C   UNK A   0       4.162   4.857  17.227  0.00  0.00    +0.000 A 
ATOM      4  C   UNK A   0       4.377   5.998  16.489  0.00  0.00    +0.000 A 
ATOM      5  N   UNK A   0       3.768   7.170  16.690  0.00  0.00    +0.000 NA
ATOM      6  C   UNK A   0       2.926   7.192  17.727  0.00  0.00    +0.000 A 
ATOM      7  N   UNK A   0       2.638   6.137  18.504  0.00  0.00    +0.000 NA
ATOM      8  H   ALA A   1       2.896   3.013  18.370  0.00  0.00    +0.000 HD
ENDROOT
BRANCH   1  10
ATOM      9  CB  ALA A   1       1.796   3.730  21.179  0.00  0.00    +0.000 C 
ATOM     10  CA  ALA A   1       1.583   3.906  19.669  0.00  0.00    +0.000 C 
BRANCH  10  11
ATOM     11  C   ALA A   1       0.640   2.796  19.142  0.00  0.00    +0.000 C 
BRANCH  11  12
ATOM     12  O   ALA A   1       1.372   1.610  18.812  0.00  0.00    +0.000 OA
ATOM     13  H   ALA A   1       2.015   1.843  18.123  0.00  0.00    +0.000 HD
ENDBRANCH  11  12
ENDBRANCH  10  11
ENDBRANCH   1  10
BRANCH   4  14
ATOM     14  N   UNK A   0       5.274   6.034  15.393  0.00  0.00    +0.000 N 
ATOM     15  H   UNK A   0       5.532   6.999  15.191  0.00  0.00    +0.000 HD
BRANCH  14  16
ATOM     16  S   UNK A   0       6.712   5.168  15.633  0.00  0.00    +0.000 S 
ATOM     17  O   UNK A   0       6.413   3.762  15.784  0.00  0.00    +0.000 OA
ATOM     18  O   UNK A   0       7.668   5.642  14.653  0.00  0.00    +0.000 OA
BRANCH  16  19
ATOM     19  C   UNK A   0       7.385   5.662  17.170  0.00  0.00    +0.000 A 
ATOM     20  C   UNK A   0       7.620   4.850  18.264  0.00  0.00    +0.000 A 
ATOM     21  N   UNK A   0       8.080   5.692  19.234  0.00  0.00    +0.000 N 
ATOM     22  C   UNK A   0       8.449   5.328  20.578  0.00  0.00    +0.000 C 
ATOM     23  C   UNK A   0       8.113   6.958  18.716  0.00  0.00    +0.000 A 
ATOM     24  N   UNK A   0       7.685   6.981  17.473  0.00  0.00    +0.000 NA
ENDBRANCH  16  19
ENDBRANCH  14  16
ENDBRANCH   4  14
BRANCH   6  25
ATOM     25  S   UNK A   0       2.130   8.706  18.190  0.00  0.00    +0.000 S 
BRANCH  25  26
ATOM     26  C   UNK A   0       1.609   8.320  19.890  0.00  0.00    +0.000 C 
BRANCH  26  27
ATOM     27  C   UNK A   0       0.928   9.516  20.510  0.00  0.00    +0.000 A 
ATOM     28  C   UNK A   0       1.003  10.790  19.924  0.00  0.00    +0.000 A 
ATOM     29  C   UNK A   0       0.311  11.875  20.480  0.00  0.00    +0.000 A 
ATOM     30  C   UNK A   0      -0.465  11.700  21.624  0.00  0.00    +0.000 A 
ATOM     31  C   UNK A   0      -0.542  10.442  22.209  0.00  0.00    +0.000 A 
ATOM     32  F   UNK A   0      -1.294  10.273  23.306  0.00  0.00    +0.000 F 
ATOM     33  C   UNK A   0       0.149   9.359  21.663  0.00  0.00    +0.000 A 
ATOM     34  F   UNK A   0       0.048   8.158  22.244  0.00  0.00    +0.000 F 
ENDBRANCH  26  27
ENDBRANCH  25  26
ENDBRANCH   6  25
TORSDOF 9
ENDMDL
MODEL 8
REMARK VINA RESULT:      -7.9      1.826      2.033
REMARK  Name = 
REMARK  11 active torsions:
REMARK  status: ('A' for Active; 'I' for Inactive)
REMARK    1  A    between atoms: CB_1  and  CA_2
REMARK    2  A    between atoms: CA_2  and  C_3
REMARK    3  A    between atoms: CA_2  and  N_5
REMARK    4  A    between atoms: C_3  and  O_4
REMARK    5  A    between atoms: C_8  and  N_9
REMARK    6  A    between atoms: N_9  and  S_10
REMARK    7  A    between atoms: S_10  and  C_13
REMARK    8  A    between atoms: N_15  and  C_16
REMARK    9  A    between atoms: C_20  and  S_21
REMARK   10  A    between atoms: S_21  and  C_22
REMARK   11  A    between atoms: C_22  and  C_23
REMARK                            x       y       z     vdW  Elec       q    Type
REMARK                         _______ _______ _______ _____ _____    ______ ____
ROOT
ATOM      1  N   ALA A   1       3.023   3.921  19.713  0.00  0.00    +0.000 N 
ATOM      2  C   UNK A   0       3.168   5.156  19.040  0.00  0.00    +0.000 A 
ATOM      3  C   UNK A   0       4.181   5.305  18.120  0.00  0.00    +0.000 A 
ATOM      4  C   UNK A   0       4.219   6.515  17.467  0.00  0.00    +0.000 A 
ATOM      5  N   UNK A   0       3.378   7.531  17.680  0.00  0.00    +0.000 NA
ATOM      6  C   UNK A   0       2.475   7.317  18.642  0.00  0.00    +0.000 A 
ATOM      7  N   UNK A   0       2.345   6.173  19.331  0.00  0.00    +0.000 NA
ATOM      8  H   ALA A   1       3.225   3.175  19.047  0.00  0.00    +0.000 HD
ENDROOT
BRANCH   1  10
ATOM      9  CB  ALA A   1       1.813   2.969  21.617  0.00  0.00    +0.000 C 
ATOM     10  CA  ALA A   1       1.670   3.704  20.277  0.00  0.00    +0.000 C 
BRANCH  10  11
ATOM     11  C   ALA A   1       0.817   2.854  19.304  0.00  0.00    +0.000 C 
BRANCH  11  12
ATOM     12  O   ALA A   1       1.479   1.628  18.971  0.00  0.00    +0.000 OA
ATOM     13  H   ALA A   1       2.195   1.497  19.614  0.00  0.00    +0.000 HD
ENDBRANCH  11  12
ENDBRANCH  10  11
ENDBRANCH   1  10
BRANCH   4  14
ATOM     14  N   UNK A   0       5.169   6.801  16.455  0.00  0.00    +0.000 N 
ATOM     15  H   UNK A   0       5.519   7.751  16.571  0.00  0.00    +0.000 HD
BRANCH  14  16
ATOM     16  S   UNK A   0       6.513   5.768  16.440  0.00  0.00    +0.000 S 
ATOM     17  O   UNK A   0       7.719   6.535  16.656  0.00  0.00    +0.000 OA
ATOM     18  O   UNK A   0       6.182   4.621  17.262  0.00  0.00    +0.000 OA
BRANCH  16  19
ATOM     19  C   UNK A   0       6.668   5.113  14.825  0.00  0.00    +0.000 A 
ATOM     20  C   UNK A   0       5.870   4.141  14.251  0.00  0.00    +0.000 A 
ATOM     21  N   UNK A   0       6.419   3.918  13.022  0.00  0.00    +0.000 N 
ATOM     22  C   UNK A   0       5.958   2.970  12.040  0.00  0.00    +0.000 C 
ATOM     23  C   UNK A   0       7.504   4.739  12.886  0.00  0.00    +0.000 A 
ATOM     24  N   UNK A   0       7.694   5.467  13.964  0.00  0.00    +0.000 NA
ENDBRANCH  16  19
ENDBRANCH  14  16
ENDBRANCH   4  14
BRANCH   6  25
ATOM     25  S   UNK A   0       1.364   8.613  19.118  0.00  0.00    +0.000 S 
BRANCH  25  26
ATOM     26  C   UNK A   0       2.035  10.013  18.168  0.00  0.00    +0.000 C 
BRANCH  26  27
ATOM     27  C   UNK A   0       1.336  11.292  18.562  0.00  0.00    +0.000 A 
ATOM     28  C   UNK A   0       0.052  11.281  19.134  0.00  0.00    +0.000 A 
ATOM     29  C   UNK A   0      -0.554  12.474  19.551  0.00  0.00    +0.000 A 
ATOM     30  C   UNK A   0       0.114  13.689  19.406  0.00  0.00    +0.000 A 
ATOM     31  C   UNK A   0       1.383  13.705  18.840  0.00  0.00    +0.000 A 
ATOM     32  F   UNK A   0       2.027  14.873  18.707  0.00  0.00    +0.000 F 
ATOM     33  C   UNK A   0       1.989  12.521  18.417  0.00  0.00    +0.000 A 
ATOM     34  F   UNK A   0       3.215  12.568  17.884  0.00  0.00    +0.000 F 
ENDBRANCH  26  27
ENDBRANCH  25  26
ENDBRANCH   6  25
TORSDOF 9
ENDMDL
MODEL 9
REMARK VINA RESULT:      -7.8      2.349      3.324
REMARK  Name = 
REMARK  11 active torsions:
REMARK  status: ('A' for Active; 'I' for Inactive)
REMARK    1  A    between atoms: CB_1  and  CA_2
REMARK    2  A    between atoms: CA_2  and  C_3
REMARK    3  A    between atoms: CA_2  and  N_5
REMARK    4  A    between atoms: C_3  and  O_4
REMARK    5  A    between atoms: C_8  and  N_9
REMARK    6  A    between atoms: N_9  and  S_10
REMARK    7  A    between atoms: S_10  and  C_13
REMARK    8  A    between atoms: N_15  and  C_16
REMARK    9  A    between atoms: C_20  and  S_21
REMARK   10  A    between atoms: S_21  and  C_22
REMARK   11  A    between atoms: C_22  and  C_23
REMARK                            x       y       z     vdW  Elec       q    Type
REMARK                         _______ _______ _______ _____ _____    ______ ____
ROOT
ATOM      1  N   ALA A   1       2.953   3.551  19.787  0.00  0.00    +0.000 N 
ATOM      2  C   UNK A   0       3.154   4.769  19.098  0.00  0.00    +0.000 A 
ATOM      3  C   UNK A   0       4.044   4.808  18.048  0.00  0.00    +0.000 A 
ATOM      4  C   UNK A   0       4.139   6.014  17.394  0.00  0.00    +0.000 A 
ATOM      5  N   UNK A   0       3.464   7.121  17.717  0.00  0.00    +0.000 NA
ATOM      6  C   UNK A   0       2.681   7.003  18.793  0.00  0.00    +0.000 A 
ATOM      7  N   UNK A   0       2.508   5.873  19.496  0.00  0.00    +0.000 NA
ATOM      8  H   ALA A   1       2.971   2.795  19.100  0.00  0.00    +0.000 HD
ENDROOT
BRANCH   1  10
ATOM      9  CB  ALA A   1       1.844   2.534  21.718  0.00  0.00    +0.000 C 
ATOM     10  CA  ALA A   1       1.672   3.490  20.530  0.00  0.00    +0.000 C 
BRANCH  10  11
ATOM     11  C   ALA A   1       0.542   2.975  19.605  0.00  0.00    +0.000 C 
BRANCH  11  12
ATOM     12  O   ALA A   1       0.915   1.748  18.967  0.00  0.00    +0.000 OA
ATOM     13  H   ALA A   1       0.207   1.103  19.132  0.00  0.00    +0.000 HD
ENDBRANCH  11  12
ENDBRANCH  10  11
ENDBRANCH   1  10
BRANCH   4  14
ATOM     14  N   UNK A   0       4.971   6.198  16.261  0.00  0.00    +0.000 N 
ATOM     15  H   UNK A   0       5.014   7.188  16.023  0.00  0.00    +0.000 HD
BRANCH  14  16
ATOM     16  S   UNK A   0       6.566   5.660  16.465  0.00  0.00    +0.000 S 
ATOM     17  O   UNK A   0       6.568   4.416  17.202  0.00  0.00    +0.000 OA
ATOM     18  O   UNK A   0       7.230   5.786  15.183  0.00  0.00    +0.000 OA
BRANCH  16  19
ATOM     19  C   UNK A   0       7.391   6.807  17.496  0.00  0.00    +0.000 A 
ATOM     20  C   UNK A   0       7.653   8.133  17.206  0.00  0.00    +0.000 A 
ATOM     21  N   UNK A   0       8.370   8.590  18.273  0.00  0.00    +0.000 N 
ATOM     22  C   UNK A   0       8.901   9.919  18.440  0.00  0.00    +0.000 C 
ATOM     23  C   UNK A   0       8.517   7.558  19.159  0.00  0.00    +0.000 A 
ATOM     24  N   UNK A   0       7.950   6.459  18.716  0.00  0.00    +0.000 NA
ENDBRANCH  16  19
ENDBRANCH  14  16
ENDBRANCH   4  14
BRANCH   6  25
ATOM     25  S   UNK A   0       1.810   8.416  19.414  0.00  0.00    +0.000 S 
BRANCH  25  26
ATOM     26  C   UNK A   0       1.381   9.269  17.864  0.00  0.00    +0.000 C 
BRANCH  26  27
ATOM     27  C   UNK A   0       0.171  10.147  18.071  0.00  0.00    +0.000 A 
ATOM     28  C   UNK A   0      -1.084   9.809  17.536  0.00  0.00    +0.000 A 
ATOM     29  C   UNK A   0      -2.209  10.605  17.793  0.00  0.00    +0.000 A 
ATOM     30  C   UNK A   0      -2.095  11.744  18.588  0.00  0.00    +0.000 A 
ATOM     31  C   UNK A   0      -0.857  12.084  19.119  0.00  0.00    +0.000 A 
ATOM     32  F   UNK A   0      -0.751  13.176  19.889  0.00  0.00    +0.000 F 
ATOM     33  C   UNK A   0       0.268  11.298  18.862  0.00  0.00    +0.000 A 
ATOM     34  F   UNK A   0       1.444  11.647  19.395  0.00  0.00    +0.000 F 
ENDBRANCH  26  27
ENDBRANCH  25  26
ENDBRANCH   6  25
TORSDOF 9
ENDMDL
