MODEL 1
REMARK VINA RESULT:      -7.3      0.000      0.000
REMARK  Name = 
REMARK  8 active torsions:
REMARK  status: ('A' for Active; 'I' for Inactive)
REMARK    1  A    between atoms: C_1  and  N_2
REMARK    2  A    between atoms: N_2  and  C_3
REMARK    3  A    between atoms: C_7  and  O_9
REMARK    4  A    between atoms: O_9  and  C_10
REMARK    5  A    between atoms: C_10  and  C_11
REMARK    6  A    between atoms: C_17  and  C_18
REMARK    7  A    between atoms: C_21  and  C_22
REMARK    8  A    between atoms: C_21  and  C_28
REMARK                            x       y       z     vdW  Elec       q    Type
REMARK                         _______ _______ _______ _____ _____    ______ ____
ROOT
ATOM      1  C   UNL     1       1.735  11.675  18.000  0.00  0.00    +0.000 C 
ATOM      2  C   UNL     1       0.658  11.990  19.045  0.00  0.00    +0.000 C 
ATOM      3  C   UNL     1       0.950  11.262  20.346  0.00  0.00    +0.000 C 
ATOM      4  N   UNL     1       0.979   9.815  20.134  0.00  0.00    +0.000 N 
ATOM      5  C   UNL     1       0.289   8.984  21.008  0.00  0.00    +0.000 C 
ATOM      6  O   UNL     1       0.508   7.794  21.171  0.00  0.00    +0.000 OA
ATOM      7  C   UNL     1       1.972   9.339  19.128  0.00  0.00    +0.000 C 
ATOM      8  C   UNL     1       1.806  10.145  17.811  0.00  0.00    +0.000 C 
ENDROOT
BRANCH   7   9
ATOM      9  C   UNL     1       1.985   7.811  18.838  0.00  0.00    +0.000 C 
ATOM     10  C   UNL     1       2.064   7.387  17.390  0.00  0.00    +0.000 C 
ATOM     11  O   UNL     1       2.339   5.989  17.482  0.00  0.00    +0.000 OA
ATOM     12  C   UNL     1       3.115   5.833  18.695  0.00  0.00    +0.000 C 
ATOM     13  O   UNL     1       3.145   7.126  19.368  0.00  0.00    +0.000 OA
BRANCH  12  14
ATOM     14  C   UNL     1       2.421   4.804  19.598  0.00  0.00    +0.000 A 
ATOM     15  C   UNL     1       2.716   4.735  20.972  0.00  0.00    +0.000 A 
ATOM     16  C   UNL     1       2.123   3.771  21.789  0.00  0.00    +0.000 A 
ATOM     17  C   UNL     1       1.218   2.861  21.249  0.00  0.00    +0.000 A 
ATOM     18  C   UNL     1       0.889   2.928  19.897  0.00  0.00    +0.000 A 
ATOM     19  C   UNL     1       1.479   3.897  19.080  0.00  0.00    +0.000 A 
ENDBRANCH  12  14
BRANCH  12  20
ATOM     20  C   UNL     1       4.519   5.373  18.290  0.00  0.00    +0.000 A 
ATOM     21  C   UNL     1       4.778   4.792  17.038  0.00  0.00    +0.000 A 
ATOM     22  C   UNL     1       6.083   4.443  16.669  0.00  0.00    +0.000 A 
ATOM     23  C   UNL     1       7.147   4.669  17.542  0.00  0.00    +0.000 A 
ATOM     24  C   UNL     1       6.913   5.234  18.789  0.00  0.00    +0.000 A 
ATOM     25  C   UNL     1       5.612   5.584  19.156  0.00  0.00    +0.000 A 
ENDBRANCH  12  20
ENDBRANCH   7   9
BRANCH   1  27
ATOM     26  C   UNL     1       2.914  13.769  18.476  0.00  0.00    +0.000 C 
ATOM     27  N   UNL     1       2.989  12.317  18.425  0.00  0.00    +0.000 NA
ATOM     28  H   UNL     1       3.226  11.980  19.361  0.00  0.00    +0.000 HD
ENDBRANCH   1  27
BRANCH   5  29
ATOM     29  O   UNL     1      -0.749   9.635  21.597  0.00  0.00    +0.000 OA
BRANCH  29  30
ATOM     30  C   UNL     1      -0.494  10.177  22.898  0.00  0.00    +0.000 C 
BRANCH  30  31
ATOM     31  C   UNL     1      -1.291  11.453  23.053  0.00  0.00    +0.000 A 
ATOM     32  C   UNL     1      -0.705  12.699  22.784  0.00  0.00    +0.000 A 
ATOM     33  C   UNL     1      -1.433  13.879  22.957  0.00  0.00    +0.000 A 
ATOM     34  C   UNL     1      -2.751  13.829  23.404  0.00  0.00    +0.000 A 
ATOM     35  C   UNL     1      -3.347  12.595  23.674  0.00  0.00    +0.000 A 
ATOM     36  C   UNL     1      -2.622  11.416  23.495  0.00  0.00    +0.000 A 
ENDBRANCH  30  31
ENDBRANCH  29  30
ENDBRANCH   5  29
TORSDOF 7
ENDMDL
MODEL 2
REMARK VINA RESULT:      -7.2      0.164      1.165
REMARK  Name = 
REMARK  8 active torsions:
REMARK  status: ('A' for Active; 'I' for Inactive)
REMARK    1  A    between atoms: C_1  and  N_2
REMARK    2  A    between atoms: N_2  and  C_3
REMARK    3  A    between atoms: C_7  and  O_9
REMARK    4  A    between atoms: O_9  and  C_10
REMARK    5  A    between atoms: C_10  and  C_11
REMARK    6  A    between atoms: C_17  and  C_18
REMARK    7  A    between atoms: C_21  and  C_22
REMARK    8  A    between atoms: C_21  and  C_28
REMARK                            x       y       z     vdW  Elec       q    Type
REMARK                         _______ _______ _______ _____ _____    ______ ____
ROOT
ATOM      1  C   UNL     1       1.605  11.560  17.916  0.00  0.00    +0.000 C 
ATOM      2  C   UNL     1       0.560  11.855  18.999  0.00  0.00    +0.000 C 
ATOM      3  C   UNL     1       0.930  11.158  20.298  0.00  0.00    +0.000 C 
ATOM      4  N   UNL     1       1.000   9.709  20.105  0.00  0.00    +0.000 N 
ATOM      5  C   UNL     1       0.376   8.870  21.019  0.00  0.00    +0.000 C 
ATOM      6  O   UNL     1       0.643   7.690  21.191  0.00  0.00    +0.000 OA
ATOM      7  C   UNL     1       1.969   9.251  19.068  0.00  0.00    +0.000 C 
ATOM      8  C   UNL     1       1.722  10.030  17.747  0.00  0.00    +0.000 C 
ENDROOT
BRANCH   7   9
ATOM      9  C   UNL     1       2.024   7.720  18.799  0.00  0.00    +0.000 C 
ATOM     10  C   UNL     1       2.134   7.279  17.359  0.00  0.00    +0.000 C 
ATOM     11  O   UNL     1       2.442   5.890  17.475  0.00  0.00    +0.000 OA
ATOM     12  C   UNL     1       3.204   5.769  18.700  0.00  0.00    +0.000 C 
ATOM     13  O   UNL     1       3.192   7.072  19.355  0.00  0.00    +0.000 OA
BRANCH  12  14
ATOM     14  C   UNL     1       2.523   4.737  19.608  0.00  0.00    +0.000 A 
ATOM     15  C   UNL     1       1.561   3.848  19.096  0.00  0.00    +0.000 A 
ATOM     16  C   UNL     1       0.904   2.938  19.927  0.00  0.00    +0.000 A 
ATOM     17  C   UNL     1       1.202   2.895  21.286  0.00  0.00    +0.000 A 
ATOM     18  C   UNL     1       2.171   3.747  21.811  0.00  0.00    +0.000 A 
ATOM     19  C   UNL     1       2.833   4.654  20.978  0.00  0.00    +0.000 A 
ENDBRANCH  12  14
BRANCH  12  20
ATOM     20  C   UNL     1       4.625   5.339  18.321  0.00  0.00    +0.000 A 
ATOM     21  C   UNL     1       4.914   4.738  17.086  0.00  0.00    +0.000 A 
ATOM     22  C   UNL     1       6.232   4.417  16.739  0.00  0.00    +0.000 A 
ATOM     23  C   UNL     1       7.279   4.690  17.619  0.00  0.00    +0.000 A 
ATOM     24  C   UNL     1       7.015   5.276  18.850  0.00  0.00    +0.000 A 
ATOM     25  C   UNL     1       5.701   5.598  19.195  0.00  0.00    +0.000 A 
ENDBRANCH  12  20
ENDBRANCH   7   9
BRANCH   1  27
ATOM     26  C   UNL     1       2.753  13.702  18.226  0.00  0.00    +0.000 C 
ATOM     27  N   UNL     1       2.852  12.251  18.280  0.00  0.00    +0.000 NA
ATOM     28  H   UNL     1       3.102  11.988  19.236  0.00  0.00    +0.000 HD
ENDBRANCH   1  27
BRANCH   5  29
ATOM     29  O   UNL     1      -0.660   9.493  21.640  0.00  0.00    +0.000 OA
BRANCH  29  30
ATOM     30  C   UNL     1      -0.357  10.121  22.892  0.00  0.00    +0.000 C 
BRANCH  30  31
ATOM     31  C   UNL     1      -1.149  11.405  22.991  0.00  0.00    +0.000 A 
ATOM     32  C   UNL     1      -2.499  11.386  23.370  0.00  0.00    +0.000 A 
ATOM     33  C   UNL     1      -3.237  12.571  23.431  0.00  0.00    +0.000 A 
ATOM     34  C   UNL     1      -2.636  13.787  23.111  0.00  0.00    +0.000 A 
ATOM     35  C   UNL     1      -1.293  13.820  22.734  0.00  0.00    +0.000 A 
ATOM     36  C   UNL     1      -0.553  12.637  22.679  0.00  0.00    +0.000 A 
ENDBRANCH  30  31
ENDBRANCH  29  30
ENDBRANCH   5  29
TORSDOF 7
ENDMDL
MODEL 3
REMARK VINA RESULT:      -7.2      5.906      8.201
REMARK  Name = 
REMARK  8 active torsions:
REMARK  status: ('A' for Active; 'I' for Inactive)
REMARK    1  A    between atoms: C_1  and  N_2
REMARK    2  A    between atoms: N_2  and  C_3
REMARK    3  A    between atoms: C_7  and  O_9
REMARK    4  A    between atoms: O_9  and  C_10
REMARK    5  A    between atoms: C_10  and  C_11
REMARK    6  A    between atoms: C_17  and  C_18
REMARK    7  A    between atoms: C_21  and  C_22
REMARK    8  A    between atoms: C_21  and  C_28
REMARK                            x       y       z     vdW  Elec       q    Type
REMARK                         _______ _______ _______ _____ _____    ______ ____
ROOT
ATOM      1  C   UNL     1      -2.450   9.989  17.015  0.00  0.00    +0.000 C 
ATOM      2  C   UNL     1      -3.934  10.016  17.401  0.00  0.00    +0.000 C 
ATOM      3  C   UNL     1      -4.354  11.420  17.802  0.00  0.00    +0.000 C 
ATOM      4  N   UNL     1      -3.570  11.887  18.946  0.00  0.00    +0.000 N 
ATOM      5  C   UNL     1      -4.219  12.484  20.019  0.00  0.00    +0.000 C 
ATOM      6  O   UNL     1      -3.695  13.220  20.840  0.00  0.00    +0.000 OA
ATOM      7  C   UNL     1      -2.093  11.910  18.738  0.00  0.00    +0.000 C 
ATOM      8  C   UNL     1      -1.623  10.531  18.199  0.00  0.00    +0.000 C 
ENDROOT
BRANCH   7   9
ATOM      9  C   UNL     1      -1.229  12.345  19.956  0.00  0.00    +0.000 C 
ATOM     10  C   UNL     1      -0.068  11.455  20.328  0.00  0.00    +0.000 C 
ATOM     11  O   UNL     1       0.660  12.254  21.261  0.00  0.00    +0.000 OA
ATOM     12  C   UNL     1       0.443  13.623  20.841  0.00  0.00    +0.000 C 
ATOM     13  O   UNL     1      -0.536  13.601  19.760  0.00  0.00    +0.000 OA
BRANCH  12  14
ATOM     14  C   UNL     1      -0.122  14.421  22.023  0.00  0.00    +0.000 A 
ATOM     15  C   UNL     1       0.026  15.819  22.087  0.00  0.00    +0.000 A 
ATOM     16  C   UNL     1      -0.445  16.544  23.183  0.00  0.00    +0.000 A 
ATOM     17  C   UNL     1      -1.079  15.887  24.233  0.00  0.00    +0.000 A 
ATOM     18  C   UNL     1      -1.262  14.507  24.179  0.00  0.00    +0.000 A 
ATOM     19  C   UNL     1      -0.796  13.781  23.080  0.00  0.00    +0.000 A 
ENDBRANCH  12  14
BRANCH  12  20
ATOM     20  C   UNL     1       1.790  14.182  20.373  0.00  0.00    +0.000 A 
ATOM     21  C   UNL     1       1.929  14.858  19.150  0.00  0.00    +0.000 A 
ATOM     22  C   UNL     1       3.158  15.418  18.778  0.00  0.00    +0.000 A 
ATOM     23  C   UNL     1       4.264  15.312  19.621  0.00  0.00    +0.000 A 
ATOM     24  C   UNL     1       4.152  14.640  20.831  0.00  0.00    +0.000 A 
ATOM     25  C   UNL     1       2.926  14.084  21.202  0.00  0.00    +0.000 A 
ENDBRANCH  12  20
ENDBRANCH   7   9
BRANCH   1  27
ATOM     26  C   UNL     1      -3.033  10.136  14.639  0.00  0.00    +0.000 C 
ATOM     27  N   UNL     1      -2.292  10.720  15.747  0.00  0.00    +0.000 NA
ATOM     28  H   UNL     1      -2.627  11.677  15.880  0.00  0.00    +0.000 HD
ENDBRANCH   1  27
BRANCH   5  29
ATOM     29  O   UNL     1      -5.509  12.063  20.116  0.00  0.00    +0.000 OA
BRANCH  29  30
ATOM     30  C   UNL     1      -6.506  13.091  20.132  0.00  0.00    +0.000 C 
BRANCH  30  31
ATOM     31  C   UNL     1      -6.927  13.333  21.564  0.00  0.00    +0.000 A 
ATOM     32  C   UNL     1      -7.037  14.638  22.067  0.00  0.00    +0.000 A 
ATOM     33  C   UNL     1      -7.396  14.857  23.399  0.00  0.00    +0.000 A 
ATOM     34  C   UNL     1      -7.645  13.778  24.244  0.00  0.00    +0.000 A 
ATOM     35  C   UNL     1      -7.542  12.475  23.756  0.00  0.00    +0.000 A 
ATOM     36  C   UNL     1      -7.188  12.255  22.422  0.00  0.00    +0.000 A 
ENDBRANCH  30  31
ENDBRANCH  29  30
ENDBRANCH   5  29
TORSDOF 7
ENDMDL
MODEL 4
REMARK VINA RESULT:      -7.2      5.989      8.599
REMARK  Name = 
REMARK  8 active torsions:
REMARK  status: ('A' for Active; 'I' for Inactive)
REMARK    1  A    between atoms: C_1  and  N_2
REMARK    2  A    between atoms: N_2  and  C_3
REMARK    3  A    between atoms: C_7  and  O_9
REMARK    4  A    between atoms: O_9  and  C_10
REMARK    5  A    between atoms: C_10  and  C_11
REMARK    6  A    between atoms: C_17  and  C_18
REMARK    7  A    between atoms: C_21  and  C_22
REMARK    8  A    between atoms: C_21  and  C_28
REMARK                            x       y       z     vdW  Elec       q    Type
REMARK                         _______ _______ _______ _____ _____    ______ ____
ROOT
ATOM      1  C   UNL     1      -2.445  10.005  17.157  0.00  0.00    +0.000 C 
ATOM      2  C   UNL     1      -3.943  10.069  17.481  0.00  0.00    +0.000 C 
ATOM      3  C   UNL     1      -4.353  11.493  17.817  0.00  0.00    +0.000 C 
ATOM      4  N   UNL     1      -3.608  11.985  18.977  0.00  0.00    +0.000 N 
ATOM      5  C   UNL     1      -4.290  12.629  20.002  0.00  0.00    +0.000 C 
ATOM      6  O   UNL     1      -3.786  13.383  20.819  0.00  0.00    +0.000 OA
ATOM      7  C   UNL     1      -2.124  11.976  18.830  0.00  0.00    +0.000 C 
ATOM      8  C   UNL     1      -1.657  10.573  18.356  0.00  0.00    +0.000 C 
ENDROOT
BRANCH   7   9
ATOM      9  C   UNL     1      -1.302  12.439  20.067  0.00  0.00    +0.000 C 
ATOM     10  C   UNL     1      -0.174  11.541  20.517  0.00  0.00    +0.000 C 
ATOM     11  O   UNL     1       0.529  12.359  21.452  0.00  0.00    +0.000 OA
ATOM     12  C   UNL     1       0.355  13.716  20.977  0.00  0.00    +0.000 C 
ATOM     13  O   UNL     1      -0.578  13.674  19.858  0.00  0.00    +0.000 OA
BRANCH  12  14
ATOM     14  C   UNL     1      -0.243  14.564  22.108  0.00  0.00    +0.000 A 
ATOM     15  C   UNL     1      -0.155  15.968  22.081  0.00  0.00    +0.000 A 
ATOM     16  C   UNL     1      -0.655  16.742  23.130  0.00  0.00    +0.000 A 
ATOM     17  C   UNL     1      -1.261  16.127  24.222  0.00  0.00    +0.000 A 
ATOM     18  C   UNL     1      -1.384  14.740  24.258  0.00  0.00    +0.000 A 
ATOM     19  C   UNL     1      -0.888  13.965  23.206  0.00  0.00    +0.000 A 
ENDBRANCH  12  14
BRANCH  12  20
ATOM     20  C   UNL     1       1.731  14.236  20.548  0.00  0.00    +0.000 A 
ATOM     21  C   UNL     1       2.850  14.159  21.391  0.00  0.00    +0.000 A 
ATOM     22  C   UNL     1       4.110  14.581  20.947  0.00  0.00    +0.000 A 
ATOM     23  C   UNL     1       4.270  15.085  19.657  0.00  0.00    +0.000 A 
ATOM     24  C   UNL     1       3.174  15.179  18.808  0.00  0.00    +0.000 A 
ATOM     25  C   UNL     1       1.919  14.756  19.250  0.00  0.00    +0.000 A 
ENDBRANCH  12  20
ENDBRANCH   7   9
BRANCH   1  27
ATOM     26  C   UNL     1      -2.963  10.109  14.764  0.00  0.00    +0.000 C 
ATOM     27  N   UNL     1      -2.223  10.691  15.874  0.00  0.00    +0.000 NA
ATOM     28  H   UNL     1      -2.515  11.665  15.971  0.00  0.00    +0.000 HD
ENDBRANCH   1  27
BRANCH   5  29
ATOM     29  O   UNL     1      -5.590  12.233  20.059  0.00  0.00    +0.000 OA
BRANCH  29  30
ATOM     30  C   UNL     1      -6.550  13.264  20.317  0.00  0.00    +0.000 C 
BRANCH  30  31
ATOM     31  C   UNL     1      -6.731  14.079  19.056  0.00  0.00    +0.000 A 
ATOM     32  C   UNL     1      -6.463  15.456  19.049  0.00  0.00    +0.000 A 
ATOM     33  C   UNL     1      -6.661  16.213  17.891  0.00  0.00    +0.000 A 
ATOM     34  C   UNL     1      -7.133  15.605  16.730  0.00  0.00    +0.000 A 
ATOM     35  C   UNL     1      -7.402  14.235  16.722  0.00  0.00    +0.000 A 
ATOM     36  C   UNL     1      -7.199  13.477  17.878  0.00  0.00    +0.000 A 
ENDBRANCH  30  31
ENDBRANCH  29  30
ENDBRANCH   5  29
TORSDOF 7
ENDMDL
MODEL 5
REMARK VINA RESULT:      -7.1      5.978      8.616
REMARK  Name = 
REMARK  8 active torsions:
REMARK  status: ('A' for Active; 'I' for Inactive)
REMARK    1  A    between atoms: C_1  and  N_2
REMARK    2  A    between atoms: N_2  and  C_3
REMARK    3  A    between atoms: C_7  and  O_9
REMARK    4  A    between atoms: O_9  and  C_10
REMARK    5  A    between atoms: C_10  and  C_11
REMARK    6  A    between atoms: C_17  and  C_18
REMARK    7  A    between atoms: C_21  and  C_22
REMARK    8  A    between atoms: C_21  and  C_28
REMARK                            x       y       z     vdW  Elec       q    Type
REMARK                         _______ _______ _______ _____ _____    ______ ____
ROOT
ATOM      1  C   UNL     1      -2.462   9.993  17.091  0.00  0.00    +0.000 C 
ATOM      2  C   UNL     1      -3.959  10.066  17.418  0.00  0.00    +0.000 C 
ATOM      3  C   UNL     1      -4.361  11.492  17.755  0.00  0.00    +0.000 C 
ATOM      4  N   UNL     1      -3.610  11.982  18.911  0.00  0.00    +0.000 N 
ATOM      5  C   UNL     1      -4.286  12.629  19.937  0.00  0.00    +0.000 C 
ATOM      6  O   UNL     1      -3.776  13.382  20.753  0.00  0.00    +0.000 OA
ATOM      7  C   UNL     1      -2.127  11.965  18.760  0.00  0.00    +0.000 C 
ATOM      8  C   UNL     1      -1.668  10.559  18.287  0.00  0.00    +0.000 C 
ENDROOT
BRANCH   7   9
ATOM      9  C   UNL     1      -1.299  12.424  19.995  0.00  0.00    +0.000 C 
ATOM     10  C   UNL     1      -0.162  11.532  20.431  0.00  0.00    +0.000 C 
ATOM     11  O   UNL     1       0.542  12.348  21.366  0.00  0.00    +0.000 OA
ATOM     12  C   UNL     1       0.356  13.707  20.902  0.00  0.00    +0.000 C 
ATOM     13  O   UNL     1      -0.585  13.667  19.789  0.00  0.00    +0.000 OA
BRANCH  12  14
ATOM     14  C   UNL     1      -0.240  14.543  22.042  0.00  0.00    +0.000 A 
ATOM     15  C   UNL     1      -0.800  13.925  23.175  0.00  0.00    +0.000 A 
ATOM     16  C   UNL     1      -1.386  14.679  24.193  0.00  0.00    +0.000 A 
ATOM     17  C   UNL     1      -1.415  16.068  24.102  0.00  0.00    +0.000 A 
ATOM     18  C   UNL     1      -0.842  16.704  23.004  0.00  0.00    +0.000 A 
ATOM     19  C   UNL     1      -0.251  15.949  21.986  0.00  0.00    +0.000 A 
ENDBRANCH  12  14
BRANCH  12  20
ATOM     20  C   UNL     1       1.725  14.239  20.466  0.00  0.00    +0.000 A 
ATOM     21  C   UNL     1       2.843  14.194  21.314  0.00  0.00    +0.000 A 
ATOM     22  C   UNL     1       4.098  14.626  20.865  0.00  0.00    +0.000 A 
ATOM     23  C   UNL     1       4.254  15.109  19.566  0.00  0.00    +0.000 A 
ATOM     24  C   UNL     1       3.159  15.171  18.713  0.00  0.00    +0.000 A 
ATOM     25  C   UNL     1       1.909  14.738  19.160  0.00  0.00    +0.000 A 
ENDBRANCH  12  20
ENDBRANCH   7   9
BRANCH   1  27
ATOM     26  C   UNL     1      -3.008  10.115  14.705  0.00  0.00    +0.000 C 
ATOM     27  N   UNL     1      -2.240  10.676  15.806  0.00  0.00    +0.000 NA
ATOM     28  H   UNL     1      -2.508  11.657  15.909  0.00  0.00    +0.000 HD
ENDBRANCH   1  27
BRANCH   5  29
ATOM     29  O   UNL     1      -5.588  12.240  19.999  0.00  0.00    +0.000 OA
BRANCH  29  30
ATOM     30  C   UNL     1      -6.538  13.270  20.294  0.00  0.00    +0.000 C 
BRANCH  30  31
ATOM     31  C   UNL     1      -6.767  14.088  19.043  0.00  0.00    +0.000 A 
ATOM     32  C   UNL     1      -7.234  13.481  17.867  0.00  0.00    +0.000 A 
ATOM     33  C   UNL     1      -7.415  14.232  16.704  0.00  0.00    +0.000 A 
ATOM     34  C   UNL     1      -7.130  15.596  16.699  0.00  0.00    +0.000 A 
ATOM     35  C   UNL     1      -6.666  16.213  17.862  0.00  0.00    +0.000 A 
ATOM     36  C   UNL     1      -6.490  15.463  19.028  0.00  0.00    +0.000 A 
ENDBRANCH  30  31
ENDBRANCH  29  30
ENDBRANCH   5  29
TORSDOF 7
ENDMDL
MODEL 6
REMARK VINA RESULT:      -7.1      5.030      8.188
REMARK  Name = 
REMARK  8 active torsions:
REMARK  status: ('A' for Active; 'I' for Inactive)
REMARK    1  A    between atoms: C_1  and  N_2
REMARK    2  A    between atoms: N_2  and  C_3
REMARK    3  A    between atoms: C_7  and  O_9
REMARK    4  A    between atoms: O_9  and  C_10
REMARK    5  A    between atoms: C_10  and  C_11
REMARK    6  A    between atoms: C_17  and  C_18
REMARK    7  A    between atoms: C_21  and  C_22
REMARK    8  A    between atoms: C_21  and  C_28
REMARK                            x       y       z     vdW  Elec       q    Type
REMARK                         _______ _______ _______ _____ _____    ______ ____
ROOT
ATOM      1  C   UNL     1       1.801  17.647  19.021  0.00  0.00    +0.000 C 
ATOM      2  C   UNL     1       3.179  17.509  19.680  0.00  0.00    +0.000 C 
ATOM      3  C   UNL     1       3.704  16.092  19.524  0.00  0.00    +0.000 C 
ATOM      4  N   UNL     1       2.794  15.132  20.149  0.00  0.00    +0.000 N 
ATOM      5  C   UNL     1       3.311  14.144  20.978  0.00  0.00    +0.000 C 
ATOM      6  O   UNL     1       2.749  13.098  21.265  0.00  0.00    +0.000 OA
ATOM      7  C   UNL     1       1.398  15.145  19.627  0.00  0.00    +0.000 C 
ATOM      8  C   UNL     1       0.852  16.599  19.639  0.00  0.00    +0.000 C 
ENDROOT
BRANCH   7   9
ATOM      9  C   UNL     1       0.392  14.176  20.312  0.00  0.00    +0.000 C 
ATOM     10  C   UNL     1      -0.953  14.743  20.699  0.00  0.00    +0.000 C 
ATOM     11  O   UNL     1      -1.708  13.576  21.023  0.00  0.00    +0.000 OA
ATOM     12  C   UNL     1      -1.185  12.533  20.167  0.00  0.00    +0.000 C 
ATOM     13  O   UNL     1      -0.027  13.077  19.468  0.00  0.00    +0.000 OA
BRANCH  12  14
ATOM     14  C   UNL     1      -0.743  11.350  21.039  0.00  0.00    +0.000 A 
ATOM     15  C   UNL     1      -1.172  11.238  22.375  0.00  0.00    +0.000 A 
ATOM     16  C   UNL     1      -0.735  10.190  23.187  0.00  0.00    +0.000 A 
ATOM     17  C   UNL     1       0.133   9.229  22.677  0.00  0.00    +0.000 A 
ATOM     18  C   UNL     1       0.549   9.303  21.350  0.00  0.00    +0.000 A 
ATOM     19  C   UNL     1       0.109  10.350  20.535  0.00  0.00    +0.000 A 
ENDBRANCH  12  14
BRANCH  12  20
ATOM     20  C   UNL     1      -2.296  12.132  19.192  0.00  0.00    +0.000 A 
ATOM     21  C   UNL     1      -2.015  11.605  17.921  0.00  0.00    +0.000 A 
ATOM     22  C   UNL     1      -3.051  11.185  17.077  0.00  0.00    +0.000 A 
ATOM     23  C   UNL     1      -4.380  11.283  17.488  0.00  0.00    +0.000 A 
ATOM     24  C   UNL     1      -4.681  11.810  18.738  0.00  0.00    +0.000 A 
ATOM     25  C   UNL     1      -3.649  12.227  19.580  0.00  0.00    +0.000 A 
ENDBRANCH  12  20
ENDBRANCH   7   9
BRANCH   1  27
ATOM     26  C   UNL     1       1.108  18.445  16.810  0.00  0.00    +0.000 C 
ATOM     27  N   UNL     1       1.979  17.554  17.563  0.00  0.00    +0.000 NA
ATOM     28  H   UNL     1       2.946  17.795  17.337  0.00  0.00    +0.000 HD
ENDBRANCH   1  27
BRANCH   5  29
ATOM     29  O   UNL     1       4.491  14.528  21.533  0.00  0.00    +0.000 OA
BRANCH  29  30
ATOM     30  C   UNL     1       4.466  14.804  22.939  0.00  0.00    +0.000 C 
BRANCH  30  31
ATOM     31  C   UNL     1       5.599  14.051  23.598  0.00  0.00    +0.000 A 
ATOM     32  C   UNL     1       6.314  14.622  24.662  0.00  0.00    +0.000 A 
ATOM     33  C   UNL     1       7.381  13.937  25.249  0.00  0.00    +0.000 A 
ATOM     34  C   UNL     1       7.749  12.678  24.779  0.00  0.00    +0.000 A 
ATOM     35  C   UNL     1       7.045  12.098  23.723  0.00  0.00    +0.000 A 
ATOM     36  C   UNL     1       5.974  12.779  23.139  0.00  0.00    +0.000 A 
ENDBRANCH  30  31
ENDBRANCH  29  30
ENDBRANCH   5  29
TORSDOF 7
ENDMDL
MODEL 7
REMARK VINA RESULT:      -7.1      3.347      9.872
REMARK  Name = 
REMARK  8 active torsions:
REMARK  status: ('A' for Active; 'I' for Inactive)
REMARK    1  A    between atoms: C_1  and  N_2
REMARK    2  A    between atoms: N_2  and  C_3
REMARK    3  A    between atoms: C_7  and  O_9
REMARK    4  A    between atoms: O_9  and  C_10
REMARK    5  A    between atoms: C_10  and  C_11
REMARK    6  A    between atoms: C_17  and  C_18
REMARK    7  A    between atoms: C_21  and  C_22
REMARK    8  A    between atoms: C_21  and  C_28
REMARK                            x       y       z     vdW  Elec       q    Type
REMARK                         _______ _______ _______ _____ _____    ______ ____
ROOT
ATOM      1  C   UNL     1       1.475  14.482  20.981  0.00  0.00    +0.000 C 
ATOM      2  C   UNL     1       2.333  13.272  20.590  0.00  0.00    +0.000 C 
ATOM      3  C   UNL     1       1.711  12.537  19.414  0.00  0.00    +0.000 C 
ATOM      4  N   UNL     1       0.368  12.063  19.753  0.00  0.00    +0.000 N 
ATOM      5  C   UNL     1       0.011  10.755  19.448  0.00  0.00    +0.000 C 
ATOM      6  O   UNL     1      -1.134  10.344  19.339  0.00  0.00    +0.000 OA
ATOM      7  C   UNL     1      -0.594  13.122  20.171  0.00  0.00    +0.000 C 
ATOM      8  C   UNL     1       0.044  13.993  21.287  0.00  0.00    +0.000 C 
ENDROOT
BRANCH   7   9
ATOM      9  C   UNL     1      -2.012  12.642  20.594  0.00  0.00    +0.000 C 
ATOM     10  C   UNL     1      -2.240  12.384  22.064  0.00  0.00    +0.000 C 
ATOM     11  O   UNL     1      -3.658  12.244  22.146  0.00  0.00    +0.000 OA
ATOM     12  C   UNL     1      -4.187  13.106  21.109  0.00  0.00    +0.000 C 
ATOM     13  O   UNL     1      -3.056  13.612  20.340  0.00  0.00    +0.000 OA
BRANCH  12  14
ATOM     14  C   UNL     1      -5.096  12.277  20.192  0.00  0.00    +0.000 A 
ATOM     15  C   UNL     1      -4.717  11.988  18.868  0.00  0.00    +0.000 A 
ATOM     16  C   UNL     1      -5.561  11.275  18.015  0.00  0.00    +0.000 A 
ATOM     17  C   UNL     1      -6.798  10.830  18.472  0.00  0.00    +0.000 A 
ATOM     18  C   UNL     1      -7.183  11.080  19.787  0.00  0.00    +0.000 A 
ATOM     19  C   UNL     1      -6.336  11.789  20.643  0.00  0.00    +0.000 A 
ENDBRANCH  12  14
BRANCH  12  20
ATOM     20  C   UNL     1      -4.957  14.238  21.795  0.00  0.00    +0.000 A 
ATOM     21  C   UNL     1      -5.426  15.354  21.083  0.00  0.00    +0.000 A 
ATOM     22  C   UNL     1      -6.185  16.342  21.723  0.00  0.00    +0.000 A 
ATOM     23  C   UNL     1      -6.487  16.231  23.080  0.00  0.00    +0.000 A 
ATOM     24  C   UNL     1      -6.025  15.140  23.806  0.00  0.00    +0.000 A 
ATOM     25  C   UNL     1      -5.270  14.154  23.167  0.00  0.00    +0.000 A 
ENDBRANCH  12  20
ENDBRANCH   7   9
BRANCH   1  27
ATOM     26  C   UNL     1       1.516  16.859  20.389  0.00  0.00    +0.000 C 
ATOM     27  N   UNL     1       1.584  15.486  19.911  0.00  0.00    +0.000 NA
ATOM     28  H   UNL     1       2.481  15.361  19.437  0.00  0.00    +0.000 HD
ENDBRANCH   1  27
BRANCH   5  29
ATOM     29  O   UNL     1       1.100   9.943  19.389  0.00  0.00    +0.000 OA
BRANCH  29  30
ATOM     30  C   UNL     1       1.331   9.293  18.133  0.00  0.00    +0.000 C 
BRANCH  30  31
ATOM     31  C   UNL     1       2.210   8.085  18.371  0.00  0.00    +0.000 A 
ATOM     32  C   UNL     1       2.033   7.284  19.508  0.00  0.00    +0.000 A 
ATOM     33  C   UNL     1       2.866   6.187  19.741  0.00  0.00    +0.000 A 
ATOM     34  C   UNL     1       3.886   5.880  18.844  0.00  0.00    +0.000 A 
ATOM     35  C   UNL     1       4.072   6.668  17.707  0.00  0.00    +0.000 A 
ATOM     36  C   UNL     1       3.236   7.761  17.471  0.00  0.00    +0.000 A 
ENDBRANCH  30  31
ENDBRANCH  29  30
ENDBRANCH   5  29
TORSDOF 7
ENDMDL
MODEL 8
REMARK VINA RESULT:      -7.0      3.308      9.698
REMARK  Name = 
REMARK  8 active torsions:
REMARK  status: ('A' for Active; 'I' for Inactive)
REMARK    1  A    between atoms: C_1  and  N_2
REMARK    2  A    between atoms: N_2  and  C_3
REMARK    3  A    between atoms: C_7  and  O_9
REMARK    4  A    between atoms: O_9  and  C_10
REMARK    5  A    between atoms: C_10  and  C_11
REMARK    6  A    between atoms: C_17  and  C_18
REMARK    7  A    between atoms: C_21  and  C_22
REMARK    8  A    between atoms: C_21  and  C_28
REMARK                            x       y       z     vdW  Elec       q    Type
REMARK                         _______ _______ _______ _____ _____    ______ ____
ROOT
ATOM      1  C   UNL     1       1.339  14.656  20.113  0.00  0.00    +0.000 C 
ATOM      2  C   UNL     1       2.249  13.435  19.925  0.00  0.00    +0.000 C 
ATOM      3  C   UNL     1       1.626  12.454  18.947  0.00  0.00    +0.000 C 
ATOM      4  N   UNL     1       0.326  11.992  19.435  0.00  0.00    +0.000 N 
ATOM      5  C   UNL     1       0.032  10.635  19.409  0.00  0.00    +0.000 C 
ATOM      6  O   UNL     1      -1.091  10.155  19.437  0.00  0.00    +0.000 OA
ATOM      7  C   UNL     1      -0.679  13.065  19.684  0.00  0.00    +0.000 C 
ATOM      8  C   UNL     1      -0.050  14.170  20.577  0.00  0.00    +0.000 C 
ENDROOT
BRANCH   7   9
ATOM      9  C   UNL     1      -2.050  12.611  20.259  0.00  0.00    +0.000 C 
ATOM     10  C   UNL     1      -2.141  12.426  21.755  0.00  0.00    +0.000 C 
ATOM     11  O   UNL     1      -3.545  12.295  21.975  0.00  0.00    +0.000 OA
ATOM     12  C   UNL     1      -4.169  13.105  20.950  0.00  0.00    +0.000 C 
ATOM     13  O   UNL     1      -3.115  13.570  20.055  0.00  0.00    +0.000 OA
BRANCH  12  14
ATOM     14  C   UNL     1      -5.158  12.234  20.163  0.00  0.00    +0.000 A 
ATOM     15  C   UNL     1      -4.890  11.859  18.834  0.00  0.00    +0.000 A 
ATOM     16  C   UNL     1      -5.808  11.107  18.098  0.00  0.00    +0.000 A 
ATOM     17  C   UNL     1      -7.008  10.709  18.680  0.00  0.00    +0.000 A 
ATOM     18  C   UNL     1      -7.282  11.045  20.003  0.00  0.00    +0.000 A 
ATOM     19  C   UNL     1      -6.362  11.793  20.742  0.00  0.00    +0.000 A 
ENDBRANCH  12  14
BRANCH  12  20
ATOM     20  C   UNL     1      -4.875  14.272  21.647  0.00  0.00    +0.000 A 
ATOM     21  C   UNL     1      -5.418  15.348  20.927  0.00  0.00    +0.000 A 
ATOM     22  C   UNL     1      -6.116  16.368  21.586  0.00  0.00    +0.000 A 
ATOM     23  C   UNL     1      -6.282  16.329  22.970  0.00  0.00    +0.000 A 
ATOM     24  C   UNL     1      -5.745  15.279  23.703  0.00  0.00    +0.000 A 
ATOM     25  C   UNL     1      -5.051  14.261  23.046  0.00  0.00    +0.000 A 
ENDBRANCH  12  20
ENDBRANCH   7   9
BRANCH   1  27
ATOM     26  C   UNL     1       2.111  16.672  18.952  0.00  0.00    +0.000 C 
ATOM     27  N   UNL     1       1.351  15.434  18.864  0.00  0.00    +0.000 NA
ATOM     28  H   UNL     1       1.768  14.860  18.127  0.00  0.00    +0.000 HD
ENDBRANCH   1  27
BRANCH   5  29
ATOM     29  O   UNL     1       1.162   9.880  19.457  0.00  0.00    +0.000 OA
BRANCH  29  30
ATOM     30  C   UNL     1       1.226   8.911  20.510  0.00  0.00    +0.000 C 
BRANCH  30  31
ATOM     31  C   UNL     1       1.770   7.619  19.944  0.00  0.00    +0.000 A 
ATOM     32  C   UNL     1       2.401   7.596  18.691  0.00  0.00    +0.000 A 
ATOM     33  C   UNL     1       2.875   6.396  18.156  0.00  0.00    +0.000 A 
ATOM     34  C   UNL     1       2.721   5.205  18.862  0.00  0.00    +0.000 A 
ATOM     35  C   UNL     1       2.096   5.213  20.110  0.00  0.00    +0.000 A 
ATOM     36  C   UNL     1       1.627   6.414  20.648  0.00  0.00    +0.000 A 
ENDBRANCH  30  31
ENDBRANCH  29  30
ENDBRANCH   5  29
TORSDOF 7
ENDMDL
MODEL 9
REMARK VINA RESULT:      -7.0      3.433      6.528
REMARK  Name = 
REMARK  8 active torsions:
REMARK  status: ('A' for Active; 'I' for Inactive)
REMARK    1  A    between atoms: C_1  and  N_2
REMARK    2  A    between atoms: N_2  and  C_3
REMARK    3  A    between atoms: C_7  and  O_9
REMARK    4  A    between atoms: O_9  and  C_10
REMARK    5  A    between atoms: C_10  and  C_11
REMARK    6  A    between atoms: C_17  and  C_18
REMARK    7  A    between atoms: C_21  and  C_22
REMARK    8  A    between atoms: C_21  and  C_28
REMARK                            x       y       z     vdW  Elec       q    Type
REMARK                         _______ _______ _______ _____ _____    ______ ____
ROOT
ATOM      1  C   UNL     1      -4.655  10.401  17.437  0.00  0.00    +0.000 C 
ATOM      2  C   UNL     1      -5.681  11.022  18.394  0.00  0.00    +0.000 C 
ATOM      3  C   UNL     1      -5.272  12.438  18.765  0.00  0.00    +0.000 C 
ATOM      4  N   UNL     1      -3.964  12.443  19.422  0.00  0.00    +0.000 N 
ATOM      5  C   UNL     1      -3.791  13.175  20.589  0.00  0.00    +0.000 C 
ATOM      6  O   UNL     1      -2.719  13.557  21.030  0.00  0.00    +0.000 OA
ATOM      7  C   UNL     1      -2.850  11.856  18.624  0.00  0.00    +0.000 C 
ATOM      8  C   UNL     1      -3.265  10.453  18.104  0.00  0.00    +0.000 C 
ENDROOT
BRANCH   7   9
ATOM      9  C   UNL     1      -1.459  11.794  19.318  0.00  0.00    +0.000 C 
ATOM     10  C   UNL     1      -1.336  10.905  20.532  0.00  0.00    +0.000 C 
ATOM     11  O   UNL     1       0.074  10.850  20.745  0.00  0.00    +0.000 OA
ATOM     12  C   UNL     1       0.663  10.961  19.427  0.00  0.00    +0.000 C 
ATOM     13  O   UNL     1      -0.415  11.235  18.485  0.00  0.00    +0.000 OA
BRANCH  12  14
ATOM     14  C   UNL     1       1.652  12.135  19.423  0.00  0.00    +0.000 A 
ATOM     15  C   UNL     1       2.009  12.783  20.620  0.00  0.00    +0.000 A 
ATOM     16  C   UNL     1       2.871  13.881  20.616  0.00  0.00    +0.000 A 
ATOM     17  C   UNL     1       3.400  14.347  19.416  0.00  0.00    +0.000 A 
ATOM     18  C   UNL     1       3.083  13.705  18.222  0.00  0.00    +0.000 A 
ATOM     19  C   UNL     1       2.224  12.602  18.225  0.00  0.00    +0.000 A 
ENDBRANCH  12  14
BRANCH  12  20
ATOM     20  C   UNL     1       1.361   9.633  19.118  0.00  0.00    +0.000 A 
ATOM     21  C   UNL     1       1.953   9.378  17.871  0.00  0.00    +0.000 A 
ATOM     22  C   UNL     1       2.642   8.181  17.638  0.00  0.00    +0.000 A 
ATOM     23  C   UNL     1       2.751   7.223  18.646  0.00  0.00    +0.000 A 
ATOM     24  C   UNL     1       2.165   7.451  19.885  0.00  0.00    +0.000 A 
ATOM     25  C   UNL     1       1.480   8.645  20.117  0.00  0.00    +0.000 A 
ENDBRANCH  12  20
ENDBRANCH   7   9
BRANCH   1  27
ATOM     26  C   UNL     1      -3.699  10.745  15.207  0.00  0.00    +0.000 C 
ATOM     27  N   UNL     1      -4.760  11.091  16.141  0.00  0.00    +0.000 NA
ATOM     28  H   UNL     1      -5.653  10.840  15.711  0.00  0.00    +0.000 HD
ENDBRANCH   1  27
BRANCH   5  29
ATOM     29  O   UNL     1      -4.966  13.332  21.257  0.00  0.00    +0.000 OA
BRANCH  29  30
ATOM     30  C   UNL     1      -4.933  13.048  22.660  0.00  0.00    +0.000 C 
BRANCH  30  31
ATOM     31  C   UNL     1      -4.863  14.356  23.416  0.00  0.00    +0.000 A 
ATOM     32  C   UNL     1      -3.759  14.655  24.227  0.00  0.00    +0.000 A 
ATOM     33  C   UNL     1      -3.710  15.851  24.948  0.00  0.00    +0.000 A 
ATOM     34  C   UNL     1      -4.765  16.758  24.871  0.00  0.00    +0.000 A 
ATOM     35  C   UNL     1      -5.869  16.473  24.066  0.00  0.00    +0.000 A 
ATOM     36  C   UNL     1      -5.915  15.281  23.340  0.00  0.00    +0.000 A 
ENDBRANCH  30  31
ENDBRANCH  29  30
ENDBRANCH   5  29
TORSDOF 7
ENDMDL
