MODEL 1
REMARK VINA RESULT:      -6.7      0.000      0.000
REMARK  Name = 
REMARK  7 active torsions:
REMARK  status: ('A' for Active; 'I' for Inactive)
REMARK    1  A    between atoms: C_1  and  C_2
REMARK    2  A    between atoms: C_2  and  C_3
REMARK    3  A    between atoms: C_2  and  C_4
REMARK    4  A    between atoms: C_2  and  O_5
REMARK    5  A    between atoms: O_5  and  C_6
REMARK    6  A    between atoms: N_8  and  C_9
REMARK    7  A    between atoms: C_12  and  N_13
REMARK                            x       y       z     vdW  Elec       q    Type
REMARK                         _______ _______ _______ _____ _____    ______ ____
ROOT
ATOM      1  C   UNL     1       2.488   6.113  19.091  0.00  0.00    +0.000 C 
ATOM      2  C   UNL     1       2.860   6.952  17.871  0.00  0.00    +0.000 C 
ATOM      3  C   UNL     1       4.344   7.281  17.765  0.00  0.00    +0.000 C 
ATOM      4  C   UNL     1       5.311   6.115  18.016  0.00  0.00    +0.000 C 
ATOM      5  C   UNL     1       4.917   5.243  19.212  0.00  0.00    +0.000 C 
ATOM      6  C   UNL     1       3.432   4.920  19.323  0.00  0.00    +0.000 C 
ENDROOT
BRANCH   4   7
ATOM      7  N   UNL     1       5.629   5.333  16.813  0.00  0.00    +0.000 N 
ATOM      8  C   UNL     1       4.924   4.277  16.314  0.00  0.00    +0.000 C 
ATOM      9  O   UNL     1       3.890   3.794  16.748  0.00  0.00    +0.000 OA
ATOM     10  C   UNL     1       5.625   3.723  15.113  0.00  0.00    +0.000 C 
ATOM     11  C   UNL     1       6.841   4.603  14.942  0.00  0.00    +0.000 C 
ATOM     12  C   UNL     1       6.792   5.533  16.114  0.00  0.00    +0.000 C 
ATOM     13  O   UNL     1       7.674   6.340  16.369  0.00  0.00    +0.000 OA
ENDBRANCH   4   7
BRANCH   1  16
ATOM     14  C   UNL     1       1.754   8.179  20.170  0.00  0.00    +0.000 C 
ATOM     15  O   UNL     1       1.337   8.630  19.109  0.00  0.00    +0.000 OA
ATOM     16  N   UNL     1       2.332   6.946  20.283  0.00  0.00    +0.000 N 
ATOM     17  H   UNL     1       2.506   6.601  21.213  0.00  0.00    +0.000 HD
BRANCH  14  18
ATOM     18  O   UNL     1       1.631   8.782  21.378  0.00  0.00    +0.000 OA
BRANCH  18  20
ATOM     19  C   UNL     1      -0.722   8.214  21.406  0.00  0.00    +0.000 C 
ATOM     20  C   UNL     1       0.320   9.290  21.751  0.00  0.00    +0.000 C 
ATOM     21  C   UNL     1      -0.040  10.655  21.139  0.00  0.00    +0.000 C 
ATOM     22  C   UNL     1       0.343   9.472  23.278  0.00  0.00    +0.000 C 
ENDBRANCH  18  20
ENDBRANCH  14  18
ENDBRANCH   1  16
TORSDOF 4
ENDMDL
MODEL 2
REMARK VINA RESULT:      -6.7      3.292      4.740
REMARK  Name = 
REMARK  7 active torsions:
REMARK  status: ('A' for Active; 'I' for Inactive)
REMARK    1  A    between atoms: C_1  and  C_2
REMARK    2  A    between atoms: C_2  and  C_3
REMARK    3  A    between atoms: C_2  and  C_4
REMARK    4  A    between atoms: C_2  and  O_5
REMARK    5  A    between atoms: O_5  and  C_6
REMARK    6  A    between atoms: N_8  and  C_9
REMARK    7  A    between atoms: C_12  and  N_13
REMARK                            x       y       z     vdW  Elec       q    Type
REMARK                         _______ _______ _______ _____ _____    ______ ____
ROOT
ATOM      1  C   UNL     1       5.712   5.600  17.796  0.00  0.00    +0.000 C 
ATOM      2  C   UNL     1       6.140   4.198  17.373  0.00  0.00    +0.000 C 
ATOM      3  C   UNL     1       5.329   3.615  16.222  0.00  0.00    +0.000 C 
ATOM      4  C   UNL     1       5.075   4.556  15.035  0.00  0.00    +0.000 C 
ATOM      5  C   UNL     1       4.690   5.978  15.455  0.00  0.00    +0.000 C 
ATOM      6  C   UNL     1       5.496   6.557  16.611  0.00  0.00    +0.000 C 
ENDROOT
BRANCH   4   7
ATOM      7  N   UNL     1       6.129   4.523  14.010  0.00  0.00    +0.000 N 
ATOM      8  C   UNL     1       7.357   5.113  14.082  0.00  0.00    +0.000 C 
ATOM      9  O   UNL     1       7.826   5.757  15.007  0.00  0.00    +0.000 OA
ATOM     10  C   UNL     1       8.099   4.894  12.801  0.00  0.00    +0.000 C 
ATOM     11  C   UNL     1       7.158   4.070  11.952  0.00  0.00    +0.000 C 
ATOM     12  C   UNL     1       5.913   3.963  12.777  0.00  0.00    +0.000 C 
ATOM     13  O   UNL     1       4.884   3.441  12.376  0.00  0.00    +0.000 OA
ENDBRANCH   4   7
BRANCH   1  16
ATOM     14  C   UNL     1       4.463   4.543  19.610  0.00  0.00    +0.000 C 
ATOM     15  O   UNL     1       5.303   3.657  19.724  0.00  0.00    +0.000 OA
ATOM     16  N   UNL     1       4.564   5.557  18.701  0.00  0.00    +0.000 N 
ATOM     17  H   UNL     1       3.908   6.317  18.782  0.00  0.00    +0.000 HD
BRANCH  14  18
ATOM     18  O   UNL     1       3.376   4.697  20.406  0.00  0.00    +0.000 OA
BRANCH  18  20
ATOM     19  C   UNL     1       2.467   2.740  21.504  0.00  0.00    +0.000 C 
ATOM     20  C   UNL     1       2.321   3.699  20.312  0.00  0.00    +0.000 C 
ATOM     21  C   UNL     1       2.267   2.945  18.971  0.00  0.00    +0.000 C 
ATOM     22  C   UNL     1       0.992   4.457  20.457  0.00  0.00    +0.000 C 
ENDBRANCH  18  20
ENDBRANCH  14  18
ENDBRANCH   1  16
TORSDOF 4
ENDMDL
MODEL 3
REMARK VINA RESULT:      -6.6      0.897      1.118
REMARK  Name = 
REMARK  7 active torsions:
REMARK  status: ('A' for Active; 'I' for Inactive)
REMARK    1  A    between atoms: C_1  and  C_2
REMARK    2  A    between atoms: C_2  and  C_3
REMARK    3  A    between atoms: C_2  and  C_4
REMARK    4  A    between atoms: C_2  and  O_5
REMARK    5  A    between atoms: O_5  and  C_6
REMARK    6  A    between atoms: N_8  and  C_9
REMARK    7  A    between atoms: C_12  and  N_13
REMARK                            x       y       z     vdW  Elec       q    Type
REMARK                         _______ _______ _______ _____ _____    ______ ____
ROOT
ATOM      1  C   UNL     1       2.554   6.416  19.186  0.00  0.00    +0.000 C 
ATOM      2  C   UNL     1       2.629   6.889  17.737  0.00  0.00    +0.000 C 
ATOM      3  C   UNL     1       4.011   7.365  17.303  0.00  0.00    +0.000 C 
ATOM      4  C   UNL     1       5.189   6.470  17.712  0.00  0.00    +0.000 C 
ATOM      5  C   UNL     1       5.094   5.956  19.152  0.00  0.00    +0.000 C 
ATOM      6  C   UNL     1       3.712   5.487  19.588  0.00  0.00    +0.000 C 
ENDROOT
BRANCH   4   7
ATOM      7  N   UNL     1       5.499   5.410  16.741  0.00  0.00    +0.000 N 
ATOM      8  C   UNL     1       4.776   4.277  16.509  0.00  0.00    +0.000 C 
ATOM      9  O   UNL     1       3.730   3.935  17.036  0.00  0.00    +0.000 OA
ATOM     10  C   UNL     1       5.473   3.432  15.489  0.00  0.00    +0.000 C 
ATOM     11  C   UNL     1       6.708   4.221  15.120  0.00  0.00    +0.000 C 
ATOM     12  C   UNL     1       6.670   5.412  16.028  0.00  0.00    +0.000 C 
ATOM     13  O   UNL     1       7.567   6.240  16.087  0.00  0.00    +0.000 OA
ENDBRANCH   4   7
BRANCH   1  16
ATOM     14  C   UNL     1       1.351   7.541  20.991  0.00  0.00    +0.000 C 
ATOM     15  O   UNL     1       0.539   6.628  21.072  0.00  0.00    +0.000 OA
ATOM     16  N   UNL     1       2.392   7.542  20.106  0.00  0.00    +0.000 N 
ATOM     17  H   UNL     1       3.091   8.259  20.214  0.00  0.00    +0.000 HD
BRANCH  14  18
ATOM     18  O   UNL     1       1.393   8.625  21.805  0.00  0.00    +0.000 OA
BRANCH  18  20
ATOM     19  C   UNL     1      -0.457   9.743  22.893  0.00  0.00    +0.000 C 
ATOM     20  C   UNL     1       0.385   9.657  21.612  0.00  0.00    +0.000 C 
ATOM     21  C   UNL     1      -0.491   9.474  20.359  0.00  0.00    +0.000 C 
ATOM     22  C   UNL     1       1.147  10.981  21.440  0.00  0.00    +0.000 C 
ENDBRANCH  18  20
ENDBRANCH  14  18
ENDBRANCH   1  16
TORSDOF 4
ENDMDL
MODEL 4
REMARK VINA RESULT:      -6.6      3.286      8.009
REMARK  Name = 
REMARK  7 active torsions:
REMARK  status: ('A' for Active; 'I' for Inactive)
REMARK    1  A    between atoms: C_1  and  C_2
REMARK    2  A    between atoms: C_2  and  C_3
REMARK    3  A    between atoms: C_2  and  C_4
REMARK    4  A    between atoms: C_2  and  O_5
REMARK    5  A    between atoms: O_5  and  C_6
REMARK    6  A    between atoms: N_8  and  C_9
REMARK    7  A    between atoms: C_12  and  N_13
REMARK                            x       y       z     vdW  Elec       q    Type
REMARK                         _______ _______ _______ _____ _____    ______ ____
ROOT
ATOM      1  C   UNL     1       4.417   4.414  16.342  0.00  0.00    +0.000 C 
ATOM      2  C   UNL     1       3.102   3.663  16.527  0.00  0.00    +0.000 C 
ATOM      3  C   UNL     1       3.180   2.489  17.496  0.00  0.00    +0.000 C 
ATOM      4  C   UNL     1       3.918   2.756  18.816  0.00  0.00    +0.000 C 
ATOM      5  C   UNL     1       5.216   3.550  18.640  0.00  0.00    +0.000 C 
ATOM      6  C   UNL     1       5.139   4.719  17.666  0.00  0.00    +0.000 C 
ENDROOT
BRANCH   4   7
ATOM      7  N   UNL     1       3.058   3.287  19.884  0.00  0.00    +0.000 N 
ATOM      8  C   UNL     1       2.253   4.387  19.815  0.00  0.00    +0.000 C 
ATOM      9  O   UNL     1       2.073   5.124  18.859  0.00  0.00    +0.000 OA
ATOM     10  C   UNL     1       1.599   4.619  21.141  0.00  0.00    +0.000 C 
ATOM     11  C   UNL     1       2.102   3.495  22.016  0.00  0.00    +0.000 C 
ATOM     12  C   UNL     1       3.079   2.761  21.150  0.00  0.00    +0.000 C 
ATOM     13  O   UNL     1       3.768   1.834  21.551  0.00  0.00    +0.000 OA
ENDBRANCH   4   7
BRANCH   1  16
ATOM     14  C   UNL     1       6.023   4.494  14.503  0.00  0.00    +0.000 C 
ATOM     15  O   UNL     1       6.018   5.719  14.500  0.00  0.00    +0.000 OA
ATOM     16  N   UNL     1       5.282   3.744  15.371  0.00  0.00    +0.000 N 
ATOM     17  H   UNL     1       5.464   2.754  15.400  0.00  0.00    +0.000 HD
BRANCH  14  18
ATOM     18  O   UNL     1       6.811   3.713  13.723  0.00  0.00    +0.000 OA
BRANCH  18  20
ATOM     19  C   UNL     1       7.219   4.776  11.587  0.00  0.00    +0.000 C 
ATOM     20  C   UNL     1       6.491   3.630  12.306  0.00  0.00    +0.000 C 
ATOM     21  C   UNL     1       4.986   3.615  11.986  0.00  0.00    +0.000 C 
ATOM     22  C   UNL     1       7.073   2.297  11.806  0.00  0.00    +0.000 C 
ENDBRANCH  18  20
ENDBRANCH  14  18
ENDBRANCH   1  16
TORSDOF 4
ENDMDL
MODEL 5
REMARK VINA RESULT:      -6.6      3.180      4.539
REMARK  Name = 
REMARK  7 active torsions:
REMARK  status: ('A' for Active; 'I' for Inactive)
REMARK    1  A    between atoms: C_1  and  C_2
REMARK    2  A    between atoms: C_2  and  C_3
REMARK    3  A    between atoms: C_2  and  C_4
REMARK    4  A    between atoms: C_2  and  O_5
REMARK    5  A    between atoms: O_5  and  C_6
REMARK    6  A    between atoms: N_8  and  C_9
REMARK    7  A    between atoms: C_12  and  N_13
REMARK                            x       y       z     vdW  Elec       q    Type
REMARK                         _______ _______ _______ _____ _____    ______ ____
ROOT
ATOM      1  C   UNL     1       5.694   5.703  17.645  0.00  0.00    +0.000 C 
ATOM      2  C   UNL     1       6.908   4.818  17.375  0.00  0.00    +0.000 C 
ATOM      3  C   UNL     1       6.621   3.614  16.485  0.00  0.00    +0.000 C 
ATOM      4  C   UNL     1       5.781   3.891  15.230  0.00  0.00    +0.000 C 
ATOM      5  C   UNL     1       4.588   4.816  15.487  0.00  0.00    +0.000 C 
ATOM      6  C   UNL     1       4.872   6.015  16.383  0.00  0.00    +0.000 C 
ENDROOT
BRANCH   4   7
ATOM      7  N   UNL     1       6.573   4.285  14.056  0.00  0.00    +0.000 N 
ATOM      8  C   UNL     1       7.515   5.271  13.999  0.00  0.00    +0.000 C 
ATOM      9  O   UNL     1       7.898   5.995  14.903  0.00  0.00    +0.000 OA
ATOM     10  C   UNL     1       8.037   5.392  12.601  0.00  0.00    +0.000 C 
ATOM     11  C   UNL     1       7.296   4.328  11.825  0.00  0.00    +0.000 C 
ATOM     12  C   UNL     1       6.339   3.744  12.818  0.00  0.00    +0.000 C 
ATOM     13  O   UNL     1       5.495   2.909  12.528  0.00  0.00    +0.000 OA
ENDBRANCH   4   7
BRANCH   1  16
ATOM     14  C   UNL     1       3.741   5.829  19.107  0.00  0.00    +0.000 C 
ATOM     15  O   UNL     1       3.354   6.858  18.567  0.00  0.00    +0.000 OA
ATOM     16  N   UNL     1       4.874   5.166  18.731  0.00  0.00    +0.000 N 
ATOM     17  H   UNL     1       5.030   4.254  19.129  0.00  0.00    +0.000 HD
BRANCH  14  18
ATOM     18  O   UNL     1       3.074   5.158  20.079  0.00  0.00    +0.000 OA
BRANCH  18  20
ATOM     19  C   UNL     1       3.100   2.742  19.931  0.00  0.00    +0.000 C 
ATOM     20  C   UNL     1       2.271   4.011  19.682  0.00  0.00    +0.000 C 
ATOM     21  C   UNL     1       1.732   4.072  18.241  0.00  0.00    +0.000 C 
ATOM     22  C   UNL     1       1.052   3.989  20.619  0.00  0.00    +0.000 C 
ENDBRANCH  18  20
ENDBRANCH  14  18
ENDBRANCH   1  16
TORSDOF 4
ENDMDL
MODEL 6
REMARK VINA RESULT:      -6.4      3.356      7.401
REMARK  Name = 
REMARK  7 active torsions:
REMARK  status: ('A' for Active; 'I' for Inactive)
REMARK    1  A    between atoms: C_1  and  C_2
REMARK    2  A    between atoms: C_2  and  C_3
REMARK    3  A    between atoms: C_2  and  C_4
REMARK    4  A    between atoms: C_2  and  O_5
REMARK    5  A    between atoms: O_5  and  C_6
REMARK    6  A    between atoms: N_8  and  C_9
REMARK    7  A    between atoms: C_12  and  N_13
REMARK                            x       y       z     vdW  Elec       q    Type
REMARK                         _______ _______ _______ _____ _____    ______ ____
ROOT
ATOM      1  C   UNL     1       1.981   8.258  19.780  0.00  0.00    +0.000 C 
ATOM      2  C   UNL     1       1.856   8.740  18.337  0.00  0.00    +0.000 C 
ATOM      3  C   UNL     1       0.457   9.201  17.948  0.00  0.00    +0.000 C 
ATOM      4  C   UNL     1      -0.254  10.116  18.957  0.00  0.00    +0.000 C 
ATOM      5  C   UNL     1      -0.093   9.662  20.410  0.00  0.00    +0.000 C 
ATOM      6  C   UNL     1       1.304   9.193  20.797  0.00  0.00    +0.000 C 
ENDROOT
BRANCH   4   7
ATOM      7  N   UNL     1       0.026  11.547  18.766  0.00  0.00    +0.000 N 
ATOM      8  C   UNL     1       1.251  12.127  18.611  0.00  0.00    +0.000 C 
ATOM      9  O   UNL     1       2.341  11.578  18.576  0.00  0.00    +0.000 OA
ATOM     10  C   UNL     1       1.099  13.612  18.511  0.00  0.00    +0.000 C 
ATOM     11  C   UNL     1      -0.390  13.850  18.607  0.00  0.00    +0.000 C 
ATOM     12  C   UNL     1      -0.967  12.489  18.848  0.00  0.00    +0.000 C 
ATOM     13  O   UNL     1      -2.152  12.291  19.074  0.00  0.00    +0.000 OA
ENDBRANCH   4   7
BRANCH   1  16
ATOM     14  C   UNL     1       2.467   5.864  19.830  0.00  0.00    +0.000 C 
ATOM     15  O   UNL     1       3.663   6.064  19.655  0.00  0.00    +0.000 OA
ATOM     16  N   UNL     1       1.545   6.869  19.917  0.00  0.00    +0.000 N 
ATOM     17  H   UNL     1       0.615   6.618  20.210  0.00  0.00    +0.000 HD
BRANCH  14  18
ATOM     18  O   UNL     1       1.900   4.651  20.044  0.00  0.00    +0.000 OA
BRANCH  18  20
ATOM     19  C   UNL     1       3.176   2.905  18.957  0.00  0.00    +0.000 C 
ATOM     20  C   UNL     1       1.869   3.712  18.933  0.00  0.00    +0.000 C 
ATOM     21  C   UNL     1       1.614   4.352  17.557  0.00  0.00    +0.000 C 
ATOM     22  C   UNL     1       0.700   2.752  19.208  0.00  0.00    +0.000 C 
ENDBRANCH  18  20
ENDBRANCH  14  18
ENDBRANCH   1  16
TORSDOF 4
ENDMDL
MODEL 7
REMARK VINA RESULT:      -6.4      3.239      8.080
REMARK  Name = 
REMARK  7 active torsions:
REMARK  status: ('A' for Active; 'I' for Inactive)
REMARK    1  A    between atoms: C_1  and  C_2
REMARK    2  A    between atoms: C_2  and  C_3
REMARK    3  A    between atoms: C_2  and  C_4
REMARK    4  A    between atoms: C_2  and  O_5
REMARK    5  A    between atoms: O_5  and  C_6
REMARK    6  A    between atoms: N_8  and  C_9
REMARK    7  A    between atoms: C_12  and  N_13
REMARK                            x       y       z     vdW  Elec       q    Type
REMARK                         _______ _______ _______ _____ _____    ______ ____
ROOT
ATOM      1  C   UNL     1       5.330   4.547  16.662  0.00  0.00    +0.000 C 
ATOM      2  C   UNL     1       3.821   4.682  16.482  0.00  0.00    +0.000 C 
ATOM      3  C   UNL     1       3.022   3.472  16.953  0.00  0.00    +0.000 C 
ATOM      4  C   UNL     1       3.421   2.894  18.318  0.00  0.00    +0.000 C 
ATOM      5  C   UNL     1       4.936   2.799  18.522  0.00  0.00    +0.000 C 
ATOM      6  C   UNL     1       5.735   4.005  18.044  0.00  0.00    +0.000 C 
ENDROOT
BRANCH   4   7
ATOM      7  N   UNL     1       2.724   3.513  19.455  0.00  0.00    +0.000 N 
ATOM      8  C   UNL     1       3.001   4.722  20.024  0.00  0.00    +0.000 C 
ATOM      9  O   UNL     1       3.854   5.528  19.691  0.00  0.00    +0.000 OA
ATOM     10  C   UNL     1       2.100   4.947  21.198  0.00  0.00    +0.000 C 
ATOM     11  C   UNL     1       1.225   3.716  21.249  0.00  0.00    +0.000 C 
ATOM     12  C   UNL     1       1.757   2.839  20.157  0.00  0.00    +0.000 C 
ATOM     13  O   UNL     1       1.357   1.703  19.952  0.00  0.00    +0.000 OA
ENDBRANCH   4   7
BRANCH   1  16
ATOM     14  C   UNL     1       6.477   4.464  14.506  0.00  0.00    +0.000 C 
ATOM     15  O   UNL     1       6.505   5.687  14.430  0.00  0.00    +0.000 OA
ATOM     16  N   UNL     1       5.933   3.792  15.564  0.00  0.00    +0.000 N 
ATOM     17  H   UNL     1       6.089   2.798  15.610  0.00  0.00    +0.000 HD
BRANCH  14  18
ATOM     18  O   UNL     1       7.045   3.612  13.617  0.00  0.00    +0.000 OA
BRANCH  18  20
ATOM     19  C   UNL     1       7.186   4.759  11.491  0.00  0.00    +0.000 C 
ATOM     20  C   UNL     1       6.524   3.604  12.259  0.00  0.00    +0.000 C 
ATOM     21  C   UNL     1       4.989   3.652  12.158  0.00  0.00    +0.000 C 
ATOM     22  C   UNL     1       6.977   2.278  11.627  0.00  0.00    +0.000 C 
ENDBRANCH  18  20
ENDBRANCH  14  18
ENDBRANCH   1  16
TORSDOF 4
ENDMDL
MODEL 8
REMARK VINA RESULT:      -6.4      3.466      8.294
REMARK  Name = 
REMARK  7 active torsions:
REMARK  status: ('A' for Active; 'I' for Inactive)
REMARK    1  A    between atoms: C_1  and  C_2
REMARK    2  A    between atoms: C_2  and  C_3
REMARK    3  A    between atoms: C_2  and  C_4
REMARK    4  A    between atoms: C_2  and  O_5
REMARK    5  A    between atoms: O_5  and  C_6
REMARK    6  A    between atoms: N_8  and  C_9
REMARK    7  A    between atoms: C_12  and  N_13
REMARK                            x       y       z     vdW  Elec       q    Type
REMARK                         _______ _______ _______ _____ _____    ______ ____
ROOT
ATOM      1  C   UNL     1       1.629   8.482  20.912  0.00  0.00    +0.000 C 
ATOM      2  C   UNL     1       0.794   9.263  19.901  0.00  0.00    +0.000 C 
ATOM      3  C   UNL     1      -0.597   9.642  20.396  0.00  0.00    +0.000 C 
ATOM      4  C   UNL     1      -0.670  10.218  21.818  0.00  0.00    +0.000 C 
ATOM      5  C   UNL     1       0.203   9.465  22.827  0.00  0.00    +0.000 C 
ATOM      6  C   UNL     1       1.590   9.080  22.329  0.00  0.00    +0.000 C 
ENDROOT
BRANCH   4   7
ATOM      7  N   UNL     1      -0.497  11.677  21.881  0.00  0.00    +0.000 N 
ATOM      8  C   UNL     1       0.510  12.405  21.319  0.00  0.00    +0.000 C 
ATOM      9  O   UNL     1       1.440  12.000  20.641  0.00  0.00    +0.000 OA
ATOM     10  C   UNL     1       0.350  13.850  21.677  0.00  0.00    +0.000 C 
ATOM     11  C   UNL     1      -0.905  13.897  22.517  0.00  0.00    +0.000 C 
ATOM     12  C   UNL     1      -1.314  12.463  22.653  0.00  0.00    +0.000 C 
ATOM     13  O   UNL     1      -2.245  12.093  23.352  0.00  0.00    +0.000 OA
ENDBRANCH   4   7
BRANCH   1  16
ATOM     14  C   UNL     1       2.101   6.189  20.213  0.00  0.00    +0.000 C 
ATOM     15  O   UNL     1       3.115   6.538  19.620  0.00  0.00    +0.000 OA
ATOM     16  N   UNL     1       1.296   7.058  20.892  0.00  0.00    +0.000 N 
ATOM     17  H   UNL     1       0.573   6.662  21.471  0.00  0.00    +0.000 HD
BRANCH  14  18
ATOM     18  O   UNL     1       1.679   4.908  20.355  0.00  0.00    +0.000 OA
BRANCH  18  20
ATOM     19  C   UNL     1       3.259   3.374  19.351  0.00  0.00    +0.000 C 
ATOM     20  C   UNL     1       1.864   4.005  19.229  0.00  0.00    +0.000 C 
ATOM     21  C   UNL     1       1.642   4.646  17.847  0.00  0.00    +0.000 C 
ATOM     22  C   UNL     1       0.812   2.895  19.386  0.00  0.00    +0.000 C 
ENDBRANCH  18  20
ENDBRANCH  14  18
ENDBRANCH   1  16
TORSDOF 4
ENDMDL
MODEL 9
REMARK VINA RESULT:      -6.3      1.769      7.330
REMARK  Name = 
REMARK  7 active torsions:
REMARK  status: ('A' for Active; 'I' for Inactive)
REMARK    1  A    between atoms: C_1  and  C_2
REMARK    2  A    between atoms: C_2  and  C_3
REMARK    3  A    between atoms: C_2  and  C_4
REMARK    4  A    between atoms: C_2  and  O_5
REMARK    5  A    between atoms: O_5  and  C_6
REMARK    6  A    between atoms: N_8  and  C_9
REMARK    7  A    between atoms: C_12  and  N_13
REMARK                            x       y       z     vdW  Elec       q    Type
REMARK                         _______ _______ _______ _____ _____    ______ ____
ROOT
ATOM      1  C   UNL     1       4.984   4.567  18.093  0.00  0.00    +0.000 C 
ATOM      2  C   UNL     1       5.242   6.069  18.178  0.00  0.00    +0.000 C 
ATOM      3  C   UNL     1       4.159   6.929  17.537  0.00  0.00    +0.000 C 
ATOM      4  C   UNL     1       2.710   6.542  17.869  0.00  0.00    +0.000 C 
ATOM      5  C   UNL     1       2.458   5.032  17.829  0.00  0.00    +0.000 C 
ATOM      6  C   UNL     1       3.544   4.172  18.463  0.00  0.00    +0.000 C 
ENDROOT
BRANCH   4   7
ATOM      7  N   UNL     1       2.184   7.183  19.083  0.00  0.00    +0.000 N 
ATOM      8  C   UNL     1       2.019   6.604  20.307  0.00  0.00    +0.000 C 
ATOM      9  O   UNL     1       2.294   5.462  20.639  0.00  0.00    +0.000 OA
ATOM     10  C   UNL     1       1.393   7.583  21.250  0.00  0.00    +0.000 C 
ATOM     11  C   UNL     1       1.221   8.843  20.432  0.00  0.00    +0.000 C 
ATOM     12  C   UNL     1       1.675   8.456  19.059  0.00  0.00    +0.000 C 
ATOM     13  O   UNL     1       1.593   9.198  18.090  0.00  0.00    +0.000 OA
ENDBRANCH   4   7
BRANCH   1  16
ATOM     14  C   UNL     1       6.658   4.288  16.336  0.00  0.00    +0.000 C 
ATOM     15  O   UNL     1       7.480   4.948  16.961  0.00  0.00    +0.000 OA
ATOM     16  N   UNL     1       5.400   4.027  16.799  0.00  0.00    +0.000 N 
ATOM     17  H   UNL     1       4.850   3.356  16.288  0.00  0.00    +0.000 HD
BRANCH  14  18
ATOM     18  O   UNL     1       6.893   3.659  15.158  0.00  0.00    +0.000 OA
BRANCH  18  20
ATOM     19  C   UNL     1       5.486   5.435  14.308  0.00  0.00    +0.000 C 
ATOM     20  C   UNL     1       6.497   4.340  13.935  0.00  0.00    +0.000 C 
ATOM     21  C   UNL     1       5.960   3.415  12.828  0.00  0.00    +0.000 C 
ATOM     22  C   UNL     1       7.763   5.016  13.383  0.00  0.00    +0.000 C 
ENDBRANCH  18  20
ENDBRANCH  14  18
ENDBRANCH   1  16
TORSDOF 4
ENDMDL
