MODEL 1
REMARK VINA RESULT:      -8.3      0.000      0.000
REMARK  Name = 
REMARK  7 active torsions:
REMARK  status: ('A' for Active; 'I' for Inactive)
REMARK    1  A    between atoms: C_1  and  C_2
REMARK    2  A    between atoms: C_2  and  C_3
REMARK    3  A    between atoms: C_3  and  C_4
REMARK    4  A    between atoms: C_8  and  C_9
REMARK    5  A    between atoms: C_13  and  N_14
REMARK    6  A    between atoms: C_15  and  C_17
REMARK    7  A    between atoms: C_20  and  C_21
REMARK                            x       y       z     vdW  Elec       q    Type
REMARK                         _______ _______ _______ _____ _____    ______ ____
ROOT
ATOM      1  N   UNL     1       0.740   9.360  19.011  0.00  0.00    +0.000 N 
ATOM      2  C   UNL     1       1.818   8.818  18.354  0.00  0.00    +0.000 C 
ATOM      3  O   UNL     1       2.438   9.410  17.474  0.00  0.00    +0.000 OA
ATOM      4  H   UNL     1       0.211   8.778  19.658  0.00  0.00    +0.000 HD
ENDROOT
BRANCH   1  14
ATOM      5  C   UNL     1       0.251  11.701  19.896  0.00  0.00    +0.000 C 
ATOM      6  C   UNL     1      -1.148  12.357  19.969  0.00  0.00    +0.000 C 
ATOM      7  C   UNL     1      -1.962  11.602  18.981  0.00  0.00    +0.000 A 
ATOM      8  C   UNL     1      -3.318  11.792  18.749  0.00  0.00    +0.000 A 
ATOM      9  C   UNL     1      -3.947  11.053  17.748  0.00  0.00    +0.000 A 
ATOM     10  C   UNL     1      -5.409  11.246  17.478  0.00  0.00    +0.000 C 
ATOM     11  C   UNL     1      -3.184  10.140  16.992  0.00  0.00    +0.000 A 
ATOM     12  C   UNL     1      -1.816   9.947  17.250  0.00  0.00    +0.000 A 
ATOM     13  C   UNL     1      -1.211  10.674  18.268  0.00  0.00    +0.000 A 
ATOM     14  C   UNL     1       0.233  10.683  18.700  0.00  0.00    +0.000 C 
BRANCH   5  15
ATOM     15  C   UNL     1       0.653  11.152  21.279  0.00  0.00    +0.000 C 
BRANCH  15  17
ATOM     16  C   UNL     1      -0.550   9.879  23.090  0.00  0.00    +0.000 C 
ATOM     17  C   UNL     1      -0.516  11.159  22.274  0.00  0.00    +0.000 C 
ENDBRANCH  15  17
ENDBRANCH   5  15
ENDBRANCH   1  14
BRANCH   2  18
ATOM     18  C   UNL     1       2.243   7.466  18.811  0.00  0.00    +0.000 A 
ATOM     19  C   UNL     1       2.857   6.647  17.933  0.00  0.00    +0.000 A 
ATOM     20  C   UNL     1       3.253   5.302  18.295  0.00  0.00    +0.000 A 
ATOM     21  C   UNL     1       3.000   4.826  19.527  0.00  0.00    +0.000 A 
ATOM     22  N   UNL     1       2.391   5.667  20.447  0.00  0.00    +0.000 N 
ATOM     23  C   UNL     1       2.017   6.962  20.194  0.00  0.00    +0.000 A 
ATOM     24  O   UNL     1       1.525   7.665  21.076  0.00  0.00    +0.000 OA
ATOM     25  H   UNL     1       2.208   5.328  21.388  0.00  0.00    +0.000 HD
BRANCH  21  26
ATOM     26  C   UNL     1       3.342   3.417  19.959  0.00  0.00    +0.000 C 
ATOM     27  F   UNL     1       2.712   2.494  19.186  0.00  0.00    +0.000 F 
ATOM     28  F   UNL     1       4.672   3.169  19.864  0.00  0.00    +0.000 F 
ATOM     29  F   UNL     1       2.978   3.175  21.242  0.00  0.00    +0.000 F 
ENDBRANCH  21  26
ENDBRANCH   2  18
TORSDOF 5
ENDMDL
MODEL 2
REMARK VINA RESULT:      -7.7      4.384      8.627
REMARK  Name = 
REMARK  7 active torsions:
REMARK  status: ('A' for Active; 'I' for Inactive)
REMARK    1  A    between atoms: C_1  and  C_2
REMARK    2  A    between atoms: C_2  and  C_3
REMARK    3  A    between atoms: C_3  and  C_4
REMARK    4  A    between atoms: C_8  and  C_9
REMARK    5  A    between atoms: C_13  and  N_14
REMARK    6  A    between atoms: C_15  and  C_17
REMARK    7  A    between atoms: C_20  and  C_21
REMARK                            x       y       z     vdW  Elec       q    Type
REMARK                         _______ _______ _______ _____ _____    ______ ____
ROOT
ATOM      1  N   UNL     1       4.454   5.846  18.355  0.00  0.00    +0.000 N 
ATOM      2  C   UNL     1       3.223   5.684  18.944  0.00  0.00    +0.000 C 
ATOM      3  O   UNL     1       2.755   4.586  19.235  0.00  0.00    +0.000 OA
ATOM      4  H   UNL     1       4.738   6.774  18.050  0.00  0.00    +0.000 HD
ENDROOT
BRANCH   1  14
ATOM      5  C   UNL     1       6.761   4.784  18.576  0.00  0.00    +0.000 C 
ATOM      6  C   UNL     1       7.727   4.486  17.405  0.00  0.00    +0.000 C 
ATOM      7  C   UNL     1       6.850   4.444  16.205  0.00  0.00    +0.000 A 
ATOM      8  C   UNL     1       7.289   4.275  14.899  0.00  0.00    +0.000 A 
ATOM      9  C   UNL     1       6.350   4.195  13.871  0.00  0.00    +0.000 A 
ATOM     10  C   UNL     1       6.803   4.009  12.454  0.00  0.00    +0.000 C 
ATOM     11  C   UNL     1       4.980   4.277  14.191  0.00  0.00    +0.000 A 
ATOM     12  C   UNL     1       4.552   4.465  15.516  0.00  0.00    +0.000 A 
ATOM     13  C   UNL     1       5.502   4.567  16.525  0.00  0.00    +0.000 A 
ATOM     14  C   UNL     1       5.297   4.718  18.011  0.00  0.00    +0.000 C 
BRANCH   5  15
ATOM     15  C   UNL     1       7.180   6.084  19.292  0.00  0.00    +0.000 C 
BRANCH  15  17
ATOM     16  C   UNL     1       7.354   7.935  17.592  0.00  0.00    +0.000 C 
ATOM     17  C   UNL     1       8.127   6.941  18.441  0.00  0.00    +0.000 C 
ENDBRANCH  15  17
ENDBRANCH   5  15
ENDBRANCH   1  14
BRANCH   2  18
ATOM     18  C   UNL     1       2.491   6.939  19.272  0.00  0.00    +0.000 A 
ATOM     19  C   UNL     1       1.923   7.059  20.489  0.00  0.00    +0.000 A 
ATOM     20  C   UNL     1       1.155   8.231  20.858  0.00  0.00    +0.000 A 
ATOM     21  C   UNL     1       0.974   9.231  19.979  0.00  0.00    +0.000 A 
ATOM     22  N   UNL     1       1.574   9.130  18.732  0.00  0.00    +0.000 N 
ATOM     23  C   UNL     1       2.343   8.072  18.318  0.00  0.00    +0.000 A 
ATOM     24  O   UNL     1       2.884   8.075  17.213  0.00  0.00    +0.000 OA
ATOM     25  H   UNL     1       1.460   9.886  18.061  0.00  0.00    +0.000 HD
BRANCH  21  26
ATOM     26  C   UNL     1       0.145  10.460  20.279  0.00  0.00    +0.000 C 
ATOM     27  F   UNL     1      -1.058  10.414  19.649  0.00  0.00    +0.000 F 
ATOM     28  F   UNL     1      -0.108  10.585  21.606  0.00  0.00    +0.000 F 
ATOM     29  F   UNL     1       0.760  11.599  19.877  0.00  0.00    +0.000 F 
ENDBRANCH  21  26
ENDBRANCH   2  18
TORSDOF 5
ENDMDL
MODEL 3
REMARK VINA RESULT:      -7.7      4.486      8.612
REMARK  Name = 
REMARK  7 active torsions:
REMARK  status: ('A' for Active; 'I' for Inactive)
REMARK    1  A    between atoms: C_1  and  C_2
REMARK    2  A    between atoms: C_2  and  C_3
REMARK    3  A    between atoms: C_3  and  C_4
REMARK    4  A    between atoms: C_8  and  C_9
REMARK    5  A    between atoms: C_13  and  N_14
REMARK    6  A    between atoms: C_15  and  C_17
REMARK    7  A    between atoms: C_20  and  C_21
REMARK                            x       y       z     vdW  Elec       q    Type
REMARK                         _______ _______ _______ _____ _____    ______ ____
ROOT
ATOM      1  N   UNL     1       4.478   5.919  18.240  0.00  0.00    +0.000 N 
ATOM      2  C   UNL     1       3.108   5.839  18.316  0.00  0.00    +0.000 C 
ATOM      3  O   UNL     1       2.483   4.797  18.129  0.00  0.00    +0.000 OA
ATOM      4  H   UNL     1       4.924   6.831  18.306  0.00  0.00    +0.000 HD
ENDROOT
BRANCH   1  14
ATOM      5  C   UNL     1       6.749   4.794  18.518  0.00  0.00    +0.000 C 
ATOM      6  C   UNL     1       7.738   4.476  17.372  0.00  0.00    +0.000 C 
ATOM      7  C   UNL     1       6.894   4.463  16.149  0.00  0.00    +0.000 A 
ATOM      8  C   UNL     1       7.363   4.289  14.854  0.00  0.00    +0.000 A 
ATOM      9  C   UNL     1       6.451   4.239  13.801  0.00  0.00    +0.000 A 
ATOM     10  C   UNL     1       6.937   4.047  12.395  0.00  0.00    +0.000 C 
ATOM     11  C   UNL     1       5.075   4.356  14.083  0.00  0.00    +0.000 A 
ATOM     12  C   UNL     1       4.616   4.549  15.397  0.00  0.00    +0.000 A 
ATOM     13  C   UNL     1       5.541   4.621  16.432  0.00  0.00    +0.000 A 
ATOM     14  C   UNL     1       5.300   4.770  17.913  0.00  0.00    +0.000 C 
BRANCH   5  15
ATOM     15  C   UNL     1       7.183   6.079  19.252  0.00  0.00    +0.000 C 
BRANCH  15  17
ATOM     16  C   UNL     1       7.428   7.950  17.582  0.00  0.00    +0.000 C 
ATOM     17  C   UNL     1       8.163   6.923  18.425  0.00  0.00    +0.000 C 
ENDBRANCH  15  17
ENDBRANCH   5  15
ENDBRANCH   1  14
BRANCH   2  18
ATOM     18  C   UNL     1       2.405   7.094  18.700  0.00  0.00    +0.000 A 
ATOM     19  C   UNL     1       2.312   8.088  17.794  0.00  0.00    +0.000 A 
ATOM     20  C   UNL     1       1.685   9.355  18.115  0.00  0.00    +0.000 A 
ATOM     21  C   UNL     1       1.191   9.577  19.345  0.00  0.00    +0.000 A 
ATOM     22  N   UNL     1       1.260   8.554  20.278  0.00  0.00    +0.000 N 
ATOM     23  C   UNL     1       1.805   7.316  20.043  0.00  0.00    +0.000 A 
ATOM     24  O   UNL     1       1.786   6.440  20.907  0.00  0.00    +0.000 OA
ATOM     25  H   UNL     1       0.876   8.700  21.208  0.00  0.00    +0.000 HD
BRANCH  21  26
ATOM     26  C   UNL     1       0.569  10.890  19.764  0.00  0.00    +0.000 C 
ATOM     27  F   UNL     1       0.312  11.683  18.691  0.00  0.00    +0.000 F 
ATOM     28  F   UNL     1      -0.609  10.706  20.411  0.00  0.00    +0.000 F 
ATOM     29  F   UNL     1       1.378  11.595  20.593  0.00  0.00    +0.000 F 
ENDBRANCH  21  26
ENDBRANCH   2  18
TORSDOF 5
ENDMDL
MODEL 4
REMARK VINA RESULT:      -7.7      1.102      1.477
REMARK  Name = 
REMARK  7 active torsions:
REMARK  status: ('A' for Active; 'I' for Inactive)
REMARK    1  A    between atoms: C_1  and  C_2
REMARK    2  A    between atoms: C_2  and  C_3
REMARK    3  A    between atoms: C_3  and  C_4
REMARK    4  A    between atoms: C_8  and  C_9
REMARK    5  A    between atoms: C_13  and  N_14
REMARK    6  A    between atoms: C_15  and  C_17
REMARK    7  A    between atoms: C_20  and  C_21
REMARK                            x       y       z     vdW  Elec       q    Type
REMARK                         _______ _______ _______ _____ _____    ______ ____
ROOT
ATOM      1  N   UNL     1       1.123   8.883  19.119  0.00  0.00    +0.000 N 
ATOM      2  C   UNL     1       2.150   8.255  18.457  0.00  0.00    +0.000 C 
ATOM      3  O   UNL     1       2.833   8.806  17.597  0.00  0.00    +0.000 OA
ATOM      4  H   UNL     1       0.534   8.340  19.747  0.00  0.00    +0.000 HD
ENDROOT
BRANCH   1  14
ATOM      5  C   UNL     1       0.786  11.224  20.071  0.00  0.00    +0.000 C 
ATOM      6  C   UNL     1      -0.554  11.997  20.099  0.00  0.00    +0.000 C 
ATOM      7  C   UNL     1      -1.374  11.351  19.041  0.00  0.00    +0.000 A 
ATOM      8  C   UNL     1      -2.694  11.666  18.747  0.00  0.00    +0.000 A 
ATOM      9  C   UNL     1      -3.327  11.020  17.685  0.00  0.00    +0.000 A 
ATOM     10  C   UNL     1      -4.751  11.350  17.348  0.00  0.00    +0.000 C 
ATOM     11  C   UNL     1      -2.604  10.073  16.934  0.00  0.00    +0.000 A 
ATOM     12  C   UNL     1      -1.274   9.752  17.254  0.00  0.00    +0.000 A 
ATOM     13  C   UNL     1      -0.666  10.387  18.330  0.00  0.00    +0.000 A 
ATOM     14  C   UNL     1       0.748  10.255  18.836  0.00  0.00    +0.000 C 
BRANCH   5  15
ATOM     15  C   UNL     1       1.064  10.593  21.451  0.00  0.00    +0.000 C 
BRANCH  15  17
ATOM     16  C   UNL     1      -0.529   8.819  22.265  0.00  0.00    +0.000 C 
ATOM     17  C   UNL     1      -0.226  10.307  22.233  0.00  0.00    +0.000 C 
ENDBRANCH  15  17
ENDBRANCH   5  15
ENDBRANCH   1  14
BRANCH   2  18
ATOM     18  C   UNL     1       2.440   6.859  18.886  0.00  0.00    +0.000 A 
ATOM     19  C   UNL     1       1.854   6.389  20.005  0.00  0.00    +0.000 A 
ATOM     20  C   UNL     1       2.129   5.058  20.507  0.00  0.00    +0.000 A 
ATOM     21  C   UNL     1       2.998   4.255  19.869  0.00  0.00    +0.000 A 
ATOM     22  N   UNL     1       3.589   4.719  18.703  0.00  0.00    +0.000 N 
ATOM     23  C   UNL     1       3.357   5.950  18.144  0.00  0.00    +0.000 A 
ATOM     24  O   UNL     1       3.882   6.273  17.079  0.00  0.00    +0.000 OA
ATOM     25  H   UNL     1       4.237   4.118  18.199  0.00  0.00    +0.000 HD
BRANCH  21  26
ATOM     26  C   UNL     1       3.369   2.875  20.362  0.00  0.00    +0.000 C 
ATOM     27  F   UNL     1       2.734   1.906  19.652  0.00  0.00    +0.000 F 
ATOM     28  F   UNL     1       4.700   2.639  20.249  0.00  0.00    +0.000 F 
ATOM     29  F   UNL     1       3.037   2.693  21.665  0.00  0.00    +0.000 F 
ENDBRANCH  21  26
ENDBRANCH   2  18
TORSDOF 5
ENDMDL
MODEL 5
REMARK VINA RESULT:      -7.5      1.927      4.113
REMARK  Name = 
REMARK  7 active torsions:
REMARK  status: ('A' for Active; 'I' for Inactive)
REMARK    1  A    between atoms: C_1  and  C_2
REMARK    2  A    between atoms: C_2  and  C_3
REMARK    3  A    between atoms: C_3  and  C_4
REMARK    4  A    between atoms: C_8  and  C_9
REMARK    5  A    between atoms: C_13  and  N_14
REMARK    6  A    between atoms: C_15  and  C_17
REMARK    7  A    between atoms: C_20  and  C_21
REMARK                            x       y       z     vdW  Elec       q    Type
REMARK                         _______ _______ _______ _____ _____    ______ ____
ROOT
ATOM      1  N   UNL     1       0.616   9.492  19.006  0.00  0.00    +0.000 N 
ATOM      2  C   UNL     1       1.314   8.716  19.900  0.00  0.00    +0.000 C 
ATOM      3  O   UNL     1       1.218   8.843  21.119  0.00  0.00    +0.000 OA
ATOM      4  H   UNL     1       0.817   9.402  18.012  0.00  0.00    +0.000 HD
ENDROOT
BRANCH   1  14
ATOM      5  C   UNL     1      -1.583  10.705  18.571  0.00  0.00    +0.000 C 
ATOM      6  C   UNL     1      -1.726  12.205  18.216  0.00  0.00    +0.000 C 
ATOM      7  C   UNL     1      -0.463  12.820  18.702  0.00  0.00    +0.000 A 
ATOM      8  C   UNL     1      -0.106  14.151  18.537  0.00  0.00    +0.000 A 
ATOM      9  C   UNL     1       1.087  14.610  19.096  0.00  0.00    +0.000 A 
ATOM     10  C   UNL     1       1.488  16.046  18.933  0.00  0.00    +0.000 C 
ATOM     11  C   UNL     1       1.891  13.709  19.823  0.00  0.00    +0.000 A 
ATOM     12  C   UNL     1       1.524  12.361  19.967  0.00  0.00    +0.000 A 
ATOM     13  C   UNL     1       0.345  11.915  19.383  0.00  0.00    +0.000 A 
ATOM     14  C   UNL     1      -0.283  10.545  19.436  0.00  0.00    +0.000 C 
BRANCH   5  15
ATOM     15  C   UNL     1      -1.688   9.846  17.294  0.00  0.00    +0.000 C 
BRANCH  15  17
ATOM     16  C   UNL     1      -2.905  10.308  15.138  0.00  0.00    +0.000 C 
ATOM     17  C   UNL     1      -3.057   9.977  16.612  0.00  0.00    +0.000 C 
ENDBRANCH  15  17
ENDBRANCH   5  15
ENDBRANCH   1  14
BRANCH   2  18
ATOM     18  C   UNL     1       2.168   7.651  19.306  0.00  0.00    +0.000 A 
ATOM     19  C   UNL     1       2.353   6.507  19.997  0.00  0.00    +0.000 A 
ATOM     20  C   UNL     1       3.210   5.449  19.502  0.00  0.00    +0.000 A 
ATOM     21  C   UNL     1       3.863   5.592  18.336  0.00  0.00    +0.000 A 
ATOM     22  N   UNL     1       3.662   6.753  17.605  0.00  0.00    +0.000 N 
ATOM     23  C   UNL     1       2.842   7.785  17.986  0.00  0.00    +0.000 A 
ATOM     24  O   UNL     1       2.676   8.765  17.260  0.00  0.00    +0.000 OA
ATOM     25  H   UNL     1       4.136   6.869  16.713  0.00  0.00    +0.000 HD
BRANCH  21  26
ATOM     26  C   UNL     1       4.811   4.550  17.784  0.00  0.00    +0.000 C 
ATOM     27  F   UNL     1       5.062   4.757  16.465  0.00  0.00    +0.000 F 
ATOM     28  F   UNL     1       6.008   4.569  18.421  0.00  0.00    +0.000 F 
ATOM     29  F   UNL     1       4.312   3.295  17.901  0.00  0.00    +0.000 F 
ENDBRANCH  21  26
ENDBRANCH   2  18
TORSDOF 5
ENDMDL
MODEL 6
REMARK VINA RESULT:      -7.5      2.120      4.084
REMARK  Name = 
REMARK  7 active torsions:
REMARK  status: ('A' for Active; 'I' for Inactive)
REMARK    1  A    between atoms: C_1  and  C_2
REMARK    2  A    between atoms: C_2  and  C_3
REMARK    3  A    between atoms: C_3  and  C_4
REMARK    4  A    between atoms: C_8  and  C_9
REMARK    5  A    between atoms: C_13  and  N_14
REMARK    6  A    between atoms: C_15  and  C_17
REMARK    7  A    between atoms: C_20  and  C_21
REMARK                            x       y       z     vdW  Elec       q    Type
REMARK                         _______ _______ _______ _____ _____    ______ ____
ROOT
ATOM      1  N   UNL     1       0.769   9.506  18.855  0.00  0.00    +0.000 N 
ATOM      2  C   UNL     1       1.445   8.658  19.700  0.00  0.00    +0.000 C 
ATOM      3  O   UNL     1       1.324   8.690  20.922  0.00  0.00    +0.000 OA
ATOM      4  H   UNL     1       0.990   9.493  17.861  0.00  0.00    +0.000 HD
ENDROOT
BRANCH   1  14
ATOM      5  C   UNL     1      -1.484  10.660  18.557  0.00  0.00    +0.000 C 
ATOM      6  C   UNL     1      -1.688  12.159  18.231  0.00  0.00    +0.000 C 
ATOM      7  C   UNL     1      -0.418  12.804  18.655  0.00  0.00    +0.000 A 
ATOM      8  C   UNL     1      -0.109  14.148  18.488  0.00  0.00    +0.000 A 
ATOM      9  C   UNL     1       1.099  14.634  18.988  0.00  0.00    +0.000 A 
ATOM     10  C   UNL     1       1.451  16.082  18.822  0.00  0.00    +0.000 C 
ATOM     11  C   UNL     1       1.967  13.748  19.658  0.00  0.00    +0.000 A 
ATOM     12  C   UNL     1       1.648  12.388  19.803  0.00  0.00    +0.000 A 
ATOM     13  C   UNL     1       0.451  11.915  19.279  0.00  0.00    +0.000 A 
ATOM     14  C   UNL     1      -0.134  10.527  19.348  0.00  0.00    +0.000 C 
BRANCH   5  15
ATOM     15  C   UNL     1      -1.635   9.814  17.277  0.00  0.00    +0.000 C 
BRANCH  15  17
ATOM     16  C   UNL     1      -2.908  10.268  15.151  0.00  0.00    +0.000 C 
ATOM     17  C   UNL     1      -3.021   9.966  16.635  0.00  0.00    +0.000 C 
ENDBRANCH  15  17
ENDBRANCH   5  15
ENDBRANCH   1  14
BRANCH   2  18
ATOM     18  C   UNL     1       2.306   7.638  19.042  0.00  0.00    +0.000 A 
ATOM     19  C   UNL     1       3.006   7.989  17.945  0.00  0.00    +0.000 A 
ATOM     20  C   UNL     1       3.826   7.035  17.226  0.00  0.00    +0.000 A 
ATOM     21  C   UNL     1       3.895   5.755  17.632  0.00  0.00    +0.000 A 
ATOM     22  N   UNL     1       3.199   5.387  18.774  0.00  0.00    +0.000 N 
ATOM     23  C   UNL     1       2.430   6.236  19.529  0.00  0.00    +0.000 A 
ATOM     24  O   UNL     1       1.880   5.848  20.559  0.00  0.00    +0.000 OA
ATOM     25  H   UNL     1       3.254   4.427  19.103  0.00  0.00    +0.000 HD
BRANCH  21  26
ATOM     26  C   UNL     1       4.691   4.696  16.903  0.00  0.00    +0.000 C 
ATOM     27  F   UNL     1       3.920   3.622  16.591  0.00  0.00    +0.000 F 
ATOM     28  F   UNL     1       5.206   5.164  15.739  0.00  0.00    +0.000 F 
ATOM     29  F   UNL     1       5.728   4.237  17.646  0.00  0.00    +0.000 F 
ENDBRANCH  21  26
ENDBRANCH   2  18
TORSDOF 5
ENDMDL
MODEL 7
REMARK VINA RESULT:      -7.5      1.293      1.778
REMARK  Name = 
REMARK  7 active torsions:
REMARK  status: ('A' for Active; 'I' for Inactive)
REMARK    1  A    between atoms: C_1  and  C_2
REMARK    2  A    between atoms: C_2  and  C_3
REMARK    3  A    between atoms: C_3  and  C_4
REMARK    4  A    between atoms: C_8  and  C_9
REMARK    5  A    between atoms: C_13  and  N_14
REMARK    6  A    between atoms: C_15  and  C_17
REMARK    7  A    between atoms: C_20  and  C_21
REMARK                            x       y       z     vdW  Elec       q    Type
REMARK                         _______ _______ _______ _____ _____    ______ ____
ROOT
ATOM      1  N   UNL     1      -0.242  10.545  19.080  0.00  0.00    +0.000 N 
ATOM      2  C   UNL     1       1.060  10.382  18.672  0.00  0.00    +0.000 C 
ATOM      3  O   UNL     1       1.721  11.280  18.156  0.00  0.00    +0.000 OA
ATOM      4  H   UNL     1      -0.764   9.734  19.407  0.00  0.00    +0.000 HD
ENDROOT
BRANCH   1  14
ATOM      5  C   UNL     1      -0.831  12.796  20.123  0.00  0.00    +0.000 C 
ATOM      6  C   UNL     1      -2.260  13.275  20.474  0.00  0.00    +0.000 C 
ATOM      7  C   UNL     1      -3.148  12.440  19.625  0.00  0.00    +0.000 A 
ATOM      8  C   UNL     1      -4.536  12.465  19.651  0.00  0.00    +0.000 A 
ATOM      9  C   UNL     1      -5.248  11.668  18.755  0.00  0.00    +0.000 A 
ATOM     10  C   UNL     1      -6.747  11.685  18.764  0.00  0.00    +0.000 C 
ATOM     11  C   UNL     1      -4.536  10.866  17.840  0.00  0.00    +0.000 A 
ATOM     12  C   UNL     1      -3.132  10.838  17.837  0.00  0.00    +0.000 A 
ATOM     13  C   UNL     1      -2.438  11.621  18.753  0.00  0.00    +0.000 A 
ATOM     14  C   UNL     1      -0.950  11.800  18.914  0.00  0.00    +0.000 C 
BRANCH   5  15
ATOM     15  C   UNL     1      -0.117  12.282  21.389  0.00  0.00    +0.000 C 
BRANCH  15  17
ATOM     16  C   UNL     1      -1.312  10.842  23.076  0.00  0.00    +0.000 C 
ATOM     17  C   UNL     1      -1.042  12.263  22.615  0.00  0.00    +0.000 C 
ENDBRANCH  15  17
ENDBRANCH   5  15
ENDBRANCH   1  14
BRANCH   2  18
ATOM     18  C   UNL     1       1.662   9.047  18.944  0.00  0.00    +0.000 A 
ATOM     19  C   UNL     1       2.238   8.376  17.926  0.00  0.00    +0.000 A 
ATOM     20  C   UNL     1       2.799   7.053  18.108  0.00  0.00    +0.000 A 
ATOM     21  C   UNL     1       2.744   6.449  19.308  0.00  0.00    +0.000 A 
ATOM     22  N   UNL     1       2.175   7.140  20.369  0.00  0.00    +0.000 N 
ATOM     23  C   UNL     1       1.654   8.406  20.287  0.00  0.00    +0.000 A 
ATOM     24  O   UNL     1       1.210   8.975  21.284  0.00  0.00    +0.000 OA
ATOM     25  H   UNL     1       2.141   6.703  21.286  0.00  0.00    +0.000 HD
BRANCH  21  26
ATOM     26  C   UNL     1       3.265   5.051  19.558  0.00  0.00    +0.000 C 
ATOM     27  F   UNL     1       2.768   4.534  20.712  0.00  0.00    +0.000 F 
ATOM     28  F   UNL     1       2.919   4.198  18.562  0.00  0.00    +0.000 F 
ATOM     29  F   UNL     1       4.617   5.023  19.661  0.00  0.00    +0.000 F 
ENDBRANCH  21  26
ENDBRANCH   2  18
TORSDOF 5
ENDMDL
MODEL 8
REMARK VINA RESULT:      -7.4      1.163      1.565
REMARK  Name = 
REMARK  7 active torsions:
REMARK  status: ('A' for Active; 'I' for Inactive)
REMARK    1  A    between atoms: C_1  and  C_2
REMARK    2  A    between atoms: C_2  and  C_3
REMARK    3  A    between atoms: C_3  and  C_4
REMARK    4  A    between atoms: C_8  and  C_9
REMARK    5  A    between atoms: C_13  and  N_14
REMARK    6  A    between atoms: C_15  and  C_17
REMARK    7  A    between atoms: C_20  and  C_21
REMARK                            x       y       z     vdW  Elec       q    Type
REMARK                         _______ _______ _______ _____ _____    ______ ____
ROOT
ATOM      1  N   UNL     1       0.250   9.905  18.531  0.00  0.00    +0.000 N 
ATOM      2  C   UNL     1       1.554   9.701  18.150  0.00  0.00    +0.000 C 
ATOM      3  O   UNL     1       2.224  10.547  17.563  0.00  0.00    +0.000 OA
ATOM      4  H   UNL     1      -0.279   9.129  18.924  0.00  0.00    +0.000 HD
ENDROOT
BRANCH   1  14
ATOM      5  C   UNL     1      -0.315  12.251  19.357  0.00  0.00    +0.000 C 
ATOM      6  C   UNL     1      -1.738  12.773  19.670  0.00  0.00    +0.000 C 
ATOM      7  C   UNL     1      -2.639  11.866  18.911  0.00  0.00    +0.000 A 
ATOM      8  C   UNL     1      -4.026  11.905  18.944  0.00  0.00    +0.000 A 
ATOM      9  C   UNL     1      -4.750  11.031  18.133  0.00  0.00    +0.000 A 
ATOM     10  C   UNL     1      -6.249  11.060  18.150  0.00  0.00    +0.000 C 
ATOM     11  C   UNL     1      -4.051  10.140  17.295  0.00  0.00    +0.000 A 
ATOM     12  C   UNL     1      -2.647  10.100  17.286  0.00  0.00    +0.000 A 
ATOM     13  C   UNL     1      -1.941  10.961  18.117  0.00  0.00    +0.000 A 
ATOM     14  C   UNL     1      -0.450  11.144  18.251  0.00  0.00    +0.000 C 
BRANCH   5  15
ATOM     15  C   UNL     1       0.404  11.855  20.662  0.00  0.00    +0.000 C 
BRANCH  15  17
ATOM     16  C   UNL     1       2.060  13.444  19.623  0.00  0.00    +0.000 C 
ATOM     17  C   UNL     1       1.768  12.543  20.810  0.00  0.00    +0.000 C 
ENDBRANCH  15  17
ENDBRANCH   5  15
ENDBRANCH   1  14
BRANCH   2  18
ATOM     18  C   UNL     1       2.147   8.393  18.543  0.00  0.00    +0.000 A 
ATOM     19  C   UNL     1       2.895   7.723  17.643  0.00  0.00    +0.000 A 
ATOM     20  C   UNL     1       3.462   6.423  17.941  0.00  0.00    +0.000 A 
ATOM     21  C   UNL     1       3.238   5.839  19.131  0.00  0.00    +0.000 A 
ATOM     22  N   UNL     1       2.490   6.529  20.074  0.00  0.00    +0.000 N 
ATOM     23  C   UNL     1       1.949   7.775  19.883  0.00  0.00    +0.000 A 
ATOM     24  O   UNL     1       1.336   8.346  20.785  0.00  0.00    +0.000 OA
ATOM     25  H   UNL     1       2.325   6.108  20.985  0.00  0.00    +0.000 HD
BRANCH  21  26
ATOM     26  C   UNL     1       3.756   4.465  19.491  0.00  0.00    +0.000 C 
ATOM     27  F   UNL     1       3.469   3.556  18.524  0.00  0.00    +0.000 F 
ATOM     28  F   UNL     1       5.104   4.460  19.650  0.00  0.00    +0.000 F 
ATOM     29  F   UNL     1       3.214   4.002  20.644  0.00  0.00    +0.000 F 
ENDBRANCH  21  26
ENDBRANCH   2  18
TORSDOF 5
ENDMDL
MODEL 9
REMARK VINA RESULT:      -7.4      4.894      7.572
REMARK  Name = 
REMARK  7 active torsions:
REMARK  status: ('A' for Active; 'I' for Inactive)
REMARK    1  A    between atoms: C_1  and  C_2
REMARK    2  A    between atoms: C_2  and  C_3
REMARK    3  A    between atoms: C_3  and  C_4
REMARK    4  A    between atoms: C_8  and  C_9
REMARK    5  A    between atoms: C_13  and  N_14
REMARK    6  A    between atoms: C_15  and  C_17
REMARK    7  A    between atoms: C_20  and  C_21
REMARK                            x       y       z     vdW  Elec       q    Type
REMARK                         _______ _______ _______ _____ _____    ______ ____
ROOT
ATOM      1  N   UNL     1       4.503   4.745  18.203  0.00  0.00    +0.000 N 
ATOM      2  C   UNL     1       5.806   4.607  17.789  0.00  0.00    +0.000 C 
ATOM      3  O   UNL     1       6.755   4.534  18.567  0.00  0.00    +0.000 OA
ATOM      4  H   UNL     1       3.777   4.900  17.506  0.00  0.00    +0.000 HD
ENDROOT
BRANCH   1  14
ATOM      5  C   UNL     1       3.526   3.529  20.220  0.00  0.00    +0.000 C 
ATOM      6  C   UNL     1       2.237   3.934  20.973  0.00  0.00    +0.000 C 
ATOM      7  C   UNL     1       2.046   5.368  20.633  0.00  0.00    +0.000 A 
ATOM      8  C   UNL     1       0.967   6.147  21.028  0.00  0.00    +0.000 A 
ATOM      9  C   UNL     1       0.944   7.499  20.687  0.00  0.00    +0.000 A 
ATOM     10  C   UNL     1      -0.210   8.360  21.108  0.00  0.00    +0.000 C 
ATOM     11  C   UNL     1       2.023   8.039  19.959  0.00  0.00    +0.000 A 
ATOM     12  C   UNL     1       3.100   7.234  19.552  0.00  0.00    +0.000 A 
ATOM     13  C   UNL     1       3.096   5.883  19.880  0.00  0.00    +0.000 A 
ATOM     14  C   UNL     1       4.145   4.836  19.605  0.00  0.00    +0.000 C 
BRANCH   5  15
ATOM     15  C   UNL     1       3.232   2.368  19.250  0.00  0.00    +0.000 C 
BRANCH  15  17
ATOM     16  C   UNL     1       1.538   3.307  17.638  0.00  0.00    +0.000 C 
ATOM     17  C   UNL     1       1.767   2.346  18.791  0.00  0.00    +0.000 C 
ENDBRANCH  15  17
ENDBRANCH   5  15
ENDBRANCH   1  14
BRANCH   2  18
ATOM     18  C   UNL     1       6.011   4.490  16.319  0.00  0.00    +0.000 A 
ATOM     19  C   UNL     1       5.305   3.565  15.637  0.00  0.00    +0.000 A 
ATOM     20  C   UNL     1       5.489   3.363  14.215  0.00  0.00    +0.000 A 
ATOM     21  C   UNL     1       6.392   4.091  13.535  0.00  0.00    +0.000 A 
ATOM     22  N   UNL     1       7.107   5.062  14.220  0.00  0.00    +0.000 N 
ATOM     23  C   UNL     1       6.967   5.339  15.557  0.00  0.00    +0.000 A 
ATOM     24  O   UNL     1       7.602   6.250  16.086  0.00  0.00    +0.000 OA
ATOM     25  H   UNL     1       7.782   5.632  13.717  0.00  0.00    +0.000 HD
BRANCH  21  26
ATOM     26  C   UNL     1       6.671   3.900  12.061  0.00  0.00    +0.000 C 
ATOM     27  F   UNL     1       7.473   4.883  11.575  0.00  0.00    +0.000 F 
ATOM     28  F   UNL     1       7.298   2.722  11.815  0.00  0.00    +0.000 F 
ATOM     29  F   UNL     1       5.535   3.913  11.322  0.00  0.00    +0.000 F 
ENDBRANCH  21  26
ENDBRANCH   2  18
TORSDOF 5
ENDMDL
