MODEL 1
REMARK VINA RESULT:      -7.4      0.000      0.000
REMARK  Name = 
REMARK  12 active torsions:
REMARK  status: ('A' for Active; 'I' for Inactive)
REMARK    1  A    between atoms: C_1  and  C_2
REMARK    2  A    between atoms: C_7  and  C_8
REMARK    3  A    between atoms: C_8  and  C_9
REMARK    4  A    between atoms: C_8  and  O_14
REMARK    5  A    between atoms: C_9  and  C_10
REMARK    6  A    between atoms: C_10  and  C_11
REMARK    7  A    between atoms: C_11  and  O_13
REMARK    8  A    between atoms: O_14  and  C_15
REMARK    9  A    between atoms: C_17  and  O_18
REMARK   10  A    between atoms: O_18  and  C_19
REMARK   11  A    between atoms: C_19  and  C_20
REMARK   12  A    between atoms: C_27  and  C_28
REMARK                            x       y       z     vdW  Elec       q    Type
REMARK                         _______ _______ _______ _____ _____    ______ ____
ROOT
ATOM      1  O   UNL     1       4.160   6.154  17.340  0.00  0.00    +0.000 OA
ENDROOT
BRANCH   1   2
ATOM      2  C   UNL     1       5.435   6.148  17.867  0.00  0.00    +0.000 A 
ATOM      3  C   UNL     1       6.248   7.191  17.390  0.00  0.00    +0.000 A 
ATOM      4  C   UNL     1       7.526   7.404  17.919  0.00  0.00    +0.000 A 
ATOM      5  C   UNL     1       7.989   6.591  18.950  0.00  0.00    +0.000 A 
ATOM      6  C   UNL     1       7.233   5.505  19.372  0.00  0.00    +0.000 A 
ATOM      7  C   UNL     1       5.993   5.232  18.777  0.00  0.00    +0.000 A 
BRANCH   7   8
ATOM      8  C   UNL     1       5.446   3.937  19.064  0.00  0.00    +0.000 C 
ATOM      9  N   UNL     1       4.977   2.904  19.297  0.00  0.00    +0.000 NA
ENDBRANCH   7   8
BRANCH   4  10
ATOM     10  O   UNL     1       8.424   8.353  17.522  0.00  0.00    +0.000 OA
BRANCH  10  11
ATOM     11  C   UNL     1       7.950   9.692  17.418  0.00  0.00    +0.000 C 
BRANCH  11  12
ATOM     12  C   UNL     1       8.785  10.601  18.269  0.00  0.00    +0.000 A 
ATOM     13  C   UNL     1       9.396  10.242  19.515  0.00  0.00    +0.000 A 
ATOM     14  C   UNL     1      10.136  11.271  20.056  0.00  0.00    +0.000 A 
ATOM     15  S   UNL     1      10.077  12.680  19.091  0.00  0.00    +0.000 S 
ATOM     16  C   UNL     1       9.063  11.917  17.948  0.00  0.00    +0.000 A 
ENDBRANCH  11  12
ENDBRANCH  10  11
ENDBRANCH   4  10
ENDBRANCH   1   2
BRANCH   1  17
ATOM     17  C   UNL     1       3.061   6.421  18.231  0.00  0.00    +0.000 C 
BRANCH  17  24
ATOM     18  C   UNL     1       2.018   5.900  21.171  0.00  0.00    +0.000 C 
ATOM     19  C   UNL     1       1.786   4.967  20.016  0.00  0.00    +0.000 A 
ATOM     20  C   UNL     1       0.956   3.845  20.240  0.00  0.00    +0.000 A 
ATOM     21  C   UNL     1       0.676   2.926  19.230  0.00  0.00    +0.000 A 
ATOM     22  C   UNL     1       1.246   3.090  17.978  0.00  0.00    +0.000 A 
ATOM     23  C   UNL     1       2.064   4.192  17.738  0.00  0.00    +0.000 A 
ATOM     24  C   UNL     1       2.323   5.173  18.730  0.00  0.00    +0.000 A 
ENDBRANCH  17  24
BRANCH  17  25
ATOM     25  C   UNL     1       2.167   7.595  17.785  0.00  0.00    +0.000 C 
BRANCH  25  26
ATOM     26  C   UNL     1       1.642   8.550  18.854  0.00  0.00    +0.000 C 
BRANCH  26  27
ATOM     27  C   UNL     1       1.128   9.814  18.181  0.00  0.00    +0.000 C 
ATOM     28  O   UNL     1       0.045  10.336  18.402  0.00  0.00    +0.000 OA
BRANCH  27  29
ATOM     29  O   UNL     1       2.005  10.338  17.297  0.00  0.00    +0.000 OA
ATOM     30  H   UNL     1       2.160  11.293  17.407  0.00  0.00    +0.000 HD
ENDBRANCH  27  29
ENDBRANCH  26  27
ENDBRANCH  25  26
ENDBRANCH  17  25
ENDBRANCH   1  17
TORSDOF 11
ENDMDL
MODEL 2
REMARK VINA RESULT:      -7.2      2.846      6.148
REMARK  Name = 
REMARK  12 active torsions:
REMARK  status: ('A' for Active; 'I' for Inactive)
REMARK    1  A    between atoms: C_1  and  C_2
REMARK    2  A    between atoms: C_7  and  C_8
REMARK    3  A    between atoms: C_8  and  C_9
REMARK    4  A    between atoms: C_8  and  O_14
REMARK    5  A    between atoms: C_9  and  C_10
REMARK    6  A    between atoms: C_10  and  C_11
REMARK    7  A    between atoms: C_11  and  O_13
REMARK    8  A    between atoms: O_14  and  C_15
REMARK    9  A    between atoms: C_17  and  O_18
REMARK   10  A    between atoms: O_18  and  C_19
REMARK   11  A    between atoms: C_19  and  C_20
REMARK   12  A    between atoms: C_27  and  C_28
REMARK                            x       y       z     vdW  Elec       q    Type
REMARK                         _______ _______ _______ _____ _____    ______ ____
ROOT
ATOM      1  O   UNL     1       2.951   5.352  17.751  0.00  0.00    +0.000 OA
ENDROOT
BRANCH   1   2
ATOM      2  C   UNL     1       2.521   6.376  18.570  0.00  0.00    +0.000 A 
ATOM      3  C   UNL     1       2.586   7.644  17.967  0.00  0.00    +0.000 A 
ATOM      4  C   UNL     1       2.069   8.774  18.613  0.00  0.00    +0.000 A 
ATOM      5  C   UNL     1       1.457   8.636  19.856  0.00  0.00    +0.000 A 
ATOM      6  C   UNL     1       1.462   7.405  20.500  0.00  0.00    +0.000 A 
ATOM      7  C   UNL     1       2.064   6.292  19.898  0.00  0.00    +0.000 A 
BRANCH   7   8
ATOM      8  C   UNL     1       2.284   5.169  20.761  0.00  0.00    +0.000 C 
ATOM      9  N   UNL     1       2.437   4.268  21.474  0.00  0.00    +0.000 NA
ENDBRANCH   7   8
BRANCH   4  10
ATOM     10  O   UNL     1       2.099  10.059  18.156  0.00  0.00    +0.000 OA
BRANCH  10  11
ATOM     11  C   UNL     1       1.126  10.958  18.677  0.00  0.00    +0.000 C 
BRANCH  11  12
ATOM     12  C   UNL     1       1.773  12.258  19.050  0.00  0.00    +0.000 A 
ATOM     13  C   UNL     1       1.831  12.808  20.372  0.00  0.00    +0.000 A 
ATOM     14  C   UNL     1       2.523  13.999  20.419  0.00  0.00    +0.000 A 
ATOM     15  S   UNL     1       3.079  14.479  18.876  0.00  0.00    +0.000 S 
ATOM     16  C   UNL     1       2.397  13.096  18.143  0.00  0.00    +0.000 A 
ENDBRANCH  11  12
ENDBRANCH  10  11
ENDBRANCH   4  10
ENDBRANCH   1   2
BRANCH   1  17
ATOM     17  C   UNL     1       4.054   4.543  18.202  0.00  0.00    +0.000 C 
BRANCH  17  24
ATOM     18  C   UNL     1       5.182   6.163  15.732  0.00  0.00    +0.000 C 
ATOM     19  C   UNL     1       5.904   6.009  17.039  0.00  0.00    +0.000 A 
ATOM     20  C   UNL     1       7.110   6.727  17.207  0.00  0.00    +0.000 A 
ATOM     21  C   UNL     1       7.850   6.654  18.387  0.00  0.00    +0.000 A 
ATOM     22  C   UNL     1       7.417   5.836  19.417  0.00  0.00    +0.000 A 
ATOM     23  C   UNL     1       6.228   5.124  19.270  0.00  0.00    +0.000 A 
ATOM     24  C   UNL     1       5.426   5.220  18.104  0.00  0.00    +0.000 A 
ENDBRANCH  17  24
BRANCH  17  25
ATOM     25  C   UNL     1       3.992   3.080  17.722  0.00  0.00    +0.000 C 
BRANCH  25  26
ATOM     26  C   UNL     1       2.646   2.527  17.259  0.00  0.00    +0.000 C 
BRANCH  26  27
ATOM     27  C   UNL     1       1.777   2.251  18.477  0.00  0.00    +0.000 C 
ATOM     28  O   UNL     1       2.134   1.632  19.468  0.00  0.00    +0.000 OA
BRANCH  27  29
ATOM     29  O   UNL     1       0.537   2.778  18.373  0.00  0.00    +0.000 OA
ATOM     30  H   UNL     1       0.007   2.410  17.644  0.00  0.00    +0.000 HD
ENDBRANCH  27  29
ENDBRANCH  26  27
ENDBRANCH  25  26
ENDBRANCH  17  25
ENDBRANCH   1  17
TORSDOF 11
ENDMDL
MODEL 3
REMARK VINA RESULT:      -7.2      3.406      7.254
REMARK  Name = 
REMARK  12 active torsions:
REMARK  status: ('A' for Active; 'I' for Inactive)
REMARK    1  A    between atoms: C_1  and  C_2
REMARK    2  A    between atoms: C_7  and  C_8
REMARK    3  A    between atoms: C_8  and  C_9
REMARK    4  A    between atoms: C_8  and  O_14
REMARK    5  A    between atoms: C_9  and  C_10
REMARK    6  A    between atoms: C_10  and  C_11
REMARK    7  A    between atoms: C_11  and  O_13
REMARK    8  A    between atoms: O_14  and  C_15
REMARK    9  A    between atoms: C_17  and  O_18
REMARK   10  A    between atoms: O_18  and  C_19
REMARK   11  A    between atoms: C_19  and  C_20
REMARK   12  A    between atoms: C_27  and  C_28
REMARK                            x       y       z     vdW  Elec       q    Type
REMARK                         _______ _______ _______ _____ _____    ______ ____
ROOT
ATOM      1  O   UNL     1       2.960   5.760  17.698  0.00  0.00    +0.000 OA
ENDROOT
BRANCH   1   2
ATOM      2  C   UNL     1       2.464   6.504  18.749  0.00  0.00    +0.000 A 
ATOM      3  C   UNL     1       2.346   7.875  18.463  0.00  0.00    +0.000 A 
ATOM      4  C   UNL     1       1.742   8.750  19.374  0.00  0.00    +0.000 A 
ATOM      5  C   UNL     1       1.225   8.252  20.567  0.00  0.00    +0.000 A 
ATOM      6  C   UNL     1       1.411   6.916  20.901  0.00  0.00    +0.000 A 
ATOM      7  C   UNL     1       2.101   6.058  20.033  0.00  0.00    +0.000 A 
BRANCH   7   8
ATOM      8  C   UNL     1       2.500   4.803  20.598  0.00  0.00    +0.000 C 
ATOM      9  N   UNL     1       2.794   3.781  21.060  0.00  0.00    +0.000 NA
ENDBRANCH   7   8
BRANCH   4  10
ATOM     10  O   UNL     1       1.596  10.100  19.233  0.00  0.00    +0.000 OA
BRANCH  10  11
ATOM     11  C   UNL     1       0.801  10.772  20.204  0.00  0.00    +0.000 C 
BRANCH  11  12
ATOM     12  C   UNL     1      -0.521  11.156  19.610  0.00  0.00    +0.000 A 
ATOM     13  C   UNL     1      -1.525  11.946  20.259  0.00  0.00    +0.000 A 
ATOM     14  C   UNL     1      -2.622  12.170  19.456  0.00  0.00    +0.000 A 
ATOM     15  S   UNL     1      -2.469  11.409  17.933  0.00  0.00    +0.000 S 
ATOM     16  C   UNL     1      -0.935  10.781  18.344  0.00  0.00    +0.000 A 
ENDBRANCH  11  12
ENDBRANCH  10  11
ENDBRANCH   4  10
ENDBRANCH   1   2
BRANCH   1  17
ATOM     17  C   UNL     1       4.038   4.844  17.967  0.00  0.00    +0.000 C 
BRANCH  17  24
ATOM     18  C   UNL     1       5.236   6.765  15.759  0.00  0.00    +0.000 C 
ATOM     19  C   UNL     1       5.944   6.400  17.032  0.00  0.00    +0.000 A 
ATOM     20  C   UNL     1       7.173   7.044  17.304  0.00  0.00    +0.000 A 
ATOM     21  C   UNL     1       7.901   6.777  18.463  0.00  0.00    +0.000 A 
ATOM     22  C   UNL     1       7.434   5.833  19.363  0.00  0.00    +0.000 A 
ATOM     23  C   UNL     1       6.223   5.191  19.112  0.00  0.00    +0.000 A 
ATOM     24  C   UNL     1       5.433   5.481  17.971  0.00  0.00    +0.000 A 
ENDBRANCH  17  24
BRANCH  17  25
ATOM     25  C   UNL     1       3.917   3.501  17.222  0.00  0.00    +0.000 C 
BRANCH  25  26
ATOM     26  C   UNL     1       2.602   2.731  17.329  0.00  0.00    +0.000 C 
BRANCH  26  27
ATOM     27  C   UNL     1       2.732   1.676  18.417  0.00  0.00    +0.000 C 
ATOM     28  O   UNL     1       3.742   1.029  18.651  0.00  0.00    +0.000 OA
BRANCH  27  29
ATOM     29  O   UNL     1       1.601   1.518  19.139  0.00  0.00    +0.000 OA
ATOM     30  H   UNL     1       1.570   0.693  19.656  0.00  0.00    +0.000 HD
ENDBRANCH  27  29
ENDBRANCH  26  27
ENDBRANCH  25  26
ENDBRANCH  17  25
ENDBRANCH   1  17
TORSDOF 11
ENDMDL
MODEL 4
REMARK VINA RESULT:      -7.1      3.186      6.568
REMARK  Name = 
REMARK  12 active torsions:
REMARK  status: ('A' for Active; 'I' for Inactive)
REMARK    1  A    between atoms: C_1  and  C_2
REMARK    2  A    between atoms: C_7  and  C_8
REMARK    3  A    between atoms: C_8  and  C_9
REMARK    4  A    between atoms: C_8  and  O_14
REMARK    5  A    between atoms: C_9  and  C_10
REMARK    6  A    between atoms: C_10  and  C_11
REMARK    7  A    between atoms: C_11  and  O_13
REMARK    8  A    between atoms: O_14  and  C_15
REMARK    9  A    between atoms: C_17  and  O_18
REMARK   10  A    between atoms: O_18  and  C_19
REMARK   11  A    between atoms: C_19  and  C_20
REMARK   12  A    between atoms: C_27  and  C_28
REMARK                            x       y       z     vdW  Elec       q    Type
REMARK                         _______ _______ _______ _____ _____    ______ ____
ROOT
ATOM      1  O   UNL     1       2.885   5.266  17.951  0.00  0.00    +0.000 OA
ENDROOT
BRANCH   1   2
ATOM      2  C   UNL     1       2.431   6.214  18.844  0.00  0.00    +0.000 A 
ATOM      3  C   UNL     1       2.472   7.527  18.344  0.00  0.00    +0.000 A 
ATOM      4  C   UNL     1       1.930   8.591  19.073  0.00  0.00    +0.000 A 
ATOM      5  C   UNL     1       1.315   8.344  20.297  0.00  0.00    +0.000 A 
ATOM      6  C   UNL     1       1.342   7.067  20.843  0.00  0.00    +0.000 A 
ATOM      7  C   UNL     1       1.970   6.017  20.159  0.00  0.00    +0.000 A 
BRANCH   7   8
ATOM      8  C   UNL     1       2.208   4.834  20.933  0.00  0.00    +0.000 C 
ATOM      9  N   UNL     1       2.413   3.865  21.535  0.00  0.00    +0.000 NA
ENDBRANCH   7   8
BRANCH   4  10
ATOM     10  O   UNL     1       1.937   9.909  18.718  0.00  0.00    +0.000 OA
BRANCH  10  11
ATOM     11  C   UNL     1       0.675  10.526  18.483  0.00  0.00    +0.000 C 
BRANCH  11  12
ATOM     12  C   UNL     1       0.609  11.847  19.189  0.00  0.00    +0.000 A 
ATOM     13  C   UNL     1       1.206  12.141  20.459  0.00  0.00    +0.000 A 
ATOM     14  C   UNL     1       1.011  13.450  20.843  0.00  0.00    +0.000 A 
ATOM     15  S   UNL     1       0.088  14.324  19.701  0.00  0.00    +0.000 S 
ATOM     16  C   UNL     1      -0.053  12.954  18.691  0.00  0.00    +0.000 A 
ENDBRANCH  11  12
ENDBRANCH  10  11
ENDBRANCH   4  10
ENDBRANCH   1   2
BRANCH   1  17
ATOM     17  C   UNL     1       3.994   4.438  18.348  0.00  0.00    +0.000 C 
BRANCH  17  24
ATOM     18  C   UNL     1       5.135   5.712  15.688  0.00  0.00    +0.000 C 
ATOM     19  C   UNL     1       5.858   5.722  17.004  0.00  0.00    +0.000 A 
ATOM     20  C   UNL     1       7.071   6.443  17.077  0.00  0.00    +0.000 A 
ATOM     21  C   UNL     1       7.812   6.518  18.257  0.00  0.00    +0.000 A 
ATOM     22  C   UNL     1       7.372   5.844  19.385  0.00  0.00    +0.000 A 
ATOM     23  C   UNL     1       6.176   5.131  19.332  0.00  0.00    +0.000 A 
ATOM     24  C   UNL     1       5.373   5.083  18.163  0.00  0.00    +0.000 A 
ENDBRANCH  17  24
BRANCH  17  25
ATOM     25  C   UNL     1       3.873   2.971  17.892  0.00  0.00    +0.000 C 
BRANCH  25  26
ATOM     26  C   UNL     1       2.545   2.506  17.300  0.00  0.00    +0.000 C 
BRANCH  26  27
ATOM     27  C   UNL     1       1.598   2.138  18.432  0.00  0.00    +0.000 C 
ATOM     28  O   UNL     1       0.399   2.371  18.448  0.00  0.00    +0.000 OA
BRANCH  27  29
ATOM     29  O   UNL     1       2.213   1.498  19.451  0.00  0.00    +0.000 OA
ATOM     30  H   UNL     1       2.621   0.650  19.200  0.00  0.00    +0.000 HD
ENDBRANCH  27  29
ENDBRANCH  26  27
ENDBRANCH  25  26
ENDBRANCH  17  25
ENDBRANCH   1  17
TORSDOF 11
ENDMDL
MODEL 5
REMARK VINA RESULT:      -7.1      0.784      1.678
REMARK  Name = 
REMARK  12 active torsions:
REMARK  status: ('A' for Active; 'I' for Inactive)
REMARK    1  A    between atoms: C_1  and  C_2
REMARK    2  A    between atoms: C_7  and  C_8
REMARK    3  A    between atoms: C_8  and  C_9
REMARK    4  A    between atoms: C_8  and  O_14
REMARK    5  A    between atoms: C_9  and  C_10
REMARK    6  A    between atoms: C_10  and  C_11
REMARK    7  A    between atoms: C_11  and  O_13
REMARK    8  A    between atoms: O_14  and  C_15
REMARK    9  A    between atoms: C_17  and  O_18
REMARK   10  A    between atoms: O_18  and  C_19
REMARK   11  A    between atoms: C_19  and  C_20
REMARK   12  A    between atoms: C_27  and  C_28
REMARK                            x       y       z     vdW  Elec       q    Type
REMARK                         _______ _______ _______ _____ _____    ______ ____
ROOT
ATOM      1  O   UNL     1       4.025   6.014  17.594  0.00  0.00    +0.000 OA
ENDROOT
BRANCH   1   2
ATOM      2  C   UNL     1       5.337   6.059  18.019  0.00  0.00    +0.000 A 
ATOM      3  C   UNL     1       6.086   7.092  17.429  0.00  0.00    +0.000 A 
ATOM      4  C   UNL     1       7.397   7.356  17.844  0.00  0.00    +0.000 A 
ATOM      5  C   UNL     1       7.956   6.607  18.875  0.00  0.00    +0.000 A 
ATOM      6  C   UNL     1       7.260   5.529  19.409  0.00  0.00    +0.000 A 
ATOM      7  C   UNL     1       5.985   5.202  18.927  0.00  0.00    +0.000 A 
BRANCH   7   8
ATOM      8  C   UNL     1       5.492   3.914  19.320  0.00  0.00    +0.000 C 
ATOM      9  N   UNL     1       5.099   2.863  19.609  0.00  0.00    +0.000 NA
ENDBRANCH   7   8
BRANCH   4  10
ATOM     10  O   UNL     1       8.239   8.301  17.332  0.00  0.00    +0.000 OA
BRANCH  10  11
ATOM     11  C   UNL     1       7.888   9.665  17.540  0.00  0.00    +0.000 C 
BRANCH  11  12
ATOM     12  C   UNL     1       8.982  10.369  18.285  0.00  0.00    +0.000 A 
ATOM     13  C   UNL     1       9.991  11.197  17.692  0.00  0.00    +0.000 A 
ATOM     14  C   UNL     1      10.843  11.743  18.628  0.00  0.00    +0.000 A 
ATOM     15  S   UNL     1      10.458  11.243  20.216  0.00  0.00    +0.000 S 
ATOM     16  C   UNL     1       9.151  10.297  19.656  0.00  0.00    +0.000 A 
ENDBRANCH  11  12
ENDBRANCH  10  11
ENDBRANCH   4  10
ENDBRANCH   1   2
BRANCH   1  17
ATOM     17  C   UNL     1       2.989   6.221  18.573  0.00  0.00    +0.000 C 
BRANCH  17  24
ATOM     18  C   UNL     1       2.485   3.674  16.767  0.00  0.00    +0.000 C 
ATOM     19  C   UNL     1       2.066   3.784  18.205  0.00  0.00    +0.000 A 
ATOM     20  C   UNL     1       1.512   2.635  18.812  0.00  0.00    +0.000 A 
ATOM     21  C   UNL     1       1.099   2.635  20.145  0.00  0.00    +0.000 A 
ATOM     22  C   UNL     1       1.200   3.797  20.892  0.00  0.00    +0.000 A 
ATOM     23  C   UNL     1       1.747   4.939  20.310  0.00  0.00    +0.000 A 
ATOM     24  C   UNL     1       2.227   4.953  18.975  0.00  0.00    +0.000 A 
ENDBRANCH  17  24
BRANCH  17  25
ATOM     25  C   UNL     1       2.124   7.470  18.312  0.00  0.00    +0.000 C 
BRANCH  25  26
ATOM     26  C   UNL     1       2.767   8.660  17.605  0.00  0.00    +0.000 C 
BRANCH  26  27
ATOM     27  C   UNL     1       2.010   9.926  17.976  0.00  0.00    +0.000 C 
ATOM     28  O   UNL     1       2.257  11.043  17.546  0.00  0.00    +0.000 OA
BRANCH  27  29
ATOM     29  O   UNL     1       0.997   9.703  18.842  0.00  0.00    +0.000 OA
ATOM     30  H   UNL     1       0.597   8.819  18.768  0.00  0.00    +0.000 HD
ENDBRANCH  27  29
ENDBRANCH  26  27
ENDBRANCH  25  26
ENDBRANCH  17  25
ENDBRANCH   1  17
TORSDOF 11
ENDMDL
MODEL 6
REMARK VINA RESULT:      -7.0      3.401      7.095
REMARK  Name = 
REMARK  12 active torsions:
REMARK  status: ('A' for Active; 'I' for Inactive)
REMARK    1  A    between atoms: C_1  and  C_2
REMARK    2  A    between atoms: C_7  and  C_8
REMARK    3  A    between atoms: C_8  and  C_9
REMARK    4  A    between atoms: C_8  and  O_14
REMARK    5  A    between atoms: C_9  and  C_10
REMARK    6  A    between atoms: C_10  and  C_11
REMARK    7  A    between atoms: C_11  and  O_13
REMARK    8  A    between atoms: O_14  and  C_15
REMARK    9  A    between atoms: C_17  and  O_18
REMARK   10  A    between atoms: O_18  and  C_19
REMARK   11  A    between atoms: C_19  and  C_20
REMARK   12  A    between atoms: C_27  and  C_28
REMARK                            x       y       z     vdW  Elec       q    Type
REMARK                         _______ _______ _______ _____ _____    ______ ____
ROOT
ATOM      1  O   UNL     1       3.451   5.538  16.912  0.00  0.00    +0.000 OA
ENDROOT
BRANCH   1   2
ATOM      2  C   UNL     1       2.865   5.542  18.161  0.00  0.00    +0.000 A 
ATOM      3  C   UNL     1       2.708   6.827  18.707  0.00  0.00    +0.000 A 
ATOM      4  C   UNL     1       2.017   7.018  19.909  0.00  0.00    +0.000 A 
ATOM      5  C   UNL     1       1.451   5.924  20.558  0.00  0.00    +0.000 A 
ATOM      6  C   UNL     1       1.670   4.640  20.076  0.00  0.00    +0.000 A 
ATOM      7  C   UNL     1       2.444   4.438  18.925  0.00  0.00    +0.000 A 
BRANCH   7   8
ATOM      8  C   UNL     1       2.859   3.086  18.692  0.00  0.00    +0.000 C 
ATOM      9  N   UNL     1       3.185   1.994  18.476  0.00  0.00    +0.000 NA
ENDBRANCH   7   8
BRANCH   4  10
ATOM     10  O   UNL     1       1.826   8.202  20.560  0.00  0.00    +0.000 OA
BRANCH  10  11
ATOM     11  C   UNL     1       0.951   8.193  21.683  0.00  0.00    +0.000 C 
BRANCH  11  12
ATOM     12  C   UNL     1       0.221   9.498  21.777  0.00  0.00    +0.000 A 
ATOM     13  C   UNL     1      -0.388  10.026  22.963  0.00  0.00    +0.000 A 
ATOM     14  C   UNL     1      -0.957  11.264  22.758  0.00  0.00    +0.000 A 
ATOM     15  S   UNL     1      -0.792  11.787  21.140  0.00  0.00    +0.000 S 
ATOM     16  C   UNL     1       0.041  10.360  20.710  0.00  0.00    +0.000 A 
ENDBRANCH  11  12
ENDBRANCH  10  11
ENDBRANCH   4  10
ENDBRANCH   1   2
BRANCH   1  17
ATOM     17  C   UNL     1       4.772   4.978  16.786  0.00  0.00    +0.000 C 
BRANCH  17  24
ATOM     18  C   UNL     1       6.172   4.148  19.497  0.00  0.00    +0.000 C 
ATOM     19  C   UNL     1       6.553   5.354  18.687  0.00  0.00    +0.000 A 
ATOM     20  C   UNL     1       7.679   6.096  19.111  0.00  0.00    +0.000 A 
ATOM     21  C   UNL     1       8.115   7.227  18.421  0.00  0.00    +0.000 A 
ATOM     22  C   UNL     1       7.415   7.662  17.308  0.00  0.00    +0.000 A 
ATOM     23  C   UNL     1       6.304   6.941  16.874  0.00  0.00    +0.000 A 
ATOM     24  C   UNL     1       5.869   5.756  17.522  0.00  0.00    +0.000 A 
ENDBRANCH  17  24
BRANCH  17  25
ATOM     25  C   UNL     1       5.120   4.516  15.358  0.00  0.00    +0.000 C 
BRANCH  25  26
ATOM     26  C   UNL     1       6.556   4.088  15.067  0.00  0.00    +0.000 C 
BRANCH  26  27
ATOM     27  C   UNL     1       6.912   4.480  13.640  0.00  0.00    +0.000 C 
ATOM     28  O   UNL     1       7.713   5.349  13.330  0.00  0.00    +0.000 OA
BRANCH  27  29
ATOM     29  O   UNL     1       6.254   3.752  12.711  0.00  0.00    +0.000 OA
ATOM     30  H   UNL     1       5.341   4.047  12.548  0.00  0.00    +0.000 HD
ENDBRANCH  27  29
ENDBRANCH  26  27
ENDBRANCH  25  26
ENDBRANCH  17  25
ENDBRANCH   1  17
TORSDOF 11
ENDMDL
MODEL 7
REMARK VINA RESULT:      -7.0      3.329      7.082
REMARK  Name = 
REMARK  12 active torsions:
REMARK  status: ('A' for Active; 'I' for Inactive)
REMARK    1  A    between atoms: C_1  and  C_2
REMARK    2  A    between atoms: C_7  and  C_8
REMARK    3  A    between atoms: C_8  and  C_9
REMARK    4  A    between atoms: C_8  and  O_14
REMARK    5  A    between atoms: C_9  and  C_10
REMARK    6  A    between atoms: C_10  and  C_11
REMARK    7  A    between atoms: C_11  and  O_13
REMARK    8  A    between atoms: O_14  and  C_15
REMARK    9  A    between atoms: C_17  and  O_18
REMARK   10  A    between atoms: O_18  and  C_19
REMARK   11  A    between atoms: C_19  and  C_20
REMARK   12  A    between atoms: C_27  and  C_28
REMARK                            x       y       z     vdW  Elec       q    Type
REMARK                         _______ _______ _______ _____ _____    ______ ____
ROOT
ATOM      1  O   UNL     1       3.322   5.620  17.181  0.00  0.00    +0.000 OA
ENDROOT
BRANCH   1   2
ATOM      2  C   UNL     1       2.733   5.639  18.429  0.00  0.00    +0.000 A 
ATOM      3  C   UNL     1       2.559   6.933  18.950  0.00  0.00    +0.000 A 
ATOM      4  C   UNL     1       1.862   7.137  20.147  0.00  0.00    +0.000 A 
ATOM      5  C   UNL     1       1.307   6.049  20.815  0.00  0.00    +0.000 A 
ATOM      6  C   UNL     1       1.544   4.759  20.357  0.00  0.00    +0.000 A 
ATOM      7  C   UNL     1       2.323   4.545  19.212  0.00  0.00    +0.000 A 
BRANCH   7   8
ATOM      8  C   UNL     1       2.756   3.194  19.006  0.00  0.00    +0.000 C 
ATOM      9  N   UNL     1       3.124   2.111  18.819  0.00  0.00    +0.000 NA
ENDBRANCH   7   8
BRANCH   4  10
ATOM     10  O   UNL     1       1.654   8.331  20.775  0.00  0.00    +0.000 OA
BRANCH  10  11
ATOM     11  C   UNL     1       1.041   9.368  20.016  0.00  0.00    +0.000 C 
BRANCH  11  12
ATOM     12  C   UNL     1       0.137  10.181  20.893  0.00  0.00    +0.000 A 
ATOM     13  C   UNL     1      -0.706  11.253  20.449  0.00  0.00    +0.000 A 
ATOM     14  C   UNL     1      -1.454  11.794  21.472  0.00  0.00    +0.000 A 
ATOM     15  S   UNL     1      -1.129  11.043  22.972  0.00  0.00    +0.000 S 
ATOM     16  C   UNL     1       0.012   9.992  22.257  0.00  0.00    +0.000 A 
ENDBRANCH  11  12
ENDBRANCH  10  11
ENDBRANCH   4  10
ENDBRANCH   1   2
BRANCH   1  17
ATOM     17  C   UNL     1       4.603   4.975  17.048  0.00  0.00    +0.000 C 
BRANCH  17  24
ATOM     18  C   UNL     1       6.166   4.115  19.660  0.00  0.00    +0.000 C 
ATOM     19  C   UNL     1       6.521   5.308  18.820  0.00  0.00    +0.000 A 
ATOM     20  C   UNL     1       7.693   6.021  19.161  0.00  0.00    +0.000 A 
ATOM     21  C   UNL     1       8.109   7.138  18.437  0.00  0.00    +0.000 A 
ATOM     22  C   UNL     1       7.345   7.589  17.373  0.00  0.00    +0.000 A 
ATOM     23  C   UNL     1       6.188   6.896  17.021  0.00  0.00    +0.000 A 
ATOM     24  C   UNL     1       5.769   5.725  17.703  0.00  0.00    +0.000 A 
ENDBRANCH  17  24
BRANCH  17  25
ATOM     25  C   UNL     1       4.874   4.411  15.640  0.00  0.00    +0.000 C 
BRANCH  25  26
ATOM     26  C   UNL     1       6.257   3.834  15.347  0.00  0.00    +0.000 C 
BRANCH  26  27
ATOM     27  C   UNL     1       6.805   4.478  14.082  0.00  0.00    +0.000 C 
ATOM     28  O   UNL     1       6.446   4.210  12.945  0.00  0.00    +0.000 OA
BRANCH  27  29
ATOM     29  O   UNL     1       7.747   5.414  14.330  0.00  0.00    +0.000 OA
ATOM     30  H   UNL     1       7.828   6.092  13.636  0.00  0.00    +0.000 HD
ENDBRANCH  27  29
ENDBRANCH  26  27
ENDBRANCH  25  26
ENDBRANCH  17  25
ENDBRANCH   1  17
TORSDOF 11
ENDMDL
MODEL 8
REMARK VINA RESULT:      -7.0      3.325      7.127
REMARK  Name = 
REMARK  12 active torsions:
REMARK  status: ('A' for Active; 'I' for Inactive)
REMARK    1  A    between atoms: C_1  and  C_2
REMARK    2  A    between atoms: C_7  and  C_8
REMARK    3  A    between atoms: C_8  and  C_9
REMARK    4  A    between atoms: C_8  and  O_14
REMARK    5  A    between atoms: C_9  and  C_10
REMARK    6  A    between atoms: C_10  and  C_11
REMARK    7  A    between atoms: C_11  and  O_13
REMARK    8  A    between atoms: O_14  and  C_15
REMARK    9  A    between atoms: C_17  and  O_18
REMARK   10  A    between atoms: O_18  and  C_19
REMARK   11  A    between atoms: C_19  and  C_20
REMARK   12  A    between atoms: C_27  and  C_28
REMARK                            x       y       z     vdW  Elec       q    Type
REMARK                         _______ _______ _______ _____ _____    ______ ____
ROOT
ATOM      1  O   UNL     1       4.040   5.298  17.362  0.00  0.00    +0.000 OA
ENDROOT
BRANCH   1   2
ATOM      2  C   UNL     1       3.215   4.980  18.421  0.00  0.00    +0.000 A 
ATOM      3  C   UNL     1       2.796   6.097  19.165  0.00  0.00    +0.000 A 
ATOM      4  C   UNL     1       1.856   5.963  20.193  0.00  0.00    +0.000 A 
ATOM      5  C   UNL     1       1.306   4.713  20.466  0.00  0.00    +0.000 A 
ATOM      6  C   UNL     1       1.773   3.588  19.798  0.00  0.00    +0.000 A 
ATOM      7  C   UNL     1       2.785   3.706  18.834  0.00  0.00    +0.000 A 
BRANCH   7   8
ATOM      8  C   UNL     1       3.399   2.474  18.435  0.00  0.00    +0.000 C 
ATOM      9  N   UNL     1       3.869   1.465  18.111  0.00  0.00    +0.000 NA
ENDBRANCH   7   8
BRANCH   4  10
ATOM     10  O   UNL     1       1.394   6.956  21.009  0.00  0.00    +0.000 OA
BRANCH  10  11
ATOM     11  C   UNL     1       1.727   8.294  20.657  0.00  0.00    +0.000 C 
BRANCH  11  12
ATOM     12  C   UNL     1       0.754   9.248  21.282  0.00  0.00    +0.000 A 
ATOM     13  C   UNL     1       0.411   9.291  22.673  0.00  0.00    +0.000 A 
ATOM     14  C   UNL     1      -0.484  10.298  22.965  0.00  0.00    +0.000 A 
ATOM     15  S   UNL     1      -0.941  11.175  21.572  0.00  0.00    +0.000 S 
ATOM     16  C   UNL     1       0.058  10.212  20.576  0.00  0.00    +0.000 A 
ENDBRANCH  11  12
ENDBRANCH  10  11
ENDBRANCH   4  10
ENDBRANCH   1   2
BRANCH   1  17
ATOM     17  C   UNL     1       5.440   4.984  17.476  0.00  0.00    +0.000 C 
BRANCH  17  24
ATOM     18  C   UNL     1       7.941   4.984  19.413  0.00  0.00    +0.000 C 
ATOM     19  C   UNL     1       7.501   6.171  18.604  0.00  0.00    +0.000 A 
ATOM     20  C   UNL     1       8.325   7.319  18.630  0.00  0.00    +0.000 A 
ATOM     21  C   UNL     1       8.005   8.469  17.907  0.00  0.00    +0.000 A 
ATOM     22  C   UNL     1       6.836   8.507  17.165  0.00  0.00    +0.000 A 
ATOM     23  C   UNL     1       6.014   7.383  17.125  0.00  0.00    +0.000 A 
ATOM     24  C   UNL     1       6.340   6.181  17.805  0.00  0.00    +0.000 A 
ENDBRANCH  17  24
BRANCH  17  25
ATOM     25  C   UNL     1       5.959   4.036  16.377  0.00  0.00    +0.000 C 
BRANCH  25  26
ATOM     26  C   UNL     1       5.469   4.250  14.948  0.00  0.00    +0.000 C 
BRANCH  26  27
ATOM     27  C   UNL     1       6.668   4.490  14.042  0.00  0.00    +0.000 C 
ATOM     28  O   UNL     1       6.823   3.992  12.937  0.00  0.00    +0.000 OA
BRANCH  27  29
ATOM     29  O   UNL     1       7.573   5.339  14.575  0.00  0.00    +0.000 OA
ATOM     30  H   UNL     1       8.212   5.696  13.932  0.00  0.00    +0.000 HD
ENDBRANCH  27  29
ENDBRANCH  26  27
ENDBRANCH  25  26
ENDBRANCH  17  25
ENDBRANCH   1  17
TORSDOF 11
ENDMDL
MODEL 9
REMARK VINA RESULT:      -7.0      3.029      7.023
REMARK  Name = 
REMARK  12 active torsions:
REMARK  status: ('A' for Active; 'I' for Inactive)
REMARK    1  A    between atoms: C_1  and  C_2
REMARK    2  A    between atoms: C_7  and  C_8
REMARK    3  A    between atoms: C_8  and  C_9
REMARK    4  A    between atoms: C_8  and  O_14
REMARK    5  A    between atoms: C_9  and  C_10
REMARK    6  A    between atoms: C_10  and  C_11
REMARK    7  A    between atoms: C_11  and  O_13
REMARK    8  A    between atoms: O_14  and  C_15
REMARK    9  A    between atoms: C_17  and  O_18
REMARK   10  A    between atoms: O_18  and  C_19
REMARK   11  A    between atoms: C_19  and  C_20
REMARK   12  A    between atoms: C_27  and  C_28
REMARK                            x       y       z     vdW  Elec       q    Type
REMARK                         _______ _______ _______ _____ _____    ______ ____
ROOT
ATOM      1  O   UNL     1       4.287   5.086  17.248  0.00  0.00    +0.000 OA
ENDROOT
BRANCH   1   2
ATOM      2  C   UNL     1       3.599   5.367  18.411  0.00  0.00    +0.000 A 
ATOM      3  C   UNL     1       3.086   6.674  18.460  0.00  0.00    +0.000 A 
ATOM      4  C   UNL     1       2.256   7.081  19.511  0.00  0.00    +0.000 A 
ATOM      5  C   UNL     1       1.910   6.171  20.507  0.00  0.00    +0.000 A 
ATOM      6  C   UNL     1       2.478   4.903  20.517  0.00  0.00    +0.000 A 
ATOM      7  C   UNL     1       3.385   4.526  19.518  0.00  0.00    +0.000 A 
BRANCH   7   8
ATOM      8  C   UNL     1       4.135   3.333  19.787  0.00  0.00    +0.000 C 
ATOM      9  N   UNL     1       4.719   2.353  19.992  0.00  0.00    +0.000 NA
ENDBRANCH   7   8
BRANCH   4  10
ATOM     10  O   UNL     1       1.722   8.324  19.695  0.00  0.00    +0.000 OA
BRANCH  10  11
ATOM     11  C   UNL     1       1.530   9.126  18.534  0.00  0.00    +0.000 C 
BRANCH  11  12
ATOM     12  C   UNL     1       0.419  10.106  18.765  0.00  0.00    +0.000 A 
ATOM     13  C   UNL     1      -0.863  10.074  18.125  0.00  0.00    +0.000 A 
ATOM     14  C   UNL     1      -1.697  11.081  18.561  0.00  0.00    +0.000 A 
ATOM     15  S   UNL     1      -0.938  12.087  19.715  0.00  0.00    +0.000 S 
ATOM     16  C   UNL     1       0.505  11.178  19.635  0.00  0.00    +0.000 A 
ENDBRANCH  11  12
ENDBRANCH  10  11
ENDBRANCH   4  10
ENDBRANCH   1   2
BRANCH   1  17
ATOM     17  C   UNL     1       5.705   4.851  17.341  0.00  0.00    +0.000 C 
BRANCH  17  24
ATOM     18  C   UNL     1       7.870   4.967  19.643  0.00  0.00    +0.000 C 
ATOM     19  C   UNL     1       7.552   6.114  18.727  0.00  0.00    +0.000 A 
ATOM     20  C   UNL     1       8.350   7.276  18.834  0.00  0.00    +0.000 A 
ATOM     21  C   UNL     1       8.137   8.390  18.023  0.00  0.00    +0.000 A 
ATOM     22  C   UNL     1       7.099   8.381  17.106  0.00  0.00    +0.000 A 
ATOM     23  C   UNL     1       6.304   7.243  16.985  0.00  0.00    +0.000 A 
ATOM     24  C   UNL     1       6.531   6.074  17.757  0.00  0.00    +0.000 A 
ENDBRANCH  17  24
BRANCH  17  25
ATOM     25  C   UNL     1       6.278   4.020  16.176  0.00  0.00    +0.000 C 
BRANCH  25  26
ATOM     26  C   UNL     1       5.659   4.193  14.792  0.00  0.00    +0.000 C 
BRANCH  26  27
ATOM     27  C   UNL     1       6.761   4.513  13.792  0.00  0.00    +0.000 C 
ATOM     28  O   UNL     1       6.859   4.025  12.676  0.00  0.00    +0.000 OA
BRANCH  27  29
ATOM     29  O   UNL     1       7.646   5.424  14.253  0.00  0.00    +0.000 OA
ATOM     30  H   UNL     1       8.416   5.559  13.674  0.00  0.00    +0.000 HD
ENDBRANCH  27  29
ENDBRANCH  26  27
ENDBRANCH  25  26
ENDBRANCH  17  25
ENDBRANCH   1  17
TORSDOF 11
ENDMDL
