MODEL 1
REMARK VINA RESULT:      -6.6      0.000      0.000
REMARK  Name = 
REMARK  11 active torsions:
REMARK  status: ('A' for Active; 'I' for Inactive)
REMARK    1  A    between atoms: C_1  and  C_2
REMARK    2  A    between atoms: C_2  and  C_3
REMARK    3  A    between atoms: C_3  and  N_4
REMARK    4  A    between atoms: C_11  and  C_12
REMARK    5  A    between atoms: C_12  and  C_13
REMARK    6  A    between atoms: C_13  and  N_14
REMARK    7  A    between atoms: N_14  and  C_15
REMARK    8  A    between atoms: N_14  and  C_16
REMARK    9  A    between atoms: C_16  and  C_17
REMARK   10  A    between atoms: C_17  and  C_18
REMARK   11  A    between atoms: C_21  and  C_22
REMARK                            x       y       z     vdW  Elec       q    Type
REMARK                         _______ _______ _______ _____ _____    ______ ____
ROOT
ATOM      1  N   UNL     1      -0.278  11.019  22.644  0.00  0.00    +0.000 NA
ATOM      2  C   UNL     1      -0.176   9.545  22.773  0.00  0.00    +0.000 C 
ATOM      3  C   UNL     1      -0.214   8.745  21.453  0.00  0.00    +0.000 C 
ATOM      4  N   UNL     1       0.670   9.319  20.438  0.00  0.00    +0.000 N 
ATOM      5  C   UNL     1       1.484   8.511  19.716  0.00  0.00    +0.000 A 
ATOM      6  N   UNL     1       2.033   7.413  20.188  0.00  0.00    +0.000 NA
ATOM      7  C   UNL     1       2.873   6.844  19.252  0.00  0.00    +0.000 A 
ATOM      8  C   UNL     1       2.901   7.467  18.024  0.00  0.00    +0.000 A 
ATOM      9  S   UNL     1       1.869   8.828  18.057  0.00  0.00    +0.000 S 
ATOM     10  C   UNL     1       0.704  10.772  20.300  0.00  0.00    +0.000 C 
ATOM     11  C   UNL     1       0.773  11.450  21.689  0.00  0.00    +0.000 C 
ENDROOT
BRANCH   1  12
ATOM     12  C   UNL     1      -1.599  11.490  22.199  0.00  0.00    +0.000 C 
BRANCH  12  14
ATOM     13  C   UNL     1      -2.385  13.349  20.632  0.00  0.00    +0.000 C 
ATOM     14  C   UNL     1      -1.711  12.998  21.948  0.00  0.00    +0.000 C 
ENDBRANCH  12  14
ENDBRANCH   1  12
BRANCH   8  15
ATOM     15  C   UNL     1       3.703   7.142  16.804  0.00  0.00    +0.000 C 
BRANCH  15  16
ATOM     16  C   UNL     1       5.198   7.075  17.163  0.00  0.00    +0.000 C 
BRANCH  16  17
ATOM     17  N   UNL     1       6.020   6.176  16.323  0.00  0.00    +0.000 NA
ATOM     18  C   UNL     1       7.115   5.587  17.102  0.00  0.00    +0.000 C 
BRANCH  17  19
ATOM     19  C   UNL     1       5.184   5.083  15.759  0.00  0.00    +0.000 C 
BRANCH  19  20
ATOM     20  C   UNL     1       5.303   3.752  16.528  0.00  0.00    +0.000 C 
BRANCH  20  21
ATOM     21  C   UNL     1       4.225   3.583  17.570  0.00  0.00    +0.000 A 
ATOM     22  C   UNL     1       2.876   3.537  17.188  0.00  0.00    +0.000 A 
ATOM     23  C   UNL     1       1.875   3.345  18.143  0.00  0.00    +0.000 A 
ATOM     24  C   UNL     1       2.205   3.203  19.493  0.00  0.00    +0.000 A 
ATOM     25  C   UNL     1       1.139   2.988  20.528  0.00  0.00    +0.000 C 
ATOM     26  C   UNL     1       3.550   3.263  19.876  0.00  0.00    +0.000 A 
ATOM     27  C   UNL     1       4.553   3.456  18.924  0.00  0.00    +0.000 A 
ENDBRANCH  20  21
ENDBRANCH  19  20
ENDBRANCH  17  19
ENDBRANCH  16  17
ENDBRANCH  15  16
ENDBRANCH   8  15
TORSDOF 8
ENDMDL
MODEL 2
REMARK VINA RESULT:      -6.4      1.926      4.000
REMARK  Name = 
REMARK  11 active torsions:
REMARK  status: ('A' for Active; 'I' for Inactive)
REMARK    1  A    between atoms: C_1  and  C_2
REMARK    2  A    between atoms: C_2  and  C_3
REMARK    3  A    between atoms: C_3  and  N_4
REMARK    4  A    between atoms: C_11  and  C_12
REMARK    5  A    between atoms: C_12  and  C_13
REMARK    6  A    between atoms: C_13  and  N_14
REMARK    7  A    between atoms: N_14  and  C_15
REMARK    8  A    between atoms: N_14  and  C_16
REMARK    9  A    between atoms: C_16  and  C_17
REMARK   10  A    between atoms: C_17  and  C_18
REMARK   11  A    between atoms: C_21  and  C_22
REMARK                            x       y       z     vdW  Elec       q    Type
REMARK                         _______ _______ _______ _____ _____    ______ ____
ROOT
ATOM      1  N   UNL     1      -0.969  12.567  19.042  0.00  0.00    +0.000 NA
ATOM      2  C   UNL     1       0.287  12.331  18.290  0.00  0.00    +0.000 C 
ATOM      3  C   UNL     1       1.366  11.499  19.018  0.00  0.00    +0.000 C 
ATOM      4  N   UNL     1       0.806  10.298  19.639  0.00  0.00    +0.000 N 
ATOM      5  C   UNL     1       1.437   9.107  19.497  0.00  0.00    +0.000 A 
ATOM      6  N   UNL     1       2.109   8.758  18.423  0.00  0.00    +0.000 NA
ATOM      7  C   UNL     1       2.573   7.462  18.535  0.00  0.00    +0.000 A 
ATOM      8  C   UNL     1       2.324   6.846  19.741  0.00  0.00    +0.000 A 
ATOM      9  S   UNL     1       1.451   7.912  20.751  0.00  0.00    +0.000 S 
ATOM     10  C   UNL     1      -0.477  10.415  20.326  0.00  0.00    +0.000 C 
ATOM     11  C   UNL     1      -1.474  11.242  19.480  0.00  0.00    +0.000 C 
ENDROOT
BRANCH   1  12
ATOM     12  C   UNL     1      -0.814  13.465  20.198  0.00  0.00    +0.000 C 
BRANCH  12  14
ATOM     13  C   UNL     1      -3.080  14.422  20.890  0.00  0.00    +0.000 C 
ATOM     14  C   UNL     1      -1.966  13.440  21.209  0.00  0.00    +0.000 C 
ENDBRANCH  12  14
ENDBRANCH   1  12
BRANCH   8  15
ATOM     15  C   UNL     1       2.655   5.459  20.194  0.00  0.00    +0.000 C 
BRANCH  15  16
ATOM     16  C   UNL     1       1.535   4.490  19.775  0.00  0.00    +0.000 C 
BRANCH  16  17
ATOM     17  N   UNL     1       1.955   3.354  18.925  0.00  0.00    +0.000 NA
ATOM     18  C   UNL     1       0.856   2.396  18.752  0.00  0.00    +0.000 C 
BRANCH  17  19
ATOM     19  C   UNL     1       2.389   3.837  17.587  0.00  0.00    +0.000 C 
BRANCH  19  20
ATOM     20  C   UNL     1       3.823   3.415  17.212  0.00  0.00    +0.000 C 
BRANCH  20  21
ATOM     21  C   UNL     1       4.816   4.545  17.342  0.00  0.00    +0.000 A 
ATOM     22  C   UNL     1       5.771   4.528  18.369  0.00  0.00    +0.000 A 
ATOM     23  C   UNL     1       6.716   5.552  18.473  0.00  0.00    +0.000 A 
ATOM     24  C   UNL     1       6.716   6.610  17.560  0.00  0.00    +0.000 A 
ATOM     25  C   UNL     1       7.731   7.711  17.657  0.00  0.00    +0.000 C 
ATOM     26  C   UNL     1       5.754   6.632  16.544  0.00  0.00    +0.000 A 
ATOM     27  C   UNL     1       4.807   5.611  16.436  0.00  0.00    +0.000 A 
ENDBRANCH  20  21
ENDBRANCH  19  20
ENDBRANCH  17  19
ENDBRANCH  16  17
ENDBRANCH  15  16
ENDBRANCH   8  15
TORSDOF 8
ENDMDL
MODEL 3
REMARK VINA RESULT:      -6.3      0.873      1.477
REMARK  Name = 
REMARK  11 active torsions:
REMARK  status: ('A' for Active; 'I' for Inactive)
REMARK    1  A    between atoms: C_1  and  C_2
REMARK    2  A    between atoms: C_2  and  C_3
REMARK    3  A    between atoms: C_3  and  N_4
REMARK    4  A    between atoms: C_11  and  C_12
REMARK    5  A    between atoms: C_12  and  C_13
REMARK    6  A    between atoms: C_13  and  N_14
REMARK    7  A    between atoms: N_14  and  C_15
REMARK    8  A    between atoms: N_14  and  C_16
REMARK    9  A    between atoms: C_16  and  C_17
REMARK   10  A    between atoms: C_17  and  C_18
REMARK   11  A    between atoms: C_21  and  C_22
REMARK                            x       y       z     vdW  Elec       q    Type
REMARK                         _______ _______ _______ _____ _____    ______ ____
ROOT
ATOM      1  N   UNL     1      -0.387  11.726  22.162  0.00  0.00    +0.000 NA
ATOM      2  C   UNL     1      -0.348  10.270  22.441  0.00  0.00    +0.000 C 
ATOM      3  C   UNL     1      -0.348   9.343  21.206  0.00  0.00    +0.000 C 
ATOM      4  N   UNL     1       0.607   9.784  20.189  0.00  0.00    +0.000 N 
ATOM      5  C   UNL     1       1.426   8.882  19.595  0.00  0.00    +0.000 A 
ATOM      6  N   UNL     1       1.909   7.820  20.202  0.00  0.00    +0.000 NA
ATOM      7  C   UNL     1       2.773   7.133  19.374  0.00  0.00    +0.000 A 
ATOM      8  C   UNL     1       2.887   7.629  18.094  0.00  0.00    +0.000 A 
ATOM      9  S   UNL     1       1.906   9.019  17.937  0.00  0.00    +0.000 S 
ATOM     10  C   UNL     1       0.703  11.214  19.911  0.00  0.00    +0.000 C 
ATOM     11  C   UNL     1       0.725  12.025  21.228  0.00  0.00    +0.000 C 
ENDROOT
BRANCH   1  12
ATOM     12  C   UNL     1      -1.666  12.192  21.602  0.00  0.00    +0.000 C 
BRANCH  12  14
ATOM     13  C   UNL     1      -3.072  14.098  22.562  0.00  0.00    +0.000 C 
ATOM     14  C   UNL     1      -2.718  12.621  22.631  0.00  0.00    +0.000 C 
ENDBRANCH  12  14
ENDBRANCH   1  12
BRANCH   8  15
ATOM     15  C   UNL     1       3.738   7.157  16.957  0.00  0.00    +0.000 C 
BRANCH  15  16
ATOM     16  C   UNL     1       4.716   6.075  17.449  0.00  0.00    +0.000 C 
BRANCH  16  17
ATOM     17  N   UNL     1       5.213   5.143  16.414  0.00  0.00    +0.000 NA
ATOM     18  C   UNL     1       6.674   5.219  16.300  0.00  0.00    +0.000 C 
BRANCH  17  19
ATOM     19  C   UNL     1       4.826   3.745  16.743  0.00  0.00    +0.000 C 
BRANCH  19  20
ATOM     20  C   UNL     1       3.303   3.511  16.761  0.00  0.00    +0.000 C 
BRANCH  20  21
ATOM     21  C   UNL     1       2.772   3.239  18.148  0.00  0.00    +0.000 A 
ATOM     22  C   UNL     1       3.658   2.977  19.203  0.00  0.00    +0.000 A 
ATOM     23  C   UNL     1       3.176   2.759  20.495  0.00  0.00    +0.000 A 
ATOM     24  C   UNL     1       1.803   2.793  20.752  0.00  0.00    +0.000 A 
ATOM     25  C   UNL     1       1.273   2.569  22.138  0.00  0.00    +0.000 C 
ATOM     26  C   UNL     1       0.918   3.041  19.696  0.00  0.00    +0.000 A 
ATOM     27  C   UNL     1       1.396   3.258  18.402  0.00  0.00    +0.000 A 
ENDBRANCH  20  21
ENDBRANCH  19  20
ENDBRANCH  17  19
ENDBRANCH  16  17
ENDBRANCH  15  16
ENDBRANCH   8  15
TORSDOF 8
ENDMDL
MODEL 4
REMARK VINA RESULT:      -6.2      1.856      3.849
REMARK  Name = 
REMARK  11 active torsions:
REMARK  status: ('A' for Active; 'I' for Inactive)
REMARK    1  A    between atoms: C_1  and  C_2
REMARK    2  A    between atoms: C_2  and  C_3
REMARK    3  A    between atoms: C_3  and  N_4
REMARK    4  A    between atoms: C_11  and  C_12
REMARK    5  A    between atoms: C_12  and  C_13
REMARK    6  A    between atoms: C_13  and  N_14
REMARK    7  A    between atoms: N_14  and  C_15
REMARK    8  A    between atoms: N_14  and  C_16
REMARK    9  A    between atoms: C_16  and  C_17
REMARK   10  A    between atoms: C_17  and  C_18
REMARK   11  A    between atoms: C_21  and  C_22
REMARK                            x       y       z     vdW  Elec       q    Type
REMARK                         _______ _______ _______ _____ _____    ______ ____
ROOT
ATOM      1  N   UNL     1      -0.166  13.587  20.999  0.00  0.00    +0.000 NA
ATOM      2  C   UNL     1      -0.803  12.417  21.648  0.00  0.00    +0.000 C 
ATOM      3  C   UNL     1      -0.866  11.125  20.804  0.00  0.00    +0.000 C 
ATOM      4  N   UNL     1       0.413  10.828  20.159  0.00  0.00    +0.000 N 
ATOM      5  C   UNL     1       0.910   9.567  20.192  0.00  0.00    +0.000 A 
ATOM      6  N   UNL     1       0.737   8.738  21.198  0.00  0.00    +0.000 NA
ATOM      7  C   UNL     1       1.423   7.559  20.984  0.00  0.00    +0.000 A 
ATOM      8  C   UNL     1       2.058   7.456  19.767  0.00  0.00    +0.000 A 
ATOM      9  S   UNL     1       1.815   8.894  18.878  0.00  0.00    +0.000 S 
ATOM     10  C   UNL     1       1.158  11.936  19.570  0.00  0.00    +0.000 C 
ATOM     11  C   UNL     1       1.171  13.153  20.526  0.00  0.00    +0.000 C 
ENDROOT
BRANCH   1  12
ATOM     12  C   UNL     1      -0.946  14.151  19.885  0.00  0.00    +0.000 C 
BRANCH  12  14
ATOM     13  C   UNL     1      -0.301  16.316  18.690  0.00  0.00    +0.000 C 
ATOM     14  C   UNL     1      -1.041  15.681  19.856  0.00  0.00    +0.000 C 
ENDBRANCH  12  14
ENDBRANCH   1  12
BRANCH   8  15
ATOM     15  C   UNL     1       2.901   6.348  19.218  0.00  0.00    +0.000 C 
BRANCH  15  16
ATOM     16  C   UNL     1       2.016   5.134  18.883  0.00  0.00    +0.000 C 
BRANCH  16  17
ATOM     17  N   UNL     1       2.732   3.856  18.677  0.00  0.00    +0.000 NA
ATOM     18  C   UNL     1       1.942   2.726  19.180  0.00  0.00    +0.000 C 
BRANCH  17  19
ATOM     19  C   UNL     1       3.013   3.644  17.232  0.00  0.00    +0.000 C 
BRANCH  19  20
ATOM     20  C   UNL     1       4.502   3.394  16.920  0.00  0.00    +0.000 C 
BRANCH  20  21
ATOM     21  C   UNL     1       5.358   4.617  17.141  0.00  0.00    +0.000 A 
ATOM     22  C   UNL     1       6.437   4.569  18.035  0.00  0.00    +0.000 A 
ATOM     23  C   UNL     1       7.255   5.687  18.218  0.00  0.00    +0.000 A 
ATOM     24  C   UNL     1       7.004   6.869  17.517  0.00  0.00    +0.000 A 
ATOM     25  C   UNL     1       7.881   8.073  17.698  0.00  0.00    +0.000 C 
ATOM     26  C   UNL     1       5.919   6.920  16.634  0.00  0.00    +0.000 A 
ATOM     27  C   UNL     1       5.098   5.805  16.450  0.00  0.00    +0.000 A 
ENDBRANCH  20  21
ENDBRANCH  19  20
ENDBRANCH  17  19
ENDBRANCH  16  17
ENDBRANCH  15  16
ENDBRANCH   8  15
TORSDOF 8
ENDMDL
MODEL 5
REMARK VINA RESULT:      -6.2      2.098      4.103
REMARK  Name = 
REMARK  11 active torsions:
REMARK  status: ('A' for Active; 'I' for Inactive)
REMARK    1  A    between atoms: C_1  and  C_2
REMARK    2  A    between atoms: C_2  and  C_3
REMARK    3  A    between atoms: C_3  and  N_4
REMARK    4  A    between atoms: C_11  and  C_12
REMARK    5  A    between atoms: C_12  and  C_13
REMARK    6  A    between atoms: C_13  and  N_14
REMARK    7  A    between atoms: N_14  and  C_15
REMARK    8  A    between atoms: N_14  and  C_16
REMARK    9  A    between atoms: C_16  and  C_17
REMARK   10  A    between atoms: C_17  and  C_18
REMARK   11  A    between atoms: C_21  and  C_22
REMARK                            x       y       z     vdW  Elec       q    Type
REMARK                         _______ _______ _______ _____ _____    ______ ____
ROOT
ATOM      1  N   UNL     1      -1.257  12.943  19.169  0.00  0.00    +0.000 NA
ATOM      2  C   UNL     1      -0.047  12.721  18.341  0.00  0.00    +0.000 C 
ATOM      3  C   UNL     1       1.079  11.892  18.996  0.00  0.00    +0.000 C 
ATOM      4  N   UNL     1       0.566  10.683  19.642  0.00  0.00    +0.000 N 
ATOM      5  C   UNL     1       1.196   9.497  19.454  0.00  0.00    +0.000 A 
ATOM      6  N   UNL     1       1.803   9.160  18.337  0.00  0.00    +0.000 NA
ATOM      7  C   UNL     1       2.282   7.867  18.412  0.00  0.00    +0.000 A 
ATOM      8  C   UNL     1       2.110   7.241  19.626  0.00  0.00    +0.000 A 
ATOM      9  S   UNL     1       1.294   8.294  20.696  0.00  0.00    +0.000 S 
ATOM     10  C   UNL     1      -0.674  10.786  20.406  0.00  0.00    +0.000 C 
ATOM     11  C   UNL     1      -1.725  11.612  19.628  0.00  0.00    +0.000 C 
ENDROOT
BRANCH   1  12
ATOM     12  C   UNL     1      -1.038  13.834  20.320  0.00  0.00    +0.000 C 
BRANCH  12  14
ATOM     13  C   UNL     1       0.926  15.388  20.830  0.00  0.00    +0.000 C 
ATOM     14  C   UNL     1      -0.329  15.156  20.004  0.00  0.00    +0.000 C 
ENDBRANCH  12  14
ENDBRANCH   1  12
BRANCH   8  15
ATOM     15  C   UNL     1       2.477   5.853  20.049  0.00  0.00    +0.000 C 
BRANCH  15  16
ATOM     16  C   UNL     1       2.114   4.855  18.936  0.00  0.00    +0.000 C 
BRANCH  16  17
ATOM     17  N   UNL     1       2.410   3.435  19.227  0.00  0.00    +0.000 NA
ATOM     18  C   UNL     1       1.202   2.611  19.098  0.00  0.00    +0.000 C 
BRANCH  17  19
ATOM     19  C   UNL     1       3.448   2.917  18.297  0.00  0.00    +0.000 C 
BRANCH  19  20
ATOM     20  C   UNL     1       3.703   3.831  17.082  0.00  0.00    +0.000 C 
BRANCH  20  21
ATOM     21  C   UNL     1       4.800   4.837  17.329  0.00  0.00    +0.000 A 
ATOM     22  C   UNL     1       5.814   4.561  18.258  0.00  0.00    +0.000 A 
ATOM     23  C   UNL     1       6.851   5.472  18.466  0.00  0.00    +0.000 A 
ATOM     24  C   UNL     1       6.889   6.675  17.755  0.00  0.00    +0.000 A 
ATOM     25  C   UNL     1       8.003   7.658  17.964  0.00  0.00    +0.000 C 
ATOM     26  C   UNL     1       5.869   6.956  16.838  0.00  0.00    +0.000 A 
ATOM     27  C   UNL     1       4.830   6.048  16.628  0.00  0.00    +0.000 A 
ENDBRANCH  20  21
ENDBRANCH  19  20
ENDBRANCH  17  19
ENDBRANCH  16  17
ENDBRANCH  15  16
ENDBRANCH   8  15
TORSDOF 8
ENDMDL
MODEL 6
REMARK VINA RESULT:      -6.2      2.270      4.201
REMARK  Name = 
REMARK  11 active torsions:
REMARK  status: ('A' for Active; 'I' for Inactive)
REMARK    1  A    between atoms: C_1  and  C_2
REMARK    2  A    between atoms: C_2  and  C_3
REMARK    3  A    between atoms: C_3  and  N_4
REMARK    4  A    between atoms: C_11  and  C_12
REMARK    5  A    between atoms: C_12  and  C_13
REMARK    6  A    between atoms: C_13  and  N_14
REMARK    7  A    between atoms: N_14  and  C_15
REMARK    8  A    between atoms: N_14  and  C_16
REMARK    9  A    between atoms: C_16  and  C_17
REMARK   10  A    between atoms: C_17  and  C_18
REMARK   11  A    between atoms: C_21  and  C_22
REMARK                            x       y       z     vdW  Elec       q    Type
REMARK                         _______ _______ _______ _____ _____    ______ ____
ROOT
ATOM      1  N   UNL     1       0.691  14.569  19.848  0.00  0.00    +0.000 NA
ATOM      2  C   UNL     1      -0.030  13.603  20.713  0.00  0.00    +0.000 C 
ATOM      3  C   UNL     1      -0.380  12.245  20.066  0.00  0.00    +0.000 C 
ATOM      4  N   UNL     1       0.758  11.671  19.346  0.00  0.00    +0.000 N 
ATOM      5  C   UNL     1       1.066  10.360  19.505  0.00  0.00    +0.000 A 
ATOM      6  N   UNL     1       0.893   9.698  20.627  0.00  0.00    +0.000 NA
ATOM      7  C   UNL     1       1.370   8.408  20.513  0.00  0.00    +0.000 A 
ATOM      8  C   UNL     1       1.836   8.057  19.265  0.00  0.00    +0.000 A 
ATOM      9  S   UNL     1       1.702   9.397  18.214  0.00  0.00    +0.000 S 
ATOM     10  C   UNL     1       1.582  12.566  18.539  0.00  0.00    +0.000 C 
ATOM     11  C   UNL     1       1.885  13.872  19.311  0.00  0.00    +0.000 C 
ENDROOT
BRANCH   1  12
ATOM     12  C   UNL     1      -0.124  15.110  18.749  0.00  0.00    +0.000 C 
BRANCH  12  14
ATOM     13  C   UNL     1      -1.516  17.073  19.608  0.00  0.00    +0.000 C 
ATOM     14  C   UNL     1      -0.330  16.629  18.768  0.00  0.00    +0.000 C 
ENDBRANCH  12  14
ENDBRANCH   1  12
BRANCH   8  15
ATOM     15  C   UNL     1       2.437   6.770  18.795  0.00  0.00    +0.000 C 
BRANCH  15  16
ATOM     16  C   UNL     1       2.330   5.707  19.903  0.00  0.00    +0.000 C 
BRANCH  16  17
ATOM     17  N   UNL     1       2.570   4.311  19.476  0.00  0.00    +0.000 NA
ATOM     18  C   UNL     1       1.415   3.461  19.790  0.00  0.00    +0.000 C 
BRANCH  17  19
ATOM     19  C   UNL     1       2.831   4.250  18.013  0.00  0.00    +0.000 C 
BRANCH  19  20
ATOM     20  C   UNL     1       4.249   3.763  17.656  0.00  0.00    +0.000 C 
BRANCH  20  21
ATOM     21  C   UNL     1       5.266   4.877  17.658  0.00  0.00    +0.000 A 
ATOM     22  C   UNL     1       5.129   5.959  16.775  0.00  0.00    +0.000 A 
ATOM     23  C   UNL     1       6.047   7.011  16.796  0.00  0.00    +0.000 A 
ATOM     24  C   UNL     1       7.118   6.997  17.693  0.00  0.00    +0.000 A 
ATOM     25  C   UNL     1       8.106   8.126  17.731  0.00  0.00    +0.000 C 
ATOM     26  C   UNL     1       7.262   5.911  18.565  0.00  0.00    +0.000 A 
ATOM     27  C   UNL     1       6.347   4.856  18.546  0.00  0.00    +0.000 A 
ENDBRANCH  20  21
ENDBRANCH  19  20
ENDBRANCH  17  19
ENDBRANCH  16  17
ENDBRANCH  15  16
ENDBRANCH   8  15
TORSDOF 8
ENDMDL
MODEL 7
REMARK VINA RESULT:      -6.1      1.924      3.916
REMARK  Name = 
REMARK  11 active torsions:
REMARK  status: ('A' for Active; 'I' for Inactive)
REMARK    1  A    between atoms: C_1  and  C_2
REMARK    2  A    between atoms: C_2  and  C_3
REMARK    3  A    between atoms: C_3  and  N_4
REMARK    4  A    between atoms: C_11  and  C_12
REMARK    5  A    between atoms: C_12  and  C_13
REMARK    6  A    between atoms: C_13  and  N_14
REMARK    7  A    between atoms: N_14  and  C_15
REMARK    8  A    between atoms: N_14  and  C_16
REMARK    9  A    between atoms: C_16  and  C_17
REMARK   10  A    between atoms: C_17  and  C_18
REMARK   11  A    between atoms: C_21  and  C_22
REMARK                            x       y       z     vdW  Elec       q    Type
REMARK                         _______ _______ _______ _____ _____    ______ ____
ROOT
ATOM      1  N   UNL     1      -0.906  13.327  19.479  0.00  0.00    +0.000 NA
ATOM      2  C   UNL     1       0.236  13.019  18.585  0.00  0.00    +0.000 C 
ATOM      3  C   UNL     1       1.315  12.078  19.165  0.00  0.00    +0.000 C 
ATOM      4  N   UNL     1       0.729  10.904  19.813  0.00  0.00    +0.000 N 
ATOM      5  C   UNL     1       1.239   9.672  19.569  0.00  0.00    +0.000 A 
ATOM      6  N   UNL     1       1.758   9.309  18.417  0.00  0.00    +0.000 NA
ATOM      7  C   UNL     1       2.122   7.978  18.442  0.00  0.00    +0.000 A 
ATOM      8  C   UNL     1       1.956   7.341  19.651  0.00  0.00    +0.000 A 
ATOM      9  S   UNL     1       1.292   8.437  20.782  0.00  0.00    +0.000 S 
ATOM     10  C   UNL     1      -0.457  11.099  20.642  0.00  0.00    +0.000 C 
ATOM     11  C   UNL     1      -1.468  12.033  19.936  0.00  0.00    +0.000 C 
ENDROOT
BRANCH   1  12
ATOM     12  C   UNL     1      -0.551  14.168  20.634  0.00  0.00    +0.000 C 
BRANCH  12  14
ATOM     13  C   UNL     1      -1.244  14.310  23.090  0.00  0.00    +0.000 C 
ATOM     14  C   UNL     1      -1.682  14.419  21.638  0.00  0.00    +0.000 C 
ENDBRANCH  12  14
ENDBRANCH   1  12
BRANCH   8  15
ATOM     15  C   UNL     1       2.218   5.916  20.027  0.00  0.00    +0.000 C 
BRANCH  15  16
ATOM     16  C   UNL     1       2.270   5.043  18.762  0.00  0.00    +0.000 C 
BRANCH  16  17
ATOM     17  N   UNL     1       3.446   4.153  18.645  0.00  0.00    +0.000 NA
ATOM     18  C   UNL     1       3.359   3.042  19.601  0.00  0.00    +0.000 C 
BRANCH  17  19
ATOM     19  C   UNL     1       3.546   3.599  17.268  0.00  0.00    +0.000 C 
BRANCH  19  20
ATOM     20  C   UNL     1       4.990   3.517  16.736  0.00  0.00    +0.000 C 
BRANCH  20  21
ATOM     21  C   UNL     1       5.785   4.769  17.012  0.00  0.00    +0.000 A 
ATOM     22  C   UNL     1       5.284   6.021  16.624  0.00  0.00    +0.000 A 
ATOM     23  C   UNL     1       5.998   7.188  16.908  0.00  0.00    +0.000 A 
ATOM     24  C   UNL     1       7.223   7.122  17.577  0.00  0.00    +0.000 A 
ATOM     25  C   UNL     1       7.995   8.369  17.895  0.00  0.00    +0.000 C 
ATOM     26  C   UNL     1       7.728   5.871  17.952  0.00  0.00    +0.000 A 
ATOM     27  C   UNL     1       7.018   4.703  17.669  0.00  0.00    +0.000 A 
ENDBRANCH  20  21
ENDBRANCH  19  20
ENDBRANCH  17  19
ENDBRANCH  16  17
ENDBRANCH  15  16
ENDBRANCH   8  15
TORSDOF 8
ENDMDL
MODEL 8
REMARK VINA RESULT:      -6.0      2.297      4.186
REMARK  Name = 
REMARK  11 active torsions:
REMARK  status: ('A' for Active; 'I' for Inactive)
REMARK    1  A    between atoms: C_1  and  C_2
REMARK    2  A    between atoms: C_2  and  C_3
REMARK    3  A    between atoms: C_3  and  N_4
REMARK    4  A    between atoms: C_11  and  C_12
REMARK    5  A    between atoms: C_12  and  C_13
REMARK    6  A    between atoms: C_13  and  N_14
REMARK    7  A    between atoms: N_14  and  C_15
REMARK    8  A    between atoms: N_14  and  C_16
REMARK    9  A    between atoms: C_16  and  C_17
REMARK   10  A    between atoms: C_17  and  C_18
REMARK   11  A    between atoms: C_21  and  C_22
REMARK                            x       y       z     vdW  Elec       q    Type
REMARK                         _______ _______ _______ _____ _____    ______ ____
ROOT
ATOM      1  N   UNL     1       0.949  13.569  20.254  0.00  0.00    +0.000 NA
ATOM      2  C   UNL     1       0.393  12.471  21.081  0.00  0.00    +0.000 C 
ATOM      3  C   UNL     1      -0.004  11.186  20.322  0.00  0.00    +0.000 C 
ATOM      4  N   UNL     1       1.033  10.761  19.381  0.00  0.00    +0.000 N 
ATOM      5  C   UNL     1       1.403   9.458  19.326  0.00  0.00    +0.000 A 
ATOM      6  N   UNL     1       1.417   8.657  20.368  0.00  0.00    +0.000 NA
ATOM      7  C   UNL     1       1.913   7.415  20.024  0.00  0.00    +0.000 A 
ATOM      8  C   UNL     1       2.202   7.242  18.689  0.00  0.00    +0.000 A 
ATOM      9  S   UNL     1       1.873   8.692  17.846  0.00  0.00    +0.000 S 
ATOM     10  C   UNL     1       1.702  11.788  18.587  0.00  0.00    +0.000 C 
ATOM     11  C   UNL     1       2.073  13.003  19.469  0.00  0.00    +0.000 C 
ENDROOT
BRANCH   1  12
ATOM     12  C   UNL     1      -0.035  14.200  19.359  0.00  0.00    +0.000 C 
BRANCH  12  14
ATOM     13  C   UNL     1      -0.615  16.678  19.132  0.00  0.00    +0.000 C 
ATOM     14  C   UNL     1       0.367  15.568  18.797  0.00  0.00    +0.000 C 
ENDBRANCH  12  14
ENDBRANCH   1  12
BRANCH   8  15
ATOM     15  C   UNL     1       2.769   6.054  17.978  0.00  0.00    +0.000 C 
BRANCH  15  16
ATOM     16  C   UNL     1       2.305   4.760  18.671  0.00  0.00    +0.000 C 
BRANCH  16  17
ATOM     17  N   UNL     1       3.348   3.728  18.864  0.00  0.00    +0.000 NA
ATOM     18  C   UNL     1       3.627   3.024  17.607  0.00  0.00    +0.000 C 
BRANCH  17  19
ATOM     19  C   UNL     1       4.606   4.345  19.361  0.00  0.00    +0.000 C 
BRANCH  19  20
ATOM     20  C   UNL     1       5.775   4.263  18.360  0.00  0.00    +0.000 C 
BRANCH  20  21
ATOM     21  C   UNL     1       6.516   5.570  18.220  0.00  0.00    +0.000 A 
ATOM     22  C   UNL     1       6.045   6.557  17.342  0.00  0.00    +0.000 A 
ATOM     23  C   UNL     1       6.706   7.783  17.234  0.00  0.00    +0.000 A 
ATOM     24  C   UNL     1       7.849   8.039  17.995  0.00  0.00    +0.000 A 
ATOM     25  C   UNL     1       8.562   9.355  17.894  0.00  0.00    +0.000 C 
ATOM     26  C   UNL     1       8.326   7.049  18.862  0.00  0.00    +0.000 A 
ATOM     27  C   UNL     1       7.669   5.821  18.972  0.00  0.00    +0.000 A 
ENDBRANCH  20  21
ENDBRANCH  19  20
ENDBRANCH  17  19
ENDBRANCH  16  17
ENDBRANCH  15  16
ENDBRANCH   8  15
TORSDOF 8
ENDMDL
MODEL 9
REMARK VINA RESULT:      -5.8      2.130      4.112
REMARK  Name = 
REMARK  11 active torsions:
REMARK  status: ('A' for Active; 'I' for Inactive)
REMARK    1  A    between atoms: C_1  and  C_2
REMARK    2  A    between atoms: C_2  and  C_3
REMARK    3  A    between atoms: C_3  and  N_4
REMARK    4  A    between atoms: C_11  and  C_12
REMARK    5  A    between atoms: C_12  and  C_13
REMARK    6  A    between atoms: C_13  and  N_14
REMARK    7  A    between atoms: N_14  and  C_15
REMARK    8  A    between atoms: N_14  and  C_16
REMARK    9  A    between atoms: C_16  and  C_17
REMARK   10  A    between atoms: C_17  and  C_18
REMARK   11  A    between atoms: C_21  and  C_22
REMARK                            x       y       z     vdW  Elec       q    Type
REMARK                         _______ _______ _______ _____ _____    ______ ____
ROOT
ATOM      1  N   UNL     1      -1.446  13.398  19.533  0.00  0.00    +0.000 NA
ATOM      2  C   UNL     1      -0.285  13.264  18.620  0.00  0.00    +0.000 C 
ATOM      3  C   UNL     1       0.895  12.416  19.145  0.00  0.00    +0.000 C 
ATOM      4  N   UNL     1       0.445  11.153  19.731  0.00  0.00    +0.000 N 
ATOM      5  C   UNL     1       1.084   9.999  19.420  0.00  0.00    +0.000 A 
ATOM      6  N   UNL     1       1.629   9.756  18.248  0.00  0.00    +0.000 NA
ATOM      7  C   UNL     1       2.135   8.473  18.200  0.00  0.00    +0.000 A 
ATOM      8  C   UNL     1       2.050   7.758  19.374  0.00  0.00    +0.000 A 
ATOM      9  S   UNL     1       1.281   8.713  20.564  0.00  0.00    +0.000 S 
ATOM     10  C   UNL     1      -0.747  11.173  20.573  0.00  0.00    +0.000 C 
ATOM     11  C   UNL     1      -1.860  12.027  19.921  0.00  0.00    +0.000 C 
ENDROOT
BRANCH   1  12
ATOM     12  C   UNL     1      -1.174  14.210  20.730  0.00  0.00    +0.000 C 
BRANCH  12  14
ATOM     13  C   UNL     1      -1.441  16.620  19.923  0.00  0.00    +0.000 C 
ATOM     14  C   UNL     1      -1.964  15.519  20.831  0.00  0.00    +0.000 C 
ENDBRANCH  12  14
ENDBRANCH   1  12
BRANCH   8  15
ATOM     15  C   UNL     1       2.469   6.353  19.672  0.00  0.00    +0.000 C 
BRANCH  15  16
ATOM     16  C   UNL     1       1.385   5.651  20.509  0.00  0.00    +0.000 C 
BRANCH  16  17
ATOM     17  N   UNL     1       1.656   4.237  20.851  0.00  0.00    +0.000 NA
ATOM     18  C   UNL     1       0.917   3.333  19.962  0.00  0.00    +0.000 C 
BRANCH  17  19
ATOM     19  C   UNL     1       3.109   3.943  20.740  0.00  0.00    +0.000 C 
BRANCH  19  20
ATOM     20  C   UNL     1       3.453   2.925  19.635  0.00  0.00    +0.000 C 
BRANCH  20  21
ATOM     21  C   UNL     1       4.328   3.512  18.555  0.00  0.00    +0.000 A 
ATOM     22  C   UNL     1       5.492   4.217  18.896  0.00  0.00    +0.000 A 
ATOM     23  C   UNL     1       6.325   4.732  17.900  0.00  0.00    +0.000 A 
ATOM     24  C   UNL     1       6.007   4.557  16.551  0.00  0.00    +0.000 A 
ATOM     25  C   UNL     1       6.898   5.098  15.472  0.00  0.00    +0.000 C 
ATOM     26  C   UNL     1       4.838   3.864  16.212  0.00  0.00    +0.000 A 
ATOM     27  C   UNL     1       4.001   3.349  17.204  0.00  0.00    +0.000 A 
ENDBRANCH  20  21
ENDBRANCH  19  20
ENDBRANCH  17  19
ENDBRANCH  16  17
ENDBRANCH  15  16
ENDBRANCH   8  15
TORSDOF 8
ENDMDL
