MODEL 1
REMARK VINA RESULT:      -8.0      0.000      0.000
REMARK  Name = 
REMARK  9 active torsions:
REMARK  status: ('A' for Active; 'I' for Inactive)
REMARK    1  A    between atoms: C_1  and  C_2
REMARK    2  A    between atoms: C_2  and  N_3
REMARK    3  A    between atoms: N_3  and  C_4
REMARK    4  A    between atoms: C_4  and  C_5
REMARK    5  A    between atoms: C_6  and  C_8
REMARK    6  A    between atoms: C_11  and  C_12
REMARK    7  A    between atoms: C_15  and  N_16
REMARK    8  A    between atoms: N_16  and  C_17
REMARK    9  A    between atoms: C_20  and  O_21
REMARK                            x       y       z     vdW  Elec       q    Type
REMARK                         _______ _______ _______ _____ _____    ______ ____
ROOT
ATOM      1  C   UNL     1       8.012   6.286  18.059  0.00  0.00    +0.000 A 
ATOM      2  N   UNL     1       7.864   5.665  19.232  0.00  0.00    +0.000 NA
ATOM      3  N   UNL     1       6.595   5.500  19.614  0.00  0.00    +0.000 NA
ATOM      4  C   UNL     1       5.592   5.852  18.727  0.00  0.00    +0.000 A 
ATOM      5  C   UNL     1       5.851   6.103  17.344  0.00  0.00    +0.000 A 
ATOM      6  C   UNL     1       4.944   5.933  16.268  0.00  0.00    +0.000 A 
ATOM      7  C   UNL     1       4.913   4.701  15.639  0.00  0.00    +0.000 A 
ATOM      8  C   UNL     1       5.923   3.820  15.979  0.00  0.00    +0.000 A 
ATOM      9  C   UNL     1       7.062   4.344  16.650  0.00  0.00    +0.000 A 
ATOM     10  C   UNL     1       7.117   5.712  17.118  0.00  0.00    +0.000 A 
ENDROOT
BRANCH   1  14
ATOM     11  C   UNL     1       8.728  10.741  18.399  0.00  0.00    +0.000 A 
ATOM     12  C   UNL     1       7.900  10.182  17.432  0.00  0.00    +0.000 A 
ATOM     13  C   UNL     1       7.617   8.777  17.414  0.00  0.00    +0.000 A 
ATOM     14  C   UNL     1       8.168   7.826  18.321  0.00  0.00    +0.000 A 
ATOM     15  C   UNL     1       8.949   8.409  19.330  0.00  0.00    +0.000 A 
ATOM     16  C   UNL     1       9.217   9.820  19.361  0.00  0.00    +0.000 A 
BRANCH  11  18
ATOM     17  N   UNL     1       9.170  13.090  19.541  0.00  0.00    +0.000 N 
ATOM     18  C   UNL     1       9.270  12.176  18.454  0.00  0.00    +0.000 C 
ATOM     19  O   UNL     1       9.872  12.534  17.432  0.00  0.00    +0.000 OA
BRANCH  17  21
ATOM     20  C   UNL     1       9.486  12.528  21.944  0.00  0.00    +0.000 C 
ATOM     21  C   UNL     1       8.519  12.881  20.827  0.00  0.00    +0.000 C 
ENDBRANCH  17  21
BRANCH  17  22
ATOM     22  C   UNL     1       9.882  14.397  19.407  0.00  0.00    +0.000 C 
ATOM     23  C   UNL     1       9.004  15.582  19.001  0.00  0.00    +0.000 C 
ENDBRANCH  17  22
ENDBRANCH  11  18
ENDBRANCH   1  14
BRANCH   4  24
ATOM     24  N   UNL     1       4.288   5.835  19.267  0.00  0.00    +0.000 N 
ATOM     25  H   UNL     1       3.848   6.656  18.841  0.00  0.00    +0.000 HD
BRANCH  24  26
ATOM     26  C   UNL     1       3.471   4.709  19.041  0.00  0.00    +0.000 A 
ATOM     27  C   UNL     1       2.233   4.897  18.437  0.00  0.00    +0.000 A 
ATOM     28  C   UNL     1       1.378   3.810  18.254  0.00  0.00    +0.000 A 
ATOM     29  C   UNL     1       1.797   2.544  18.637  0.00  0.00    +0.000 A 
ATOM     30  C   UNL     1       3.065   2.332  19.168  0.00  0.00    +0.000 A 
ATOM     31  C   UNL     1       3.907   3.419  19.358  0.00  0.00    +0.000 A 
BRANCH  29  32
ATOM     32  O   UNL     1       1.003   1.463  18.487  0.00  0.00    +0.000 OA
ATOM     33  H   UNL     1       0.849   1.063  19.356  0.00  0.00    +0.000 HD
ENDBRANCH  29  32
ENDBRANCH  24  26
ENDBRANCH   4  24
TORSDOF 7
ENDMDL
MODEL 2
REMARK VINA RESULT:      -7.9      0.938      1.321
REMARK  Name = 
REMARK  9 active torsions:
REMARK  status: ('A' for Active; 'I' for Inactive)
REMARK    1  A    between atoms: C_1  and  C_2
REMARK    2  A    between atoms: C_2  and  N_3
REMARK    3  A    between atoms: N_3  and  C_4
REMARK    4  A    between atoms: C_4  and  C_5
REMARK    5  A    between atoms: C_6  and  C_8
REMARK    6  A    between atoms: C_11  and  C_12
REMARK    7  A    between atoms: C_15  and  N_16
REMARK    8  A    between atoms: N_16  and  C_17
REMARK    9  A    between atoms: C_20  and  O_21
REMARK                            x       y       z     vdW  Elec       q    Type
REMARK                         _______ _______ _______ _____ _____    ______ ____
ROOT
ATOM      1  C   UNL     1       7.981   6.246  18.028  0.00  0.00    +0.000 A 
ATOM      2  N   UNL     1       7.772   5.617  19.188  0.00  0.00    +0.000 NA
ATOM      3  N   UNL     1       6.485   5.484  19.520  0.00  0.00    +0.000 NA
ATOM      4  C   UNL     1       5.526   5.872  18.599  0.00  0.00    +0.000 A 
ATOM      5  C   UNL     1       5.845   6.130  17.230  0.00  0.00    +0.000 A 
ATOM      6  C   UNL     1       4.975   5.995  16.119  0.00  0.00    +0.000 A 
ATOM      7  C   UNL     1       4.935   4.770  15.476  0.00  0.00    +0.000 A 
ATOM      8  C   UNL     1       5.907   3.858  15.845  0.00  0.00    +0.000 A 
ATOM      9  C   UNL     1       7.033   4.344  16.564  0.00  0.00    +0.000 A 
ATOM     10  C   UNL     1       7.107   5.706  17.049  0.00  0.00    +0.000 A 
ENDROOT
BRANCH   1  14
ATOM     11  C   UNL     1       8.813  10.674  18.449  0.00  0.00    +0.000 A 
ATOM     12  C   UNL     1       8.026  10.148  17.430  0.00  0.00    +0.000 A 
ATOM     13  C   UNL     1       7.701   8.752  17.383  0.00  0.00    +0.000 A 
ATOM     14  C   UNL     1       8.168   7.778  18.312  0.00  0.00    +0.000 A 
ATOM     15  C   UNL     1       8.906   8.329  19.371  0.00  0.00    +0.000 A 
ATOM     16  C   UNL     1       9.216   9.731  19.430  0.00  0.00    +0.000 A 
BRANCH  11  18
ATOM     17  N   UNL     1       8.802  13.297  18.076  0.00  0.00    +0.000 N 
ATOM     18  C   UNL     1       9.395  12.091  18.548  0.00  0.00    +0.000 C 
ATOM     19  O   UNL     1      10.488  12.154  19.126  0.00  0.00    +0.000 OA
BRANCH  17  21
ATOM     20  C   UNL     1       6.678  14.583  17.931  0.00  0.00    +0.000 C 
ATOM     21  C   UNL     1       7.533  13.456  17.379  0.00  0.00    +0.000 C 
ENDBRANCH  17  21
BRANCH  17  22
ATOM     22  C   UNL     1       9.505  14.576  18.393  0.00  0.00    +0.000 C 
ATOM     23  C   UNL     1      10.560  15.013  17.376  0.00  0.00    +0.000 C 
ENDBRANCH  17  22
ENDBRANCH  11  18
ENDBRANCH   1  14
BRANCH   4  24
ATOM     24  N   UNL     1       4.202   5.886  19.089  0.00  0.00    +0.000 N 
ATOM     25  H   UNL     1       3.774   6.668  18.584  0.00  0.00    +0.000 HD
BRANCH  24  26
ATOM     26  C   UNL     1       3.401   4.739  18.921  0.00  0.00    +0.000 A 
ATOM     27  C   UNL     1       2.171   4.876  18.288  0.00  0.00    +0.000 A 
ATOM     28  C   UNL     1       1.329   3.769  18.160  0.00  0.00    +0.000 A 
ATOM     29  C   UNL     1       1.757   2.534  18.625  0.00  0.00    +0.000 A 
ATOM     30  C   UNL     1       3.019   2.370  19.187  0.00  0.00    +0.000 A 
ATOM     31  C   UNL     1       3.846   3.475  19.322  0.00  0.00    +0.000 A 
BRANCH  29  32
ATOM     32  O   UNL     1       0.976   1.437  18.530  0.00  0.00    +0.000 OA
ATOM     33  H   UNL     1       0.070   1.674  18.779  0.00  0.00    +0.000 HD
ENDBRANCH  29  32
ENDBRANCH  24  26
ENDBRANCH   4  24
TORSDOF 7
ENDMDL
MODEL 3
REMARK VINA RESULT:      -7.9      6.844     10.070
REMARK  Name = 
REMARK  9 active torsions:
REMARK  status: ('A' for Active; 'I' for Inactive)
REMARK    1  A    between atoms: C_1  and  C_2
REMARK    2  A    between atoms: C_2  and  N_3
REMARK    3  A    between atoms: N_3  and  C_4
REMARK    4  A    between atoms: C_4  and  C_5
REMARK    5  A    between atoms: C_6  and  C_8
REMARK    6  A    between atoms: C_11  and  C_12
REMARK    7  A    between atoms: C_15  and  N_16
REMARK    8  A    between atoms: N_16  and  C_17
REMARK    9  A    between atoms: C_20  and  O_21
REMARK                            x       y       z     vdW  Elec       q    Type
REMARK                         _______ _______ _______ _____ _____    ______ ____
ROOT
ATOM      1  C   UNL     1       1.196  11.571  19.842  0.00  0.00    +0.000 A 
ATOM      2  N   UNL     1       0.779  12.294  18.800  0.00  0.00    +0.000 NA
ATOM      3  N   UNL     1      -0.549  12.363  18.671  0.00  0.00    +0.000 NA
ATOM      4  C   UNL     1      -1.334  11.814  19.670  0.00  0.00    +0.000 A 
ATOM      5  C   UNL     1      -0.800  11.446  20.944  0.00  0.00    +0.000 A 
ATOM      6  C   UNL     1      -1.501  11.404  22.175  0.00  0.00    +0.000 A 
ATOM      7  C   UNL     1      -1.517  12.551  22.948  0.00  0.00    +0.000 A 
ATOM      8  C   UNL     1      -0.668  13.566  22.547  0.00  0.00    +0.000 A 
ATOM      9  C   UNL     1       0.365  13.240  21.626  0.00  0.00    +0.000 A 
ATOM     10  C   UNL     1       0.447  11.943  20.990  0.00  0.00    +0.000 A 
ENDROOT
BRANCH   1  14
ATOM     11  C   UNL     1       2.297   7.327  18.724  0.00  0.00    +0.000 A 
ATOM     12  C   UNL     1       1.932   7.696  20.014  0.00  0.00    +0.000 A 
ATOM     13  C   UNL     1       1.493   9.028  20.313  0.00  0.00    +0.000 A 
ATOM     14  C   UNL     1       1.430  10.093  19.368  0.00  0.00    +0.000 A 
ATOM     15  C   UNL     1       1.739   9.693  18.059  0.00  0.00    +0.000 A 
ATOM     16  C   UNL     1       2.159   8.354  17.755  0.00  0.00    +0.000 A 
BRANCH  11  18
ATOM     17  N   UNL     1       2.514   4.691  18.575  0.00  0.00    +0.000 N 
ATOM     18  C   UNL     1       2.951   6.012  18.275  0.00  0.00    +0.000 C 
ATOM     19  O   UNL     1       3.950   6.159  17.558  0.00  0.00    +0.000 OA
BRANCH  17  21
ATOM     20  C   UNL     1       1.714   4.092  20.853  0.00  0.00    +0.000 C 
ATOM     21  C   UNL     1       1.373   4.289  19.386  0.00  0.00    +0.000 C 
ENDBRANCH  17  21
BRANCH  17  22
ATOM     22  C   UNL     1       3.246   3.563  17.924  0.00  0.00    +0.000 C 
ATOM     23  C   UNL     1       2.442   2.273  17.754  0.00  0.00    +0.000 C 
ENDBRANCH  17  22
ENDBRANCH  11  18
ENDBRANCH   1  14
BRANCH   4  24
ATOM     24  N   UNL     1      -2.714  11.750  19.375  0.00  0.00    +0.000 N 
ATOM     25  H   UNL     1      -3.021  12.721  19.486  0.00  0.00    +0.000 HD
BRANCH  24  26
ATOM     26  C   UNL     1      -3.120  11.282  18.109  0.00  0.00    +0.000 A 
ATOM     27  C   UNL     1      -2.402  10.246  17.523  0.00  0.00    +0.000 A 
ATOM     28  C   UNL     1      -2.743   9.802  16.245  0.00  0.00    +0.000 A 
ATOM     29  C   UNL     1      -3.829  10.372  15.595  0.00  0.00    +0.000 A 
ATOM     30  C   UNL     1      -4.603  11.353  16.206  0.00  0.00    +0.000 A 
ATOM     31  C   UNL     1      -4.252  11.798  17.472  0.00  0.00    +0.000 A 
BRANCH  29  32
ATOM     32  O   UNL     1      -4.192   9.982  14.356  0.00  0.00    +0.000 OA
ATOM     33  H   UNL     1      -4.725   9.176  14.424  0.00  0.00    +0.000 HD
ENDBRANCH  29  32
ENDBRANCH  24  26
ENDBRANCH   4  24
TORSDOF 7
ENDMDL
MODEL 4
REMARK VINA RESULT:      -7.8      0.930      1.106
REMARK  Name = 
REMARK  9 active torsions:
REMARK  status: ('A' for Active; 'I' for Inactive)
REMARK    1  A    between atoms: C_1  and  C_2
REMARK    2  A    between atoms: C_2  and  N_3
REMARK    3  A    between atoms: N_3  and  C_4
REMARK    4  A    between atoms: C_4  and  C_5
REMARK    5  A    between atoms: C_6  and  C_8
REMARK    6  A    between atoms: C_11  and  C_12
REMARK    7  A    between atoms: C_15  and  N_16
REMARK    8  A    between atoms: N_16  and  C_17
REMARK    9  A    between atoms: C_20  and  O_21
REMARK                            x       y       z     vdW  Elec       q    Type
REMARK                         _______ _______ _______ _____ _____    ______ ____
ROOT
ATOM      1  C   UNL     1       7.657   6.220  18.077  0.00  0.00    +0.000 A 
ATOM      2  N   UNL     1       7.019   5.759  19.156  0.00  0.00    +0.000 NA
ATOM      3  N   UNL     1       5.688   5.844  19.088  0.00  0.00    +0.000 NA
ATOM      4  C   UNL     1       5.116   6.258  17.897  0.00  0.00    +0.000 A 
ATOM      5  C   UNL     1       5.857   6.315  16.676  0.00  0.00    +0.000 A 
ATOM      6  C   UNL     1       5.337   6.181  15.364  0.00  0.00    +0.000 A 
ATOM      7  C   UNL     1       5.283   4.911  14.818  0.00  0.00    +0.000 A 
ATOM      8  C   UNL     1       5.940   3.919  15.522  0.00  0.00    +0.000 A 
ATOM      9  C   UNL     1       6.873   4.320  16.517  0.00  0.00    +0.000 A 
ATOM     10  C   UNL     1       7.028   5.703  16.914  0.00  0.00    +0.000 A 
ENDROOT
BRANCH   1  14
ATOM     11  C   UNL     1       8.935  10.553  18.330  0.00  0.00    +0.000 A 
ATOM     12  C   UNL     1       8.058  10.081  17.359  0.00  0.00    +0.000 A 
ATOM     13  C   UNL     1       7.597   8.724  17.368  0.00  0.00    +0.000 A 
ATOM     14  C   UNL     1       8.006   7.733  18.307  0.00  0.00    +0.000 A 
ATOM     15  C   UNL     1       8.838   8.236  19.318  0.00  0.00    +0.000 A 
ATOM     16  C   UNL     1       9.286   9.601  19.322  0.00  0.00    +0.000 A 
BRANCH  11  18
ATOM     17  N   UNL     1       9.587  12.892  19.389  0.00  0.00    +0.000 N 
ATOM     18  C   UNL     1       9.657  11.908  18.363  0.00  0.00    +0.000 C 
ATOM     19  O   UNL     1      10.385  12.122  17.384  0.00  0.00    +0.000 OA
BRANCH  17  21
ATOM     20  C   UNL     1       9.571  13.337  21.837  0.00  0.00    +0.000 C 
ATOM     21  C   UNL     1       8.808  12.848  20.619  0.00  0.00    +0.000 C 
ENDBRANCH  17  21
BRANCH  17  22
ATOM     22  C   UNL     1      10.475  14.086  19.256  0.00  0.00    +0.000 C 
ATOM     23  C   UNL     1       9.820  15.324  18.642  0.00  0.00    +0.000 C 
ENDBRANCH  17  22
ENDBRANCH  11  18
ENDBRANCH   1  14
BRANCH   4  24
ATOM     24  N   UNL     1       3.728   6.509  17.959  0.00  0.00    +0.000 N 
ATOM     25  H   UNL     1       3.474   6.657  16.978  0.00  0.00    +0.000 HD
BRANCH  24  26
ATOM     26  C   UNL     1       2.880   5.527  18.509  0.00  0.00    +0.000 A 
ATOM     27  C   UNL     1       2.637   4.374  17.772  0.00  0.00    +0.000 A 
ATOM     28  C   UNL     1       1.755   3.410  18.264  0.00  0.00    +0.000 A 
ATOM     29  C   UNL     1       1.170   3.597  19.508  0.00  0.00    +0.000 A 
ATOM     30  C   UNL     1       1.470   4.709  20.288  0.00  0.00    +0.000 A 
ATOM     31  C   UNL     1       2.338   5.668  19.790  0.00  0.00    +0.000 A 
BRANCH  29  32
ATOM     32  O   UNL     1       0.305   2.697  20.023  0.00  0.00    +0.000 OA
ATOM     33  H   UNL     1       0.012   2.103  19.316  0.00  0.00    +0.000 HD
ENDBRANCH  29  32
ENDBRANCH  24  26
ENDBRANCH   4  24
TORSDOF 7
ENDMDL
MODEL 5
REMARK VINA RESULT:      -7.8      1.065      1.811
REMARK  Name = 
REMARK  9 active torsions:
REMARK  status: ('A' for Active; 'I' for Inactive)
REMARK    1  A    between atoms: C_1  and  C_2
REMARK    2  A    between atoms: C_2  and  N_3
REMARK    3  A    between atoms: N_3  and  C_4
REMARK    4  A    between atoms: C_4  and  C_5
REMARK    5  A    between atoms: C_6  and  C_8
REMARK    6  A    between atoms: C_11  and  C_12
REMARK    7  A    between atoms: C_15  and  N_16
REMARK    8  A    between atoms: N_16  and  C_17
REMARK    9  A    between atoms: C_20  and  O_21
REMARK                            x       y       z     vdW  Elec       q    Type
REMARK                         _______ _______ _______ _____ _____    ______ ____
ROOT
ATOM      1  C   UNL     1       8.104   6.501  18.015  0.00  0.00    +0.000 A 
ATOM      2  N   UNL     1       8.085   5.808  19.157  0.00  0.00    +0.000 NA
ATOM      3  N   UNL     1       6.861   5.564  19.634  0.00  0.00    +0.000 NA
ATOM      4  C   UNL     1       5.771   5.919  18.858  0.00  0.00    +0.000 A 
ATOM      5  C   UNL     1       5.899   6.259  17.475  0.00  0.00    +0.000 A 
ATOM      6  C   UNL     1       4.909   6.108  16.472  0.00  0.00    +0.000 A 
ATOM      7  C   UNL     1       4.875   4.914  15.774  0.00  0.00    +0.000 A 
ATOM      8  C   UNL     1       5.946   4.062  15.975  0.00  0.00    +0.000 A 
ATOM      9  C   UNL     1       7.116   4.600  16.577  0.00  0.00    +0.000 A 
ATOM     10  C   UNL     1       7.155   5.941  17.121  0.00  0.00    +0.000 A 
ENDROOT
BRANCH   1  14
ATOM     11  C   UNL     1       8.733  10.943  18.604  0.00  0.00    +0.000 A 
ATOM     12  C   UNL     1       7.992  10.420  17.550  0.00  0.00    +0.000 A 
ATOM     13  C   UNL     1       7.730   9.014  17.449  0.00  0.00    +0.000 A 
ATOM     14  C   UNL     1       8.219   8.029  18.355  0.00  0.00    +0.000 A 
ATOM     15  C   UNL     1       8.908   8.574  19.449  0.00  0.00    +0.000 A 
ATOM     16  C   UNL     1       9.155   9.985  19.562  0.00  0.00    +0.000 A 
BRANCH  11  18
ATOM     17  N   UNL     1      10.493  12.901  18.305  0.00  0.00    +0.000 N 
ATOM     18  C   UNL     1       9.250  12.380  18.765  0.00  0.00    +0.000 C 
ATOM     19  O   UNL     1       8.464  13.143  19.343  0.00  0.00    +0.000 OA
BRANCH  17  21
ATOM     20  C   UNL     1      12.139  12.974  16.441  0.00  0.00    +0.000 C 
ATOM     21  C   UNL     1      11.555  12.191  17.604  0.00  0.00    +0.000 C 
ENDBRANCH  17  21
BRANCH  17  22
ATOM     22  C   UNL     1      10.727  14.366  18.473  0.00  0.00    +0.000 C 
ATOM     23  C   UNL     1      11.648  14.753  19.631  0.00  0.00    +0.000 C 
ENDBRANCH  17  22
ENDBRANCH  11  18
ENDBRANCH   1  14
BRANCH   4  24
ATOM     24  N   UNL     1       4.520   5.811  19.503  0.00  0.00    +0.000 N 
ATOM     25  H   UNL     1       4.056   6.691  19.261  0.00  0.00    +0.000 HD
BRANCH  24  26
ATOM     26  C   UNL     1       3.670   4.737  19.169  0.00  0.00    +0.000 A 
ATOM     27  C   UNL     1       4.161   3.442  19.286  0.00  0.00    +0.000 A 
ATOM     28  C   UNL     1       3.362   2.362  18.906  0.00  0.00    +0.000 A 
ATOM     29  C   UNL     1       2.070   2.596  18.460  0.00  0.00    +0.000 A 
ATOM     30  C   UNL     1       1.542   3.882  18.416  0.00  0.00    +0.000 A 
ATOM     31  C   UNL     1       2.343   4.953  18.784  0.00  0.00    +0.000 A 
BRANCH  29  32
ATOM     32  O   UNL     1       1.263   1.585  18.074  0.00  0.00    +0.000 OA
ATOM     33  H   UNL     1       0.560   1.475  18.731  0.00  0.00    +0.000 HD
ENDBRANCH  29  32
ENDBRANCH  24  26
ENDBRANCH   4  24
TORSDOF 7
ENDMDL
MODEL 6
REMARK VINA RESULT:      -7.8      7.299     10.401
REMARK  Name = 
REMARK  9 active torsions:
REMARK  status: ('A' for Active; 'I' for Inactive)
REMARK    1  A    between atoms: C_1  and  C_2
REMARK    2  A    between atoms: C_2  and  N_3
REMARK    3  A    between atoms: N_3  and  C_4
REMARK    4  A    between atoms: C_4  and  C_5
REMARK    5  A    between atoms: C_6  and  C_8
REMARK    6  A    between atoms: C_11  and  C_12
REMARK    7  A    between atoms: C_15  and  N_16
REMARK    8  A    between atoms: N_16  and  C_17
REMARK    9  A    between atoms: C_20  and  O_21
REMARK                            x       y       z     vdW  Elec       q    Type
REMARK                         _______ _______ _______ _____ _____    ______ ____
ROOT
ATOM      1  C   UNL     1       0.231  10.554  18.662  0.00  0.00    +0.000 A 
ATOM      2  N   UNL     1      -0.933  10.224  19.230  0.00  0.00    +0.000 NA
ATOM      3  N   UNL     1      -1.065  10.632  20.494  0.00  0.00    +0.000 NA
ATOM      4  C   UNL     1      -0.079  11.445  21.028  0.00  0.00    +0.000 A 
ATOM      5  C   UNL     1       0.902  12.090  20.212  0.00  0.00    +0.000 A 
ATOM      6  C   UNL     1       1.576  13.303  20.499  0.00  0.00    +0.000 A 
ATOM      7  C   UNL     1       1.000  14.481  20.059  0.00  0.00    +0.000 A 
ATOM      8  C   UNL     1      -0.071  14.348  19.194  0.00  0.00    +0.000 A 
ATOM      9  C   UNL     1      -0.267  13.084  18.573  0.00  0.00    +0.000 A 
ATOM     10  C   UNL     1       0.508  11.918  18.939  0.00  0.00    +0.000 A 
ENDROOT
BRANCH   1  14
ATOM     11  C   UNL     1       2.896   6.907  18.926  0.00  0.00    +0.000 A 
ATOM     12  C   UNL     1       2.876   7.748  17.819  0.00  0.00    +0.000 A 
ATOM     13  C   UNL     1       2.093   8.949  17.808  0.00  0.00    +0.000 A 
ATOM     14  C   UNL     1       1.245   9.375  18.871  0.00  0.00    +0.000 A 
ATOM     15  C   UNL     1       1.324   8.555  20.006  0.00  0.00    +0.000 A 
ATOM     16  C   UNL     1       2.123   7.361  20.026  0.00  0.00    +0.000 A 
BRANCH  11  18
ATOM     17  N   UNL     1       2.848   4.269  19.166  0.00  0.00    +0.000 N 
ATOM     18  C   UNL     1       3.529   5.513  19.034  0.00  0.00    +0.000 C 
ATOM     19  O   UNL     1       4.766   5.508  18.973  0.00  0.00    +0.000 OA
BRANCH  17  21
ATOM     20  C   UNL     1       0.985   3.334  20.525  0.00  0.00    +0.000 C 
ATOM     21  C   UNL     1       1.411   4.042  19.251  0.00  0.00    +0.000 C 
ENDBRANCH  17  21
BRANCH  17  22
ATOM     22  C   UNL     1       3.675   3.027  19.133  0.00  0.00    +0.000 C 
ATOM     23  C   UNL     1       3.483   2.145  17.897  0.00  0.00    +0.000 C 
ENDBRANCH  17  22
ENDBRANCH  11  18
ENDBRANCH   1  14
BRANCH   4  24
ATOM     24  N   UNL     1      -0.186  11.676  22.417  0.00  0.00    +0.000 N 
ATOM     25  H   UNL     1       0.674  12.187  22.635  0.00  0.00    +0.000 HD
BRANCH  24  26
ATOM     26  C   UNL     1      -1.289  12.405  22.905  0.00  0.00    +0.000 A 
ATOM     27  C   UNL     1      -1.208  13.792  22.929  0.00  0.00    +0.000 A 
ATOM     28  C   UNL     1      -2.261  14.539  23.462  0.00  0.00    +0.000 A 
ATOM     29  C   UNL     1      -3.396  13.884  23.917  0.00  0.00    +0.000 A 
ATOM     30  C   UNL     1      -3.519  12.501  23.823  0.00  0.00    +0.000 A 
ATOM     31  C   UNL     1      -2.466  11.764  23.303  0.00  0.00    +0.000 A 
BRANCH  29  32
ATOM     32  O   UNL     1      -4.435  14.562  24.447  0.00  0.00    +0.000 OA
ATOM     33  H   UNL     1      -5.250  14.288  24.001  0.00  0.00    +0.000 HD
ENDBRANCH  29  32
ENDBRANCH  24  26
ENDBRANCH   4  24
TORSDOF 7
ENDMDL
MODEL 7
REMARK VINA RESULT:      -7.7      1.295      1.686
REMARK  Name = 
REMARK  9 active torsions:
REMARK  status: ('A' for Active; 'I' for Inactive)
REMARK    1  A    between atoms: C_1  and  C_2
REMARK    2  A    between atoms: C_2  and  N_3
REMARK    3  A    between atoms: N_3  and  C_4
REMARK    4  A    between atoms: C_4  and  C_5
REMARK    5  A    between atoms: C_6  and  C_8
REMARK    6  A    between atoms: C_11  and  C_12
REMARK    7  A    between atoms: C_15  and  N_16
REMARK    8  A    between atoms: N_16  and  C_17
REMARK    9  A    between atoms: C_20  and  O_21
REMARK                            x       y       z     vdW  Elec       q    Type
REMARK                         _______ _______ _______ _____ _____    ______ ____
ROOT
ATOM      1  C   UNL     1       7.611   6.124  18.062  0.00  0.00    +0.000 A 
ATOM      2  N   UNL     1       6.943   5.681  19.130  0.00  0.00    +0.000 NA
ATOM      3  N   UNL     1       5.614   5.762  19.023  0.00  0.00    +0.000 NA
ATOM      4  C   UNL     1       5.077   6.154  17.808  0.00  0.00    +0.000 A 
ATOM      5  C   UNL     1       5.852   6.192  16.608  0.00  0.00    +0.000 A 
ATOM      6  C   UNL     1       5.371   6.034  15.284  0.00  0.00    +0.000 A 
ATOM      7  C   UNL     1       5.335   4.755  14.759  0.00  0.00    +0.000 A 
ATOM      8  C   UNL     1       5.972   3.776  15.499  0.00  0.00    +0.000 A 
ATOM      9  C   UNL     1       6.876   4.196  16.514  0.00  0.00    +0.000 A 
ATOM     10  C   UNL     1       7.017   5.586  16.891  0.00  0.00    +0.000 A 
ENDROOT
BRANCH   1  14
ATOM     11  C   UNL     1       8.856  10.470  18.262  0.00  0.00    +0.000 A 
ATOM     12  C   UNL     1       7.964   9.984  17.313  0.00  0.00    +0.000 A 
ATOM     13  C   UNL     1       7.515   8.623  17.338  0.00  0.00    +0.000 A 
ATOM     14  C   UNL     1       7.951   7.642  18.275  0.00  0.00    +0.000 A 
ATOM     15  C   UNL     1       8.799   8.159  19.266  0.00  0.00    +0.000 A 
ATOM     16  C   UNL     1       9.235   9.527  19.253  0.00  0.00    +0.000 A 
BRANCH  11  18
ATOM     17  N   UNL     1       9.000  13.097  17.949  0.00  0.00    +0.000 N 
ATOM     18  C   UNL     1       9.566  11.831  18.272  0.00  0.00    +0.000 C 
ATOM     19  O   UNL     1      10.753  11.785  18.626  0.00  0.00    +0.000 OA
BRANCH  17  21
ATOM     20  C   UNL     1       7.214  14.820  17.769  0.00  0.00    +0.000 C 
ATOM     21  C   UNL     1       7.638  13.383  17.520  0.00  0.00    +0.000 C 
ENDBRANCH  17  21
BRANCH  17  22
ATOM     22  C   UNL     1       9.858  14.303  18.147  0.00  0.00    +0.000 C 
ATOM     23  C   UNL     1      10.077  14.719  19.603  0.00  0.00    +0.000 C 
ENDBRANCH  17  22
ENDBRANCH  11  18
ENDBRANCH   1  14
BRANCH   4  24
ATOM     24  N   UNL     1       3.687   6.404  17.826  0.00  0.00    +0.000 N 
ATOM     25  H   UNL     1       3.438   6.407  16.832  0.00  0.00    +0.000 HD
BRANCH  24  26
ATOM     26  C   UNL     1       2.841   5.506  18.507  0.00  0.00    +0.000 A 
ATOM     27  C   UNL     1       2.363   5.867  19.761  0.00  0.00    +0.000 A 
ATOM     28  C   UNL     1       1.571   4.974  20.485  0.00  0.00    +0.000 A 
ATOM     29  C   UNL     1       1.233   3.754  19.918  0.00  0.00    +0.000 A 
ATOM     30  C   UNL     1       1.639   3.416  18.631  0.00  0.00    +0.000 A 
ATOM     31  C   UNL     1       2.435   4.303  17.921  0.00  0.00    +0.000 A 
BRANCH  29  32
ATOM     32  O   UNL     1       0.477   2.854  20.582  0.00  0.00    +0.000 OA
ATOM     33  H   UNL     1       0.421   3.116  21.513  0.00  0.00    +0.000 HD
ENDBRANCH  29  32
ENDBRANCH  24  26
ENDBRANCH   4  24
TORSDOF 7
ENDMDL
MODEL 8
REMARK VINA RESULT:      -7.5      7.534     10.497
REMARK  Name = 
REMARK  9 active torsions:
REMARK  status: ('A' for Active; 'I' for Inactive)
REMARK    1  A    between atoms: C_1  and  C_2
REMARK    2  A    between atoms: C_2  and  N_3
REMARK    3  A    between atoms: N_3  and  C_4
REMARK    4  A    between atoms: C_4  and  C_5
REMARK    5  A    between atoms: C_6  and  C_8
REMARK    6  A    between atoms: C_11  and  C_12
REMARK    7  A    between atoms: C_15  and  N_16
REMARK    8  A    between atoms: N_16  and  C_17
REMARK    9  A    between atoms: C_20  and  O_21
REMARK                            x       y       z     vdW  Elec       q    Type
REMARK                         _______ _______ _______ _____ _____    ______ ____
ROOT
ATOM      1  C   UNL     1       0.472  12.208  21.092  0.00  0.00    +0.000 A 
ATOM      2  N   UNL     1       0.334  13.084  20.092  0.00  0.00    +0.000 NA
ATOM      3  N   UNL     1      -0.922  13.238  19.663  0.00  0.00    +0.000 NA
ATOM      4  C   UNL     1      -1.936  12.604  20.360  0.00  0.00    +0.000 A 
ATOM      5  C   UNL     1      -1.734  12.045  21.660  0.00  0.00    +0.000 A 
ATOM      6  C   UNL     1      -2.713  11.878  22.671  0.00  0.00    +0.000 A 
ATOM      7  C   UNL     1      -2.894  12.913  23.571  0.00  0.00    +0.000 A 
ATOM      8  C   UNL     1      -1.953  13.926  23.529  0.00  0.00    +0.000 A 
ATOM      9  C   UNL     1      -0.734  13.670  22.844  0.00  0.00    +0.000 A 
ATOM     10  C   UNL     1      -0.525  12.465  22.069  0.00  0.00    +0.000 A 
ENDROOT
BRANCH   1  14
ATOM     11  C   UNL     1       1.807   8.157  19.582  0.00  0.00    +0.000 A 
ATOM     12  C   UNL     1       1.451   8.389  20.906  0.00  0.00    +0.000 A 
ATOM     13  C   UNL     1       0.938   9.659  21.330  0.00  0.00    +0.000 A 
ATOM     14  C   UNL     1       0.786  10.796  20.484  0.00  0.00    +0.000 A 
ATOM     15  C   UNL     1       1.085  10.532  19.139  0.00  0.00    +0.000 A 
ATOM     16  C   UNL     1       1.580   9.254  18.710  0.00  0.00    +0.000 A 
BRANCH  11  18
ATOM     17  N   UNL     1       2.449   5.589  19.474  0.00  0.00    +0.000 N 
ATOM     18  C   UNL     1       2.529   6.931  19.005  0.00  0.00    +0.000 C 
ATOM     19  O   UNL     1       3.230   7.173  18.013  0.00  0.00    +0.000 OA
BRANCH  17  21
ATOM     20  C   UNL     1       0.889   3.832  20.290  0.00  0.00    +0.000 C 
ATOM     21  C   UNL     1       1.689   5.083  20.609  0.00  0.00    +0.000 C 
ENDBRANCH  17  21
BRANCH  17  22
ATOM     22  C   UNL     1       3.152   4.541  18.675  0.00  0.00    +0.000 C 
ATOM     23  C   UNL     1       4.501   4.086  19.234  0.00  0.00    +0.000 C 
ENDBRANCH  17  22
ENDBRANCH  11  18
ENDBRANCH   1  14
BRANCH   4  24
ATOM     24  N   UNL     1      -3.204  12.652  19.740  0.00  0.00    +0.000 N 
ATOM     25  H   UNL     1      -3.350  13.654  19.584  0.00  0.00    +0.000 HD
BRANCH  24  26
ATOM     26  C   UNL     1      -3.395  11.966  18.524  0.00  0.00    +0.000 A 
ATOM     27  C   UNL     1      -2.326  11.259  17.986  0.00  0.00    +0.000 A 
ATOM     28  C   UNL     1      -2.467  10.619  16.754  0.00  0.00    +0.000 A 
ATOM     29  C   UNL     1      -3.693  10.660  16.104  0.00  0.00    +0.000 A 
ATOM     30  C   UNL     1      -4.791  11.297  16.672  0.00  0.00    +0.000 A 
ATOM     31  C   UNL     1      -4.642  11.940  17.892  0.00  0.00    +0.000 A 
BRANCH  29  32
ATOM     32  O   UNL     1      -3.876  10.063  14.907  0.00  0.00    +0.000 OA
ATOM     33  H   UNL     1      -4.618  10.488  14.454  0.00  0.00    +0.000 HD
ENDBRANCH  29  32
ENDBRANCH  24  26
ENDBRANCH   4  24
TORSDOF 7
ENDMDL
MODEL 9
REMARK VINA RESULT:      -7.4      6.641      9.607
REMARK  Name = 
REMARK  9 active torsions:
REMARK  status: ('A' for Active; 'I' for Inactive)
REMARK    1  A    between atoms: C_1  and  C_2
REMARK    2  A    between atoms: C_2  and  N_3
REMARK    3  A    between atoms: N_3  and  C_4
REMARK    4  A    between atoms: C_4  and  C_5
REMARK    5  A    between atoms: C_6  and  C_8
REMARK    6  A    between atoms: C_11  and  C_12
REMARK    7  A    between atoms: C_15  and  N_16
REMARK    8  A    between atoms: N_16  and  C_17
REMARK    9  A    between atoms: C_20  and  O_21
REMARK                            x       y       z     vdW  Elec       q    Type
REMARK                         _______ _______ _______ _____ _____    ______ ____
ROOT
ATOM      1  C   UNL     1       1.333  11.392  19.684  0.00  0.00    +0.000 A 
ATOM      2  N   UNL     1       0.899  12.127  18.657  0.00  0.00    +0.000 NA
ATOM      3  N   UNL     1      -0.430  12.213  18.563  0.00  0.00    +0.000 NA
ATOM      4  C   UNL     1      -1.197  11.667  19.579  0.00  0.00    +0.000 A 
ATOM      5  C   UNL     1      -0.635  11.284  20.836  0.00  0.00    +0.000 A 
ATOM      6  C   UNL     1      -1.305  11.243  22.085  0.00  0.00    +0.000 A 
ATOM      7  C   UNL     1      -1.287  12.385  22.865  0.00  0.00    +0.000 A 
ATOM      8  C   UNL     1      -0.435  13.392  22.448  0.00  0.00    +0.000 A 
ATOM      9  C   UNL     1       0.570  13.059  21.499  0.00  0.00    +0.000 A 
ATOM     10  C   UNL     1       0.619  11.766  20.853  0.00  0.00    +0.000 A 
ENDROOT
BRANCH   1  14
ATOM     11  C   UNL     1       2.359   7.146  18.499  0.00  0.00    +0.000 A 
ATOM     12  C   UNL     1       2.064   7.514  19.808  0.00  0.00    +0.000 A 
ATOM     13  C   UNL     1       1.647   8.847  20.133  0.00  0.00    +0.000 A 
ATOM     14  C   UNL     1       1.537   9.914  19.195  0.00  0.00    +0.000 A 
ATOM     15  C   UNL     1       1.773   9.516  17.870  0.00  0.00    +0.000 A 
ATOM     16  C   UNL     1       2.172   8.176  17.541  0.00  0.00    +0.000 A 
BRANCH  11  18
ATOM     17  N   UNL     1       4.150   5.680  17.213  0.00  0.00    +0.000 N 
ATOM     18  C   UNL     1       2.982   5.831  18.012  0.00  0.00    +0.000 C 
ATOM     19  O   UNL     1       2.389   4.813  18.395  0.00  0.00    +0.000 OA
BRANCH  17  21
ATOM     20  C   UNL     1       6.234   7.008  17.500  0.00  0.00    +0.000 C 
ATOM     21  C   UNL     1       4.998   6.728  16.662  0.00  0.00    +0.000 C 
ENDBRANCH  17  21
BRANCH  17  22
ATOM     22  C   UNL     1       4.635   4.289  16.963  0.00  0.00    +0.000 C 
ATOM     23  C   UNL     1       5.339   4.072  15.622  0.00  0.00    +0.000 C 
ENDBRANCH  17  22
ENDBRANCH  11  18
ENDBRANCH   1  14
BRANCH   4  24
ATOM     24  N   UNL     1      -2.584  11.623  19.319  0.00  0.00    +0.000 N 
ATOM     25  H   UNL     1      -2.878  12.595  19.453  0.00  0.00    +0.000 HD
BRANCH  24  26
ATOM     26  C   UNL     1      -3.028  11.181  18.056  0.00  0.00    +0.000 A 
ATOM     27  C   UNL     1      -2.371  10.110  17.460  0.00  0.00    +0.000 A 
ATOM     28  C   UNL     1      -2.750   9.689  16.184  0.00  0.00    +0.000 A 
ATOM     29  C   UNL     1      -3.811  10.316  15.548  0.00  0.00    +0.000 A 
ATOM     30  C   UNL     1      -4.526  11.335  16.170  0.00  0.00    +0.000 A 
ATOM     31  C   UNL     1      -4.139  11.757  17.433  0.00  0.00    +0.000 A 
BRANCH  29  32
ATOM     32  O   UNL     1      -4.208   9.949  14.312  0.00  0.00    +0.000 OA
ATOM     33  H   UNL     1      -3.918   9.040  14.145  0.00  0.00    +0.000 HD
ENDBRANCH  29  32
ENDBRANCH  24  26
ENDBRANCH   4  24
TORSDOF 7
ENDMDL
