MODEL 1
REMARK VINA RESULT:      -9.3      0.000      0.000
REMARK  Name = 
REMARK  7 active torsions:
REMARK  status: ('A' for Active; 'I' for Inactive)
REMARK    1  A    between atoms: S_2  and  N_4
REMARK    2  A    between atoms: S_2  and  C_28
REMARK    3  A    between atoms: N_4  and  C_5
REMARK    4  A    between atoms: C_8  and  C_9
REMARK    5  A    between atoms: C_9  and  C_10
REMARK    6  A    between atoms: C_10  and  N_11
REMARK    7  A    between atoms: C_14  and  C_15
REMARK                            x       y       z     vdW  Elec       q    Type
REMARK                         _______ _______ _______ _____ _____    ______ ____
ROOT
ATOM      1  C   UNL     1       1.180   9.665  20.054  0.00  0.00    +0.000 C 
ATOM      2  C   UNL     1       0.272   8.902  21.031  0.00  0.00    +0.000 C 
ATOM      3  C   UNL     1       0.912   7.604  21.527  0.00  0.00    +0.000 C 
ATOM      4  C   UNL     1       1.347   6.706  20.358  0.00  0.00    +0.000 C 
ATOM      5  C   UNL     1       2.300   7.473  19.444  0.00  0.00    +0.000 C 
ATOM      6  C   UNL     1       1.661   8.749  18.932  0.00  0.00    +0.000 C 
ENDROOT
BRANCH   1   7
ATOM      7  N   UNL     1       0.420  10.829  19.533  0.00  0.00    +0.000 NA
ATOM      8  H   UNL     1       0.523  10.972  18.528  0.00  0.00    +0.000 HD
BRANCH   7  10
ATOM      9  O   UNL     1       1.498  12.189  21.380  0.00  0.00    +0.000 OA
ATOM     10  S   UNL     1       0.476  12.311  20.365  0.00  0.00    +0.000 S 
ATOM     11  O   UNL     1       0.477  13.384  19.395  0.00  0.00    +0.000 OA
BRANCH  10  12
ATOM     12  C   UNL     1      -1.085  12.307  21.222  0.00  0.00    +0.000 A 
ATOM     13  C   UNL     1      -2.207  12.829  20.566  0.00  0.00    +0.000 A 
ATOM     14  C   UNL     1      -3.411  12.948  21.256  0.00  0.00    +0.000 A 
ATOM     15  C   UNL     1      -3.495  12.542  22.590  0.00  0.00    +0.000 A 
ATOM     16  C   UNL     1      -2.386  11.981  23.226  0.00  0.00    +0.000 A 
ATOM     17  C   UNL     1      -1.181  11.842  22.536  0.00  0.00    +0.000 A 
ENDBRANCH  10  12
ENDBRANCH   7  10
ENDBRANCH   1   7
BRANCH   4  18
ATOM     18  C   UNL     1       2.039   5.416  20.818  0.00  0.00    +0.000 C 
BRANCH  18  19
ATOM     19  C   UNL     1       1.223   4.145  20.576  0.00  0.00    +0.000 C 
BRANCH  19  20
ATOM     20  N   UNL     1       1.703   3.312  19.453  0.00  0.00    +0.000 NA
ATOM     21  C   UNL     1       1.790   4.099  18.213  0.00  0.00    +0.000 C 
ATOM     22  C   UNL     1       2.588   3.444  17.087  0.00  0.00    +0.000 C 
ATOM     23  C   UNL     1       3.946   2.896  17.534  0.00  0.00    +0.000 C 
ATOM     24  C   UNL     1       3.726   1.977  18.739  0.00  0.00    +0.000 C 
ATOM     25  C   UNL     1       2.949   2.648  19.867  0.00  0.00    +0.000 C 
BRANCH  23  26
ATOM     26  C   UNL     1       5.032   3.948  17.734  0.00  0.00    +0.000 A 
ATOM     27  C   UNL     1       5.349   4.505  18.988  0.00  0.00    +0.000 A 
ATOM     28  C   UNL     1       6.335   5.497  19.150  0.00  0.00    +0.000 A 
ATOM     29  C   UNL     1       7.045   5.964  18.055  0.00  0.00    +0.000 A 
ATOM     30  C   UNL     1       6.757   5.403  16.828  0.00  0.00    +0.000 A 
ATOM     31  C   UNL     1       5.784   4.422  16.659  0.00  0.00    +0.000 A 
ATOM     32  C   UNL     1       5.699   4.107  15.210  0.00  0.00    +0.000 C 
ATOM     33  C   UNL     1       7.010   4.735  14.741  0.00  0.00    +0.000 C 
ATOM     34  O   UNL     1       7.388   5.774  15.667  0.00  0.00    +0.000 OA
ENDBRANCH  23  26
ENDBRANCH  19  20
ENDBRANCH  18  19
ENDBRANCH   4  18
TORSDOF 7
ENDMDL
MODEL 2
REMARK VINA RESULT:      -9.1      1.598      1.981
REMARK  Name = 
REMARK  7 active torsions:
REMARK  status: ('A' for Active; 'I' for Inactive)
REMARK    1  A    between atoms: S_2  and  N_4
REMARK    2  A    between atoms: S_2  and  C_28
REMARK    3  A    between atoms: N_4  and  C_5
REMARK    4  A    between atoms: C_8  and  C_9
REMARK    5  A    between atoms: C_9  and  C_10
REMARK    6  A    between atoms: C_10  and  N_11
REMARK    7  A    between atoms: C_14  and  C_15
REMARK                            x       y       z     vdW  Elec       q    Type
REMARK                         _______ _______ _______ _____ _____    ______ ____
ROOT
ATOM      1  C   UNL     1       1.469   9.938  18.865  0.00  0.00    +0.000 C 
ATOM      2  C   UNL     1       0.534   9.455  19.986  0.00  0.00    +0.000 C 
ATOM      3  C   UNL     1       1.121   8.280  20.768  0.00  0.00    +0.000 C 
ATOM      4  C   UNL     1       1.514   7.122  19.838  0.00  0.00    +0.000 C 
ATOM      5  C   UNL     1       2.495   7.620  18.778  0.00  0.00    +0.000 C 
ATOM      6  C   UNL     1       1.907   8.771  17.984  0.00  0.00    +0.000 C 
ENDROOT
BRANCH   1   7
ATOM      7  N   UNL     1       0.756  10.982  18.088  0.00  0.00    +0.000 NA
ATOM      8  H   UNL     1       1.333  11.432  17.377  0.00  0.00    +0.000 HD
BRANCH   7  10
ATOM      9  O   UNL     1       0.008  11.931  20.315  0.00  0.00    +0.000 OA
ATOM     10  S   UNL     1      -0.208  12.124  18.900  0.00  0.00    +0.000 S 
ATOM     11  O   UNL     1      -0.034  13.410  18.260  0.00  0.00    +0.000 OA
BRANCH  10  12
ATOM     12  C   UNL     1      -1.850  11.525  18.556  0.00  0.00    +0.000 A 
ATOM     13  C   UNL     1      -1.999  10.479  17.638  0.00  0.00    +0.000 A 
ATOM     14  C   UNL     1      -3.278  10.074  17.262  0.00  0.00    +0.000 A 
ATOM     15  C   UNL     1      -4.399  10.704  17.805  0.00  0.00    +0.000 A 
ATOM     16  C   UNL     1      -4.245  11.717  18.755  0.00  0.00    +0.000 A 
ATOM     17  C   UNL     1      -2.967  12.117  19.150  0.00  0.00    +0.000 A 
ENDBRANCH  10  12
ENDBRANCH   7  10
ENDBRANCH   1   7
BRANCH   4  18
ATOM     18  C   UNL     1       2.154   5.943  20.584  0.00  0.00    +0.000 C 
BRANCH  18  19
ATOM     19  C   UNL     1       1.340   4.650  20.530  0.00  0.00    +0.000 C 
BRANCH  19  20
ATOM     20  N   UNL     1       1.816   3.665  19.536  0.00  0.00    +0.000 NA
ATOM     21  C   UNL     1       1.923   4.274  18.201  0.00  0.00    +0.000 C 
ATOM     22  C   UNL     1       2.721   3.461  17.182  0.00  0.00    +0.000 C 
ATOM     23  C   UNL     1       4.068   2.962  17.713  0.00  0.00    +0.000 C 
ATOM     24  C   UNL     1       3.826   2.220  19.030  0.00  0.00    +0.000 C 
ATOM     25  C   UNL     1       3.050   3.048  20.048  0.00  0.00    +0.000 C 
BRANCH  23  26
ATOM     26  C   UNL     1       5.166   4.017  17.778  0.00  0.00    +0.000 A 
ATOM     27  C   UNL     1       5.580   4.633  18.976  0.00  0.00    +0.000 A 
ATOM     28  C   UNL     1       6.576   5.628  19.013  0.00  0.00    +0.000 A 
ATOM     29  C   UNL     1       7.201   6.037  17.846  0.00  0.00    +0.000 A 
ATOM     30  C   UNL     1       6.819   5.420  16.673  0.00  0.00    +0.000 A 
ATOM     31  C   UNL     1       5.835   4.436  16.627  0.00  0.00    +0.000 A 
ATOM     32  C   UNL     1       5.639   4.052  15.206  0.00  0.00    +0.000 C 
ATOM     33  C   UNL     1       6.910   4.650  14.608  0.00  0.00    +0.000 C 
ATOM     34  O   UNL     1       7.359   5.731  15.451  0.00  0.00    +0.000 OA
ENDBRANCH  23  26
ENDBRANCH  19  20
ENDBRANCH  18  19
ENDBRANCH   4  18
TORSDOF 7
ENDMDL
MODEL 3
REMARK VINA RESULT:      -9.0      0.914      1.112
REMARK  Name = 
REMARK  7 active torsions:
REMARK  status: ('A' for Active; 'I' for Inactive)
REMARK    1  A    between atoms: S_2  and  N_4
REMARK    2  A    between atoms: S_2  and  C_28
REMARK    3  A    between atoms: N_4  and  C_5
REMARK    4  A    between atoms: C_8  and  C_9
REMARK    5  A    between atoms: C_9  and  C_10
REMARK    6  A    between atoms: C_10  and  N_11
REMARK    7  A    between atoms: C_14  and  C_15
REMARK                            x       y       z     vdW  Elec       q    Type
REMARK                         _______ _______ _______ _____ _____    ______ ____
ROOT
ATOM      1  C   UNL     1       1.307   9.967  19.174  0.00  0.00    +0.000 C 
ATOM      2  C   UNL     1       0.395   9.391  20.268  0.00  0.00    +0.000 C 
ATOM      3  C   UNL     1       1.010   8.174  20.959  0.00  0.00    +0.000 C 
ATOM      4  C   UNL     1       1.410   7.091  19.945  0.00  0.00    +0.000 C 
ATOM      5  C   UNL     1       2.369   7.679  18.912  0.00  0.00    +0.000 C 
ATOM      6  C   UNL     1       1.753   8.872  18.208  0.00  0.00    +0.000 C 
ENDROOT
BRANCH   1   7
ATOM      7  N   UNL     1       0.568  11.051  18.480  0.00  0.00    +0.000 NA
ATOM      8  H   UNL     1       0.824  11.162  17.499  0.00  0.00    +0.000 HD
BRANCH   7  10
ATOM      9  O   UNL     1       1.118  12.504  20.482  0.00  0.00    +0.000 OA
ATOM     10  S   UNL     1       0.388  12.564  19.236  0.00  0.00    +0.000 S 
ATOM     11  O   UNL     1       0.621  13.599  18.253  0.00  0.00    +0.000 OA
BRANCH  10  12
ATOM     12  C   UNL     1      -1.340  12.553  19.666  0.00  0.00    +0.000 A 
ATOM     13  C   UNL     1      -2.232  11.875  18.827  0.00  0.00    +0.000 A 
ATOM     14  C   UNL     1      -3.601  11.952  19.075  0.00  0.00    +0.000 A 
ATOM     15  C   UNL     1      -4.074  12.696  20.157  0.00  0.00    +0.000 A 
ATOM     16  C   UNL     1      -3.178  13.334  21.018  0.00  0.00    +0.000 A 
ATOM     17  C   UNL     1      -1.804  13.246  20.787  0.00  0.00    +0.000 A 
ENDBRANCH  10  12
ENDBRANCH   7  10
ENDBRANCH   1   7
BRANCH   4  18
ATOM     18  C   UNL     1       2.078   5.874  20.599  0.00  0.00    +0.000 C 
BRANCH  18  19
ATOM     19  C   UNL     1       1.262   4.584  20.506  0.00  0.00    +0.000 C 
BRANCH  19  20
ATOM     20  N   UNL     1       1.742   3.627  19.487  0.00  0.00    +0.000 NA
ATOM     21  C   UNL     1       1.867   4.274  18.172  0.00  0.00    +0.000 C 
ATOM     22  C   UNL     1       2.669   3.487  17.137  0.00  0.00    +0.000 C 
ATOM     23  C   UNL     1       4.007   2.963  17.665  0.00  0.00    +0.000 C 
ATOM     24  C   UNL     1       3.746   2.182  18.957  0.00  0.00    +0.000 C 
ATOM     25  C   UNL     1       2.966   2.985  19.992  0.00  0.00    +0.000 C 
BRANCH  23  26
ATOM     26  C   UNL     1       5.112   4.008  17.773  0.00  0.00    +0.000 A 
ATOM     27  C   UNL     1       5.488   4.616  18.987  0.00  0.00    +0.000 A 
ATOM     28  C   UNL     1       6.491   5.601  19.063  0.00  0.00    +0.000 A 
ATOM     29  C   UNL     1       7.161   6.008  17.921  0.00  0.00    +0.000 A 
ATOM     30  C   UNL     1       6.816   5.398  16.733  0.00  0.00    +0.000 A 
ATOM     31  C   UNL     1       5.825   4.423  16.648  0.00  0.00    +0.000 A 
ATOM     32  C   UNL     1       5.677   4.045  15.220  0.00  0.00    +0.000 C 
ATOM     33  C   UNL     1       6.974   4.633  14.669  0.00  0.00    +0.000 C 
ATOM     34  O   UNL     1       7.403   5.708  15.532  0.00  0.00    +0.000 OA
ENDBRANCH  23  26
ENDBRANCH  19  20
ENDBRANCH  18  19
ENDBRANCH   4  18
TORSDOF 7
ENDMDL
MODEL 4
REMARK VINA RESULT:      -8.9      1.593      2.221
REMARK  Name = 
REMARK  7 active torsions:
REMARK  status: ('A' for Active; 'I' for Inactive)
REMARK    1  A    between atoms: S_2  and  N_4
REMARK    2  A    between atoms: S_2  and  C_28
REMARK    3  A    between atoms: N_4  and  C_5
REMARK    4  A    between atoms: C_8  and  C_9
REMARK    5  A    between atoms: C_9  and  C_10
REMARK    6  A    between atoms: C_10  and  N_11
REMARK    7  A    between atoms: C_14  and  C_15
REMARK                            x       y       z     vdW  Elec       q    Type
REMARK                         _______ _______ _______ _____ _____    ______ ____
ROOT
ATOM      1  C   UNL     1       1.140   9.225  19.134  0.00  0.00    +0.000 C 
ATOM      2  C   UNL     1       2.209   8.346  18.466  0.00  0.00    +0.000 C 
ATOM      3  C   UNL     1       2.126   6.887  18.915  0.00  0.00    +0.000 C 
ATOM      4  C   UNL     1       2.183   6.762  20.445  0.00  0.00    +0.000 C 
ATOM      5  C   UNL     1       1.066   7.593  21.074  0.00  0.00    +0.000 C 
ATOM      6  C   UNL     1       1.159   9.046  20.649  0.00  0.00    +0.000 C 
ENDROOT
BRANCH   1   7
ATOM      7  N   UNL     1       1.388  10.634  18.739  0.00  0.00    +0.000 NA
ATOM      8  H   UNL     1       2.351  10.939  18.883  0.00  0.00    +0.000 HD
BRANCH   7  10
ATOM      9  O   UNL     1       0.095  11.710  20.633  0.00  0.00    +0.000 OA
ATOM     10  S   UNL     1       0.291  11.846  19.208  0.00  0.00    +0.000 S 
ATOM     11  O   UNL     1       0.698  13.094  18.601  0.00  0.00    +0.000 OA
BRANCH  10  12
ATOM     12  C   UNL     1      -1.216  11.292  18.438  0.00  0.00    +0.000 A 
ATOM     13  C   UNL     1      -2.421  11.888  18.828  0.00  0.00    +0.000 A 
ATOM     14  C   UNL     1      -3.625  11.391  18.331  0.00  0.00    +0.000 A 
ATOM     15  C   UNL     1      -3.622  10.311  17.445  0.00  0.00    +0.000 A 
ATOM     16  C   UNL     1      -2.414   9.749  17.025  0.00  0.00    +0.000 A 
ATOM     17  C   UNL     1      -1.204  10.253  17.505  0.00  0.00    +0.000 A 
ENDBRANCH  10  12
ENDBRANCH   7  10
ENDBRANCH   1   7
BRANCH   4  18
ATOM     18  C   UNL     1       2.052   5.313  20.936  0.00  0.00    +0.000 C 
BRANCH  18  19
ATOM     19  C   UNL     1       1.024   4.481  20.168  0.00  0.00    +0.000 C 
BRANCH  19  20
ATOM     20  N   UNL     1       1.607   3.509  19.219  0.00  0.00    +0.000 NA
ATOM     21  C   UNL     1       1.803   4.117  17.894  0.00  0.00    +0.000 C 
ATOM     22  C   UNL     1       2.702   3.326  16.947  0.00  0.00    +0.000 C 
ATOM     23  C   UNL     1       4.017   2.868  17.585  0.00  0.00    +0.000 C 
ATOM     24  C   UNL     1       3.692   2.122  18.883  0.00  0.00    +0.000 C 
ATOM     25  C   UNL     1       2.813   2.930  19.832  0.00  0.00    +0.000 C 
BRANCH  23  26
ATOM     26  C   UNL     1       5.075   3.956  17.733  0.00  0.00    +0.000 A 
ATOM     27  C   UNL     1       5.390   4.570  18.961  0.00  0.00    +0.000 A 
ATOM     28  C   UNL     1       6.350   5.594  19.073  0.00  0.00    +0.000 A 
ATOM     29  C   UNL     1       7.037   6.036  17.954  0.00  0.00    +0.000 A 
ATOM     30  C   UNL     1       6.752   5.420  16.753  0.00  0.00    +0.000 A 
ATOM     31  C   UNL     1       5.805   4.407  16.632  0.00  0.00    +0.000 A 
ATOM     32  C   UNL     1       5.715   4.033  15.198  0.00  0.00    +0.000 C 
ATOM     33  C   UNL     1       7.003   4.677  14.691  0.00  0.00    +0.000 C 
ATOM     34  O   UNL     1       7.362   5.761  15.572  0.00  0.00    +0.000 OA
ENDBRANCH  23  26
ENDBRANCH  19  20
ENDBRANCH  18  19
ENDBRANCH   4  18
TORSDOF 7
ENDMDL
MODEL 5
REMARK VINA RESULT:      -8.9      1.168      1.750
REMARK  Name = 
REMARK  7 active torsions:
REMARK  status: ('A' for Active; 'I' for Inactive)
REMARK    1  A    between atoms: S_2  and  N_4
REMARK    2  A    between atoms: S_2  and  C_28
REMARK    3  A    between atoms: N_4  and  C_5
REMARK    4  A    between atoms: C_8  and  C_9
REMARK    5  A    between atoms: C_9  and  C_10
REMARK    6  A    between atoms: C_10  and  N_11
REMARK    7  A    between atoms: C_14  and  C_15
REMARK                            x       y       z     vdW  Elec       q    Type
REMARK                         _______ _______ _______ _____ _____    ______ ____
ROOT
ATOM      1  C   UNL     1       0.625   9.784  19.009  0.00  0.00    +0.000 C 
ATOM      2  C   UNL     1       1.774   9.090  18.261  0.00  0.00    +0.000 C 
ATOM      3  C   UNL     1       1.941   7.628  18.677  0.00  0.00    +0.000 C 
ATOM      4  C   UNL     1       2.106   7.489  20.197  0.00  0.00    +0.000 C 
ATOM      5  C   UNL     1       0.914   8.128  20.908  0.00  0.00    +0.000 C 
ATOM      6  C   UNL     1       0.760   9.585  20.516  0.00  0.00    +0.000 C 
ENDROOT
BRANCH   1   7
ATOM      7  N   UNL     1       0.632  11.220  18.636  0.00  0.00    +0.000 NA
ATOM      8  H   UNL     1       1.405  11.748  19.043  0.00  0.00    +0.000 HD
BRANCH   7  10
ATOM      9  O   UNL     1      -0.614  13.300  17.899  0.00  0.00    +0.000 OA
ATOM     10  S   UNL     1      -0.813  12.115  18.702  0.00  0.00    +0.000 S 
ATOM     11  O   UNL     1      -1.922  11.213  18.484  0.00  0.00    +0.000 OA
BRANCH  10  12
ATOM     12  C   UNL     1      -0.831  12.655  20.399  0.00  0.00    +0.000 A 
ATOM     13  C   UNL     1      -1.801  12.125  21.257  0.00  0.00    +0.000 A 
ATOM     14  C   UNL     1      -1.914  12.619  22.555  0.00  0.00    +0.000 A 
ATOM     15  C   UNL     1      -1.058  13.631  22.993  0.00  0.00    +0.000 A 
ATOM     16  C   UNL     1      -0.062  14.126  22.148  0.00  0.00    +0.000 A 
ATOM     17  C   UNL     1       0.068  13.623  20.852  0.00  0.00    +0.000 A 
ENDBRANCH  10  12
ENDBRANCH   7  10
ENDBRANCH   1   7
BRANCH   4  18
ATOM     18  C   UNL     1       2.226   6.029  20.657  0.00  0.00    +0.000 C 
BRANCH  18  19
ATOM     19  C   UNL     1       1.166   5.096  20.070  0.00  0.00    +0.000 C 
BRANCH  19  20
ATOM     20  N   UNL     1       1.707   3.986  19.258  0.00  0.00    +0.000 NA
ATOM     21  C   UNL     1       1.945   4.413  17.871  0.00  0.00    +0.000 C 
ATOM     22  C   UNL     1       2.812   3.467  17.042  0.00  0.00    +0.000 C 
ATOM     23  C   UNL     1       4.096   3.030  17.752  0.00  0.00    +0.000 C 
ATOM     24  C   UNL     1       3.724   2.468  19.128  0.00  0.00    +0.000 C 
ATOM     25  C   UNL     1       2.878   3.430  19.956  0.00  0.00    +0.000 C 
BRANCH  23  26
ATOM     26  C   UNL     1       5.206   4.074  17.778  0.00  0.00    +0.000 A 
ATOM     27  C   UNL     1       5.646   4.710  18.957  0.00  0.00    +0.000 A 
ATOM     28  C   UNL     1       6.652   5.694  18.958  0.00  0.00    +0.000 A 
ATOM     29  C   UNL     1       7.262   6.074  17.773  0.00  0.00    +0.000 A 
ATOM     30  C   UNL     1       6.855   5.437  16.619  0.00  0.00    +0.000 A 
ATOM     31  C   UNL     1       5.860   4.463  16.608  0.00  0.00    +0.000 A 
ATOM     32  C   UNL     1       5.637   4.052  15.199  0.00  0.00    +0.000 C 
ATOM     33  C   UNL     1       6.904   4.625  14.568  0.00  0.00    +0.000 C 
ATOM     34  O   UNL     1       7.378   5.718  15.382  0.00  0.00    +0.000 OA
ENDBRANCH  23  26
ENDBRANCH  19  20
ENDBRANCH  18  19
ENDBRANCH   4  18
TORSDOF 7
ENDMDL
MODEL 6
REMARK VINA RESULT:      -8.6      1.921      2.578
REMARK  Name = 
REMARK  7 active torsions:
REMARK  status: ('A' for Active; 'I' for Inactive)
REMARK    1  A    between atoms: S_2  and  N_4
REMARK    2  A    between atoms: S_2  and  C_28
REMARK    3  A    between atoms: N_4  and  C_5
REMARK    4  A    between atoms: C_8  and  C_9
REMARK    5  A    between atoms: C_9  and  C_10
REMARK    6  A    between atoms: C_10  and  N_11
REMARK    7  A    between atoms: C_14  and  C_15
REMARK                            x       y       z     vdW  Elec       q    Type
REMARK                         _______ _______ _______ _____ _____    ______ ____
ROOT
ATOM      1  C   UNL     1      -0.505  10.063  20.457  0.00  0.00    +0.000 C 
ATOM      2  C   UNL     1       0.872  10.300  19.818  0.00  0.00    +0.000 C 
ATOM      3  C   UNL     1       1.575   8.993  19.447  0.00  0.00    +0.000 C 
ATOM      4  C   UNL     1       1.679   8.046  20.652  0.00  0.00    +0.000 C 
ATOM      5  C   UNL     1       0.286   7.778  21.221  0.00  0.00    +0.000 C 
ATOM      6  C   UNL     1      -0.404   9.070  21.611  0.00  0.00    +0.000 C 
ENDROOT
BRANCH   1   7
ATOM      7  N   UNL     1      -1.041  11.374  20.898  0.00  0.00    +0.000 NA
ATOM      8  H   UNL     1      -1.784  11.304  21.593  0.00  0.00    +0.000 HD
BRANCH   7  10
ATOM      9  O   UNL     1      -2.385  13.447  20.335  0.00  0.00    +0.000 OA
ATOM     10  S   UNL     1      -1.404  12.568  19.741  0.00  0.00    +0.000 S 
ATOM     11  O   UNL     1      -0.164  13.060  19.183  0.00  0.00    +0.000 OA
BRANCH  10  12
ATOM     12  C   UNL     1      -2.262  11.623  18.500  0.00  0.00    +0.000 A 
ATOM     13  C   UNL     1      -3.661  11.582  18.541  0.00  0.00    +0.000 A 
ATOM     14  C   UNL     1      -4.350  10.755  17.657  0.00  0.00    +0.000 A 
ATOM     15  C   UNL     1      -3.646   9.979  16.733  0.00  0.00    +0.000 A 
ATOM     16  C   UNL     1      -2.253  10.058  16.665  0.00  0.00    +0.000 A 
ATOM     17  C   UNL     1      -1.557  10.897  17.536  0.00  0.00    +0.000 A 
ENDBRANCH  10  12
ENDBRANCH   7  10
ENDBRANCH   1   7
BRANCH   4  18
ATOM     18  C   UNL     1       2.334   6.702  20.305  0.00  0.00    +0.000 C 
BRANCH  18  19
ATOM     19  C   UNL     1       1.386   5.505  20.371  0.00  0.00    +0.000 C 
BRANCH  19  20
ATOM     20  N   UNL     1       1.771   4.369  19.507  0.00  0.00    +0.000 NA
ATOM     21  C   UNL     1       1.979   4.808  18.118  0.00  0.00    +0.000 C 
ATOM     22  C   UNL     1       2.703   3.803  17.224  0.00  0.00    +0.000 C 
ATOM     23  C   UNL     1       3.972   3.222  17.855  0.00  0.00    +0.000 C 
ATOM     24  C   UNL     1       3.615   2.663  19.235  0.00  0.00    +0.000 C 
ATOM     25  C   UNL     1       2.914   3.681  20.128  0.00  0.00    +0.000 C 
BRANCH  23  26
ATOM     26  C   UNL     1       5.181   4.151  17.844  0.00  0.00    +0.000 A 
ATOM     27  C   UNL     1       5.725   4.728  19.009  0.00  0.00    +0.000 A 
ATOM     28  C   UNL     1       6.824   5.608  18.977  0.00  0.00    +0.000 A 
ATOM     29  C   UNL     1       7.424   5.935  17.772  0.00  0.00    +0.000 A 
ATOM     30  C   UNL     1       6.913   5.352  16.631  0.00  0.00    +0.000 A 
ATOM     31  C   UNL     1       5.826   4.482  16.653  0.00  0.00    +0.000 A 
ATOM     32  C   UNL     1       5.512   4.108  15.251  0.00  0.00    +0.000 C 
ATOM     33  C   UNL     1       6.805   4.558  14.575  0.00  0.00    +0.000 C 
ATOM     34  O   UNL     1       7.416   5.591  15.377  0.00  0.00    +0.000 OA
ENDBRANCH  23  26
ENDBRANCH  19  20
ENDBRANCH  18  19
ENDBRANCH   4  18
TORSDOF 7
ENDMDL
MODEL 7
REMARK VINA RESULT:      -8.6      2.184      2.912
REMARK  Name = 
REMARK  7 active torsions:
REMARK  status: ('A' for Active; 'I' for Inactive)
REMARK    1  A    between atoms: S_2  and  N_4
REMARK    2  A    between atoms: S_2  and  C_28
REMARK    3  A    between atoms: N_4  and  C_5
REMARK    4  A    between atoms: C_8  and  C_9
REMARK    5  A    between atoms: C_9  and  C_10
REMARK    6  A    between atoms: C_10  and  N_11
REMARK    7  A    between atoms: C_14  and  C_15
REMARK                            x       y       z     vdW  Elec       q    Type
REMARK                         _______ _______ _______ _____ _____    ______ ____
ROOT
ATOM      1  C   UNL     1       1.937   9.629  19.156  0.00  0.00    +0.000 C 
ATOM      2  C   UNL     1       0.894   9.241  20.217  0.00  0.00    +0.000 C 
ATOM      3  C   UNL     1       1.280   7.971  20.976  0.00  0.00    +0.000 C 
ATOM      4  C   UNL     1       1.555   6.802  20.018  0.00  0.00    +0.000 C 
ATOM      5  C   UNL     1       2.643   7.197  19.021  0.00  0.00    +0.000 C 
ATOM      6  C   UNL     1       2.254   8.443  18.249  0.00  0.00    +0.000 C 
ENDROOT
BRANCH   1   7
ATOM      7  N   UNL     1       1.409  10.786  18.392  0.00  0.00    +0.000 NA
ATOM      8  H   UNL     1       2.082  11.193  17.743  0.00  0.00    +0.000 HD
BRANCH   7  10
ATOM      9  O   UNL     1      -0.758  12.087  18.566  0.00  0.00    +0.000 OA
ATOM     10  S   UNL     1       0.537  12.002  19.201  0.00  0.00    +0.000 S 
ATOM     11  O   UNL     1       0.687  11.805  20.626  0.00  0.00    +0.000 OA
BRANCH  10  12
ATOM     12  C   UNL     1       1.427  13.469  18.724  0.00  0.00    +0.000 A 
ATOM     13  C   UNL     1       2.741  13.330  18.261  0.00  0.00    +0.000 A 
ATOM     14  C   UNL     1       3.499  14.468  17.996  0.00  0.00    +0.000 A 
ATOM     15  C   UNL     1       2.945  15.736  18.185  0.00  0.00    +0.000 A 
ATOM     16  C   UNL     1       1.619  15.869  18.604  0.00  0.00    +0.000 A 
ATOM     17  C   UNL     1       0.848  14.733  18.855  0.00  0.00    +0.000 A 
ENDBRANCH  10  12
ENDBRANCH   7  10
ENDBRANCH   1   7
BRANCH   4  18
ATOM     18  C   UNL     1       1.994   5.522  20.742  0.00  0.00    +0.000 C 
BRANCH  18  19
ATOM     19  C   UNL     1       1.121   4.303  20.448  0.00  0.00    +0.000 C 
BRANCH  19  20
ATOM     20  N   UNL     1       1.656   3.401  19.405  0.00  0.00    +0.000 NA
ATOM     21  C   UNL     1       1.784   4.101  18.118  0.00  0.00    +0.000 C 
ATOM     22  C   UNL     1       2.635   3.383  17.073  0.00  0.00    +0.000 C 
ATOM     23  C   UNL     1       3.981   2.888  17.611  0.00  0.00    +0.000 C 
ATOM     24  C   UNL     1       3.723   2.052  18.868  0.00  0.00    +0.000 C 
ATOM     25  C   UNL     1       2.893   2.787  19.914  0.00  0.00    +0.000 C 
BRANCH  23  26
ATOM     26  C   UNL     1       5.044   3.968  17.781  0.00  0.00    +0.000 A 
ATOM     27  C   UNL     1       5.359   4.558  19.021  0.00  0.00    +0.000 A 
ATOM     28  C   UNL     1       6.323   5.575  19.154  0.00  0.00    +0.000 A 
ATOM     29  C   UNL     1       7.015   6.034  18.044  0.00  0.00    +0.000 A 
ATOM     30  C   UNL     1       6.730   5.442  16.831  0.00  0.00    +0.000 A 
ATOM     31  C   UNL     1       5.778   4.436  16.691  0.00  0.00    +0.000 A 
ATOM     32  C   UNL     1       5.689   4.089  15.249  0.00  0.00    +0.000 C 
ATOM     33  C   UNL     1       6.981   4.736  14.756  0.00  0.00    +0.000 C 
ATOM     34  O   UNL     1       7.344   5.803  15.658  0.00  0.00    +0.000 OA
ENDBRANCH  23  26
ENDBRANCH  19  20
ENDBRANCH  18  19
ENDBRANCH   4  18
TORSDOF 7
ENDMDL
MODEL 8
REMARK VINA RESULT:      -8.5      1.751      2.205
REMARK  Name = 
REMARK  7 active torsions:
REMARK  status: ('A' for Active; 'I' for Inactive)
REMARK    1  A    between atoms: S_2  and  N_4
REMARK    2  A    between atoms: S_2  and  C_28
REMARK    3  A    between atoms: N_4  and  C_5
REMARK    4  A    between atoms: C_8  and  C_9
REMARK    5  A    between atoms: C_9  and  C_10
REMARK    6  A    between atoms: C_10  and  N_11
REMARK    7  A    between atoms: C_14  and  C_15
REMARK                            x       y       z     vdW  Elec       q    Type
REMARK                         _______ _______ _______ _____ _____    ______ ____
ROOT
ATOM      1  C   UNL     1       1.033  10.732  20.405  0.00  0.00    +0.000 C 
ATOM      2  C   UNL     1       0.719   9.887  21.650  0.00  0.00    +0.000 C 
ATOM      3  C   UNL     1       1.511   8.579  21.681  0.00  0.00    +0.000 C 
ATOM      4  C   UNL     1       1.308   7.765  20.394  0.00  0.00    +0.000 C 
ATOM      5  C   UNL     1       1.693   8.611  19.181  0.00  0.00    +0.000 C 
ATOM      6  C   UNL     1       0.892   9.898  19.135  0.00  0.00    +0.000 C 
ENDROOT
BRANCH   1   7
ATOM      7  N   UNL     1       0.123  11.904  20.402  0.00  0.00    +0.000 NA
ATOM      8  H   UNL     1      -0.159  12.205  19.470  0.00  0.00    +0.000 HD
BRANCH   7  10
ATOM      9  O   UNL     1      -0.354  13.128  22.569  0.00  0.00    +0.000 OA
ATOM     10  S   UNL     1       0.474  13.244  21.391  0.00  0.00    +0.000 S 
ATOM     11  O   UNL     1       1.910  13.395  21.468  0.00  0.00    +0.000 OA
BRANCH  10  12
ATOM     12  C   UNL     1      -0.199  14.588  20.435  0.00  0.00    +0.000 A 
ATOM     13  C   UNL     1       0.505  15.020  19.305  0.00  0.00    +0.000 A 
ATOM     14  C   UNL     1       0.065  16.145  18.611  0.00  0.00    +0.000 A 
ATOM     15  C   UNL     1      -1.075  16.828  19.039  0.00  0.00    +0.000 A 
ATOM     16  C   UNL     1      -1.800  16.367  20.140  0.00  0.00    +0.000 A 
ATOM     17  C   UNL     1      -1.374  15.231  20.830  0.00  0.00    +0.000 A 
ENDBRANCH  10  12
ENDBRANCH   7  10
ENDBRANCH   1   7
BRANCH   4  18
ATOM     18  C   UNL     1       2.127   6.468  20.368  0.00  0.00    +0.000 C 
BRANCH  18  19
ATOM     19  C   UNL     1       1.286   5.192  20.415  0.00  0.00    +0.000 C 
BRANCH  19  20
ATOM     20  N   UNL     1       1.721   4.135  19.477  0.00  0.00    +0.000 NA
ATOM     21  C   UNL     1       1.942   4.683  18.130  0.00  0.00    +0.000 C 
ATOM     22  C   UNL     1       2.713   3.769  17.179  0.00  0.00    +0.000 C 
ATOM     23  C   UNL     1       3.987   3.179  17.791  0.00  0.00    +0.000 C 
ATOM     24  C   UNL     1       3.621   2.508  19.119  0.00  0.00    +0.000 C 
ATOM     25  C   UNL     1       2.873   3.436  20.070  0.00  0.00    +0.000 C 
BRANCH  23  26
ATOM     26  C   UNL     1       5.168   4.139  17.876  0.00  0.00    +0.000 A 
ATOM     27  C   UNL     1       5.637   4.686  19.086  0.00  0.00    +0.000 A 
ATOM     28  C   UNL     1       6.710   5.596  19.142  0.00  0.00    +0.000 A 
ATOM     29  C   UNL     1       7.359   5.985  17.981  0.00  0.00    +0.000 A 
ATOM     30  C   UNL     1       6.921   5.433  16.795  0.00  0.00    +0.000 A 
ATOM     31  C   UNL     1       5.861   4.534  16.731  0.00  0.00    +0.000 A 
ATOM     32  C   UNL     1       5.626   4.206  15.302  0.00  0.00    +0.000 C 
ATOM     33  C   UNL     1       6.937   4.716  14.709  0.00  0.00    +0.000 C 
ATOM     34  O   UNL     1       7.478   5.733  15.578  0.00  0.00    +0.000 OA
ENDBRANCH  23  26
ENDBRANCH  19  20
ENDBRANCH  18  19
ENDBRANCH   4  18
TORSDOF 7
ENDMDL
MODEL 9
REMARK VINA RESULT:      -8.5      1.970      2.596
REMARK  Name = 
REMARK  7 active torsions:
REMARK  status: ('A' for Active; 'I' for Inactive)
REMARK    1  A    between atoms: S_2  and  N_4
REMARK    2  A    between atoms: S_2  and  C_28
REMARK    3  A    between atoms: N_4  and  C_5
REMARK    4  A    between atoms: C_8  and  C_9
REMARK    5  A    between atoms: C_9  and  C_10
REMARK    6  A    between atoms: C_10  and  N_11
REMARK    7  A    between atoms: C_14  and  C_15
REMARK                            x       y       z     vdW  Elec       q    Type
REMARK                         _______ _______ _______ _____ _____    ______ ____
ROOT
ATOM      1  C   UNL     1      -0.051  10.799  21.370  0.00  0.00    +0.000 C 
ATOM      2  C   UNL     1      -0.121   9.632  22.367  0.00  0.00    +0.000 C 
ATOM      3  C   UNL     1       0.946   8.570  22.097  0.00  0.00    +0.000 C 
ATOM      4  C   UNL     1       0.886   8.064  20.648  0.00  0.00    +0.000 C 
ATOM      5  C   UNL     1       1.027   9.241  19.684  0.00  0.00    +0.000 C 
ATOM      6  C   UNL     1      -0.045  10.285  19.933  0.00  0.00    +0.000 C 
ENDROOT
BRANCH   1   7
ATOM      7  N   UNL     1      -1.201  11.699  21.632  0.00  0.00    +0.000 NA
ATOM      8  H   UNL     1      -1.954  11.616  20.949  0.00  0.00    +0.000 HD
BRANCH   7  10
ATOM      9  O   UNL     1      -2.120  14.060  21.688  0.00  0.00    +0.000 OA
ATOM     10  S   UNL     1      -0.921  13.329  22.029  0.00  0.00    +0.000 S 
ATOM     11  O   UNL     1      -0.331  13.387  23.348  0.00  0.00    +0.000 OA
BRANCH  10  12
ATOM     12  C   UNL     1       0.308  13.792  20.825  0.00  0.00    +0.000 A 
ATOM     13  C   UNL     1      -0.095  13.974  19.497  0.00  0.00    +0.000 A 
ATOM     14  C   UNL     1       0.864  14.216  18.516  0.00  0.00    +0.000 A 
ATOM     15  C   UNL     1       2.215  14.284  18.862  0.00  0.00    +0.000 A 
ATOM     16  C   UNL     1       2.608  14.147  20.195  0.00  0.00    +0.000 A 
ATOM     17  C   UNL     1       1.652  13.920  21.186  0.00  0.00    +0.000 A 
ENDBRANCH  10  12
ENDBRANCH   7  10
ENDBRANCH   1   7
BRANCH   4  18
ATOM     18  C   UNL     1       1.976   7.033  20.326  0.00  0.00    +0.000 C 
BRANCH  18  19
ATOM     19  C   UNL     1       1.656   5.613  20.796  0.00  0.00    +0.000 C 
BRANCH  19  20
ATOM     20  N   UNL     1       1.924   4.560  19.794  0.00  0.00    +0.000 NA
ATOM     21  C   UNL     1       2.082   5.138  18.450  0.00  0.00    +0.000 C 
ATOM     22  C   UNL     1       2.694   4.200  17.412  0.00  0.00    +0.000 C 
ATOM     23  C   UNL     1       3.957   3.485  17.898  0.00  0.00    +0.000 C 
ATOM     24  C   UNL     1       3.644   2.797  19.230  0.00  0.00    +0.000 C 
ATOM     25  C   UNL     1       3.055   3.747  20.268  0.00  0.00    +0.000 C 
BRANCH  23  26
ATOM     26  C   UNL     1       5.218   4.342  17.913  0.00  0.00    +0.000 A 
ATOM     27  C   UNL     1       5.797   4.848  19.094  0.00  0.00    +0.000 A 
ATOM     28  C   UNL     1       6.946   5.663  19.087  0.00  0.00    +0.000 A 
ATOM     29  C   UNL     1       7.561   5.995  17.891  0.00  0.00    +0.000 A 
ATOM     30  C   UNL     1       7.015   5.481  16.733  0.00  0.00    +0.000 A 
ATOM     31  C   UNL     1       5.879   4.675  16.731  0.00  0.00    +0.000 A 
ATOM     32  C   UNL     1       5.540   4.367  15.318  0.00  0.00    +0.000 C 
ATOM     33  C   UNL     1       6.856   4.763  14.653  0.00  0.00    +0.000 C 
ATOM     34  O   UNL     1       7.528   5.732  15.485  0.00  0.00    +0.000 OA
ENDBRANCH  23  26
ENDBRANCH  19  20
ENDBRANCH  18  19
ENDBRANCH   4  18
TORSDOF 7
ENDMDL
