MODEL 1
REMARK VINA RESULT:      -7.4      0.000      0.000
REMARK  Name = 
REMARK  3 active torsions:
REMARK  status: ('A' for Active; 'I' for Inactive)
REMARK    1  A    between atoms: S_2  and  N_4
REMARK    2  A    between atoms: S_2  and  C_11
REMARK    3  A    between atoms: N_4  and  C_5
REMARK                            x       y       z     vdW  Elec       q    Type
REMARK                         _______ _______ _______ _____ _____    ______ ____
ROOT
ATOM      1  O   UNL     1       4.305   5.633  19.271  0.00  0.00    +0.000 OA
ATOM      2  S   UNL     1       5.447   4.756  19.103  0.00  0.00    +0.000 S 
ATOM      3  O   UNL     1       6.691   5.010  19.798  0.00  0.00    +0.000 OA
ENDROOT
BRANCH   2   4
ATOM      4  C   UNL     1       5.788   4.671  17.356  0.00  0.00    +0.000 A 
ATOM      5  C   UNL     1       7.111   4.744  16.909  0.00  0.00    +0.000 A 
ATOM      6  C   UNL     1       7.389   4.598  15.549  0.00  0.00    +0.000 A 
ATOM      7  C   UNL     1       6.346   4.372  14.651  0.00  0.00    +0.000 A 
ATOM      8 BR   UNL     1       6.729   4.125  12.815  0.00  0.00    +0.000 Br
ATOM      9  C   UNL     1       5.024   4.304  15.095  0.00  0.00    +0.000 A 
ATOM     10  C   UNL     1       4.742   4.449  16.455  0.00  0.00    +0.000 A 
ENDBRANCH   2   4
BRANCH   2  11
ATOM     11  N   UNL     1       4.909   3.211  19.456  0.00  0.00    +0.000 N 
ATOM     12  H   UNL     1       5.599   2.469  19.538  0.00  0.00    +0.000 HD
BRANCH  11  13
ATOM     13  C   UNL     1       3.526   2.951  19.577  0.00  0.00    +0.000 A 
ATOM     14  C   UNL     1       2.797   2.539  18.463  0.00  0.00    +0.000 A 
ATOM     15  C   UNL     1       1.416   2.353  18.570  0.00  0.00    +0.000 A 
ATOM     16  C   UNL     1       0.777   2.570  19.791  0.00  0.00    +0.000 A 
ATOM     17  C   UNL     1       1.516   2.952  20.911  0.00  0.00    +0.000 A 
ATOM     18  C   UNL     1       2.897   3.129  20.806  0.00  0.00    +0.000 A 
ENDBRANCH  11  13
ENDBRANCH   2  11
TORSDOF 3
ENDMDL
MODEL 2
REMARK VINA RESULT:      -7.2      0.258      1.193
REMARK  Name = 
REMARK  3 active torsions:
REMARK  status: ('A' for Active; 'I' for Inactive)
REMARK    1  A    between atoms: S_2  and  N_4
REMARK    2  A    between atoms: S_2  and  C_11
REMARK    3  A    between atoms: N_4  and  C_5
REMARK                            x       y       z     vdW  Elec       q    Type
REMARK                         _______ _______ _______ _____ _____    ______ ____
ROOT
ATOM      1  O   UNL     1       4.279   5.675  19.020  0.00  0.00    +0.000 OA
ATOM      2  S   UNL     1       5.410   4.768  18.985  0.00  0.00    +0.000 S 
ATOM      3  O   UNL     1       6.607   5.040  19.750  0.00  0.00    +0.000 OA
ENDROOT
BRANCH   2   4
ATOM      4  C   UNL     1       5.870   4.573  17.275  0.00  0.00    +0.000 A 
ATOM      5  C   UNL     1       4.913   4.141  16.350  0.00  0.00    +0.000 A 
ATOM      6  C   UNL     1       5.247   4.065  14.996  0.00  0.00    +0.000 A 
ATOM      7  C   UNL     1       6.528   4.427  14.579  0.00  0.00    +0.000 A 
ATOM      8 BR   UNL     1       6.964   4.369  12.740  0.00  0.00    +0.000 Br
ATOM      9  C   UNL     1       7.485   4.853  15.502  0.00  0.00    +0.000 A 
ATOM     10  C   UNL     1       7.155   4.932  16.856  0.00  0.00    +0.000 A 
ENDBRANCH   2   4
BRANCH   2  11
ATOM     11  N   UNL     1       4.814   3.257  19.387  0.00  0.00    +0.000 N 
ATOM     12  H   UNL     1       5.467   2.479  19.428  0.00  0.00    +0.000 HD
BRANCH  11  13
ATOM     13  C   UNL     1       3.431   3.075  19.607  0.00  0.00    +0.000 A 
ATOM     14  C   UNL     1       2.602   2.709  18.547  0.00  0.00    +0.000 A 
ATOM     15  C   UNL     1       1.225   2.600  18.752  0.00  0.00    +0.000 A 
ATOM     16  C   UNL     1       0.686   2.847  20.015  0.00  0.00    +0.000 A 
ATOM     17  C   UNL     1       1.523   3.182  21.080  0.00  0.00    +0.000 A 
ATOM     18  C   UNL     1       2.902   3.282  20.877  0.00  0.00    +0.000 A 
ENDBRANCH  11  13
ENDBRANCH   2  11
TORSDOF 3
ENDMDL
MODEL 3
REMARK VINA RESULT:      -7.2      1.179      1.739
REMARK  Name = 
REMARK  3 active torsions:
REMARK  status: ('A' for Active; 'I' for Inactive)
REMARK    1  A    between atoms: S_2  and  N_4
REMARK    2  A    between atoms: S_2  and  C_11
REMARK    3  A    between atoms: N_4  and  C_5
REMARK                            x       y       z     vdW  Elec       q    Type
REMARK                         _______ _______ _______ _____ _____    ______ ____
ROOT
ATOM      1  O   UNL     1       6.632   5.443  19.691  0.00  0.00    +0.000 OA
ATOM      2  S   UNL     1       5.617   4.592  19.104  0.00  0.00    +0.000 S 
ATOM      3  O   UNL     1       5.431   3.231  19.558  0.00  0.00    +0.000 OA
ENDROOT
BRANCH   2   4
ATOM      4  C   UNL     1       5.915   4.560  17.347  0.00  0.00    +0.000 A 
ATOM      5  C   UNL     1       7.117   5.070  16.844  0.00  0.00    +0.000 A 
ATOM      6  C   UNL     1       7.389   4.974  15.478  0.00  0.00    +0.000 A 
ATOM      7  C   UNL     1       6.464   4.364  14.630  0.00  0.00    +0.000 A 
ATOM      8 BR   UNL     1       6.855   4.192  12.788  0.00  0.00    +0.000 Br
ATOM      9  C   UNL     1       5.262   3.860  15.130  0.00  0.00    +0.000 A 
ATOM     10  C   UNL     1       4.986   3.953  16.496  0.00  0.00    +0.000 A 
ENDBRANCH   2   4
BRANCH   2  11
ATOM     11  N   UNL     1       4.173   5.429  19.223  0.00  0.00    +0.000 N 
ATOM     12  H   UNL     1       4.202   6.444  19.185  0.00  0.00    +0.000 HD
BRANCH  11  13
ATOM     13  C   UNL     1       2.962   4.730  19.427  0.00  0.00    +0.000 A 
ATOM     14  C   UNL     1       2.489   4.524  20.722  0.00  0.00    +0.000 A 
ATOM     15  C   UNL     1       1.330   3.772  20.923  0.00  0.00    +0.000 A 
ATOM     16  C   UNL     1       0.647   3.239  19.830  0.00  0.00    +0.000 A 
ATOM     17  C   UNL     1       1.106   3.475  18.533  0.00  0.00    +0.000 A 
ATOM     18  C   UNL     1       2.261   4.235  18.332  0.00  0.00    +0.000 A 
ENDBRANCH  11  13
ENDBRANCH   2  11
TORSDOF 3
ENDMDL
MODEL 4
REMARK VINA RESULT:      -7.2      0.148      1.180
REMARK  Name = 
REMARK  3 active torsions:
REMARK  status: ('A' for Active; 'I' for Inactive)
REMARK    1  A    between atoms: S_2  and  N_4
REMARK    2  A    between atoms: S_2  and  C_11
REMARK    3  A    between atoms: N_4  and  C_5
REMARK                            x       y       z     vdW  Elec       q    Type
REMARK                         _______ _______ _______ _____ _____    ______ ____
ROOT
ATOM      1  O   UNL     1       4.364   5.711  19.193  0.00  0.00    +0.000 OA
ATOM      2  S   UNL     1       5.467   4.783  19.036  0.00  0.00    +0.000 S 
ATOM      3  O   UNL     1       6.715   4.983  19.740  0.00  0.00    +0.000 OA
ENDROOT
BRANCH   2   4
ATOM      4  C   UNL     1       5.818   4.682  17.292  0.00  0.00    +0.000 A 
ATOM      5  C   UNL     1       7.124   4.900  16.839  0.00  0.00    +0.000 A 
ATOM      6  C   UNL     1       7.419   4.742  15.484  0.00  0.00    +0.000 A 
ATOM      7  C   UNL     1       6.412   4.361  14.596  0.00  0.00    +0.000 A 
ATOM      8 BR   UNL     1       6.825   4.101  12.769  0.00  0.00    +0.000 Br
ATOM      9  C   UNL     1       5.108   4.149  15.046  0.00  0.00    +0.000 A 
ATOM     10  C   UNL     1       4.808   4.304  16.401  0.00  0.00    +0.000 A 
ENDBRANCH   2   4
BRANCH   2  11
ATOM     11  N   UNL     1       4.858   3.265  19.385  0.00  0.00    +0.000 N 
ATOM     12  H   UNL     1       5.506   2.482  19.415  0.00  0.00    +0.000 HD
BRANCH  11  13
ATOM     13  C   UNL     1       3.470   3.083  19.575  0.00  0.00    +0.000 A 
ATOM     14  C   UNL     1       2.922   3.209  20.851  0.00  0.00    +0.000 A 
ATOM     15  C   UNL     1       1.562   2.957  21.047  0.00  0.00    +0.000 A 
ATOM     16  C   UNL     1       0.758   2.592  19.967  0.00  0.00    +0.000 A 
ATOM     17  C   UNL     1       1.305   2.498  18.687  0.00  0.00    +0.000 A 
ATOM     18  C   UNL     1       2.663   2.759  18.489  0.00  0.00    +0.000 A 
ENDBRANCH  11  13
ENDBRANCH   2  11
TORSDOF 3
ENDMDL
MODEL 5
REMARK VINA RESULT:      -7.1      0.258      1.671
REMARK  Name = 
REMARK  3 active torsions:
REMARK  status: ('A' for Active; 'I' for Inactive)
REMARK    1  A    between atoms: S_2  and  N_4
REMARK    2  A    between atoms: S_2  and  C_11
REMARK    3  A    between atoms: N_4  and  C_5
REMARK                            x       y       z     vdW  Elec       q    Type
REMARK                         _______ _______ _______ _____ _____    ______ ____
ROOT
ATOM      1  O   UNL     1       4.398   5.694  19.035  0.00  0.00    +0.000 OA
ATOM      2  S   UNL     1       5.485   4.737  18.971  0.00  0.00    +0.000 S 
ATOM      3  O   UNL     1       6.698   4.935  19.735  0.00  0.00    +0.000 OA
ENDROOT
BRANCH   2   4
ATOM      4  C   UNL     1       5.926   4.561  17.254  0.00  0.00    +0.000 A 
ATOM      5  C   UNL     1       4.963   4.125  16.337  0.00  0.00    +0.000 A 
ATOM      6  C   UNL     1       5.281   4.064  14.979  0.00  0.00    +0.000 A 
ATOM      7  C   UNL     1       6.552   4.444  14.549  0.00  0.00    +0.000 A 
ATOM      8 BR   UNL     1       6.966   4.405  12.704  0.00  0.00    +0.000 Br
ATOM      9  C   UNL     1       7.516   4.873  15.464  0.00  0.00    +0.000 A 
ATOM     10  C   UNL     1       7.202   4.938  16.823  0.00  0.00    +0.000 A 
ENDBRANCH   2   4
BRANCH   2  11
ATOM     11  N   UNL     1       4.821   3.246  19.342  0.00  0.00    +0.000 N 
ATOM     12  H   UNL     1       5.443   2.444  19.398  0.00  0.00    +0.000 HD
BRANCH  11  13
ATOM     13  C   UNL     1       3.426   3.114  19.516  0.00  0.00    +0.000 A 
ATOM     14  C   UNL     1       2.866   3.272  20.784  0.00  0.00    +0.000 A 
ATOM     15  C   UNL     1       1.496   3.069  20.965  0.00  0.00    +0.000 A 
ATOM     16  C   UNL     1       0.694   2.720  19.878  0.00  0.00    +0.000 A 
ATOM     17  C   UNL     1       1.253   2.595  18.606  0.00  0.00    +0.000 A 
ATOM     18  C   UNL     1       2.622   2.806  18.423  0.00  0.00    +0.000 A 
ENDBRANCH  11  13
ENDBRANCH   2  11
TORSDOF 3
ENDMDL
MODEL 6
REMARK VINA RESULT:      -7.1      3.265      6.262
REMARK  Name = 
REMARK  3 active torsions:
REMARK  status: ('A' for Active; 'I' for Inactive)
REMARK    1  A    between atoms: S_2  and  N_4
REMARK    2  A    between atoms: S_2  and  C_11
REMARK    3  A    between atoms: N_4  and  C_5
REMARK                            x       y       z     vdW  Elec       q    Type
REMARK                         _______ _______ _______ _____ _____    ______ ____
ROOT
ATOM      1  O   UNL     1       6.285   6.953  17.455  0.00  0.00    +0.000 OA
ATOM      2  S   UNL     1       5.591   6.212  16.421  0.00  0.00    +0.000 S 
ATOM      3  O   UNL     1       5.050   6.883  15.258  0.00  0.00    +0.000 OA
ENDROOT
BRANCH   2   4
ATOM      4  C   UNL     1       4.270   5.318  17.216  0.00  0.00    +0.000 A 
ATOM      5  C   UNL     1       4.293   3.919  17.223  0.00  0.00    +0.000 A 
ATOM      6  C   UNL     1       3.304   3.217  17.914  0.00  0.00    +0.000 A 
ATOM      7  C   UNL     1       2.307   3.916  18.596  0.00  0.00    +0.000 A 
ATOM      8 BR   UNL     1       0.996   2.964  19.570  0.00  0.00    +0.000 Br
ATOM      9  C   UNL     1       2.280   5.312  18.584  0.00  0.00    +0.000 A 
ATOM     10  C   UNL     1       3.268   6.019  17.895  0.00  0.00    +0.000 A 
ENDBRANCH   2   4
BRANCH   2  11
ATOM     11  N   UNL     1       6.630   4.993  15.937  0.00  0.00    +0.000 N 
ATOM     12  H   UNL     1       7.178   4.518  16.649  0.00  0.00    +0.000 HD
BRANCH  11  13
ATOM     13  C   UNL     1       6.770   4.682  14.566  0.00  0.00    +0.000 A 
ATOM     14  C   UNL     1       7.712   5.361  13.793  0.00  0.00    +0.000 A 
ATOM     15  C   UNL     1       7.798   5.102  12.424  0.00  0.00    +0.000 A 
ATOM     16  C   UNL     1       6.951   4.161  11.838  0.00  0.00    +0.000 A 
ATOM     17  C   UNL     1       6.032   3.461  12.621  0.00  0.00    +0.000 A 
ATOM     18  C   UNL     1       5.953   3.714  13.993  0.00  0.00    +0.000 A 
ENDBRANCH  11  13
ENDBRANCH   2  11
TORSDOF 3
ENDMDL
MODEL 7
REMARK VINA RESULT:      -7.0      1.091      1.184
REMARK  Name = 
REMARK  3 active torsions:
REMARK  status: ('A' for Active; 'I' for Inactive)
REMARK    1  A    between atoms: S_2  and  N_4
REMARK    2  A    between atoms: S_2  and  C_11
REMARK    3  A    between atoms: N_4  and  C_5
REMARK                            x       y       z     vdW  Elec       q    Type
REMARK                         _______ _______ _______ _____ _____    ______ ____
ROOT
ATOM      1  O   UNL     1       6.419   5.709  19.496  0.00  0.00    +0.000 OA
ATOM      2  S   UNL     1       5.527   4.709  18.942  0.00  0.00    +0.000 S 
ATOM      3  O   UNL     1       5.507   3.359  19.462  0.00  0.00    +0.000 OA
ENDROOT
BRANCH   2   4
ATOM      4  C   UNL     1       5.851   4.631  17.192  0.00  0.00    +0.000 A 
ATOM      5  C   UNL     1       7.117   4.983  16.711  0.00  0.00    +0.000 A 
ATOM      6  C   UNL     1       7.400   4.846  15.350  0.00  0.00    +0.000 A 
ATOM      7  C   UNL     1       6.422   4.353  14.487  0.00  0.00    +0.000 A 
ATOM      8 BR   UNL     1       6.822   4.123  12.653  0.00  0.00    +0.000 Br
ATOM      9  C   UNL     1       5.157   4.007  14.965  0.00  0.00    +0.000 A 
ATOM     10  C   UNL     1       4.869   4.141  16.325  0.00  0.00    +0.000 A 
ENDBRANCH   2   4
BRANCH   2  11
ATOM     11  N   UNL     1       3.988   5.363  19.009  0.00  0.00    +0.000 N 
ATOM     12  H   UNL     1       3.881   6.358  18.835  0.00  0.00    +0.000 HD
BRANCH  11  13
ATOM     13  C   UNL     1       2.886   4.549  19.355  0.00  0.00    +0.000 A 
ATOM     14  C   UNL     1       2.161   3.902  18.356  0.00  0.00    +0.000 A 
ATOM     15  C   UNL     1       1.029   3.157  18.696  0.00  0.00    +0.000 A 
ATOM     16  C   UNL     1       0.635   3.057  20.030  0.00  0.00    +0.000 A 
ATOM     17  C   UNL     1       1.383   3.680  21.030  0.00  0.00    +0.000 A 
ATOM     18  C   UNL     1       2.520   4.417  20.691  0.00  0.00    +0.000 A 
ENDBRANCH  11  13
ENDBRANCH   2  11
TORSDOF 3
ENDMDL
MODEL 8
REMARK VINA RESULT:      -6.9      1.257      1.729
REMARK  Name = 
REMARK  3 active torsions:
REMARK  status: ('A' for Active; 'I' for Inactive)
REMARK    1  A    between atoms: S_2  and  N_4
REMARK    2  A    between atoms: S_2  and  C_11
REMARK    3  A    between atoms: N_4  and  C_5
REMARK                            x       y       z     vdW  Elec       q    Type
REMARK                         _______ _______ _______ _____ _____    ______ ____
ROOT
ATOM      1  O   UNL     1       6.474   5.918  19.071  0.00  0.00    +0.000 OA
ATOM      2  S   UNL     1       5.609   4.837  18.642  0.00  0.00    +0.000 S 
ATOM      3  O   UNL     1       5.607   3.565  19.333  0.00  0.00    +0.000 OA
ENDROOT
BRANCH   2   4
ATOM      4  C   UNL     1       5.961   4.538  16.921  0.00  0.00    +0.000 A 
ATOM      5  C   UNL     1       5.016   3.875  16.131  0.00  0.00    +0.000 A 
ATOM      6  C   UNL     1       5.253   3.711  14.765  0.00  0.00    +0.000 A 
ATOM      7  C   UNL     1       6.425   4.216  14.200  0.00  0.00    +0.000 A 
ATOM      8 BR   UNL     1       6.721   4.036  12.341  0.00  0.00    +0.000 Br
ATOM      9  C   UNL     1       7.370   4.873  14.989  0.00  0.00    +0.000 A 
ATOM     10  C   UNL     1       7.137   5.041  16.356  0.00  0.00    +0.000 A 
ENDBRANCH   2   4
BRANCH   2  11
ATOM     11  N   UNL     1       4.058   5.461  18.605  0.00  0.00    +0.000 N 
ATOM     12  H   UNL     1       3.929   6.409  18.260  0.00  0.00    +0.000 HD
BRANCH  11  13
ATOM     13  C   UNL     1       2.974   4.699  19.095  0.00  0.00    +0.000 A 
ATOM     14  C   UNL     1       2.268   3.862  18.233  0.00  0.00    +0.000 A 
ATOM     15  C   UNL     1       1.152   3.166  18.704  0.00  0.00    +0.000 A 
ATOM     16  C   UNL     1       0.757   3.303  20.035  0.00  0.00    +0.000 A 
ATOM     17  C   UNL     1       1.486   4.117  20.902  0.00  0.00    +0.000 A 
ATOM     18  C   UNL     1       2.606   4.806  20.433  0.00  0.00    +0.000 A 
ENDBRANCH  11  13
ENDBRANCH   2  11
TORSDOF 3
ENDMDL
MODEL 9
REMARK VINA RESULT:      -6.9      3.250      5.996
REMARK  Name = 
REMARK  3 active torsions:
REMARK  status: ('A' for Active; 'I' for Inactive)
REMARK    1  A    between atoms: S_2  and  N_4
REMARK    2  A    between atoms: S_2  and  C_11
REMARK    3  A    between atoms: N_4  and  C_5
REMARK                            x       y       z     vdW  Elec       q    Type
REMARK                         _______ _______ _______ _____ _____    ______ ____
ROOT
ATOM      1  O   UNL     1       7.732   4.307  16.893  0.00  0.00    +0.000 OA
ATOM      2  S   UNL     1       6.999   5.539  17.104  0.00  0.00    +0.000 S 
ATOM      3  O   UNL     1       7.576   6.630  17.859  0.00  0.00    +0.000 OA
ENDROOT
BRANCH   2   4
ATOM      4  C   UNL     1       5.443   5.100  17.854  0.00  0.00    +0.000 A 
ATOM      5  C   UNL     1       5.390   4.023  18.746  0.00  0.00    +0.000 A 
ATOM      6  C   UNL     1       4.192   3.725  19.397  0.00  0.00    +0.000 A 
ATOM      7  C   UNL     1       3.062   4.509  19.158  0.00  0.00    +0.000 A 
ATOM      8 BR   UNL     1       1.452   4.134  20.077  0.00  0.00    +0.000 Br
ATOM      9  C   UNL     1       3.113   5.580  18.264  0.00  0.00    +0.000 A 
ATOM     10  C   UNL     1       4.310   5.882  17.611  0.00  0.00    +0.000 A 
ENDBRANCH   2   4
BRANCH   2  11
ATOM     11  N   UNL     1       6.543   6.082  15.588  0.00  0.00    +0.000 N 
ATOM     12  H   UNL     1       6.238   7.047  15.494  0.00  0.00    +0.000 HD
BRANCH  11  13
ATOM     13  C   UNL     1       6.537   5.194  14.489  0.00  0.00    +0.000 A 
ATOM     14  C   UNL     1       7.576   5.232  13.560  0.00  0.00    +0.000 A 
ATOM     15  C   UNL     1       7.530   4.403  12.436  0.00  0.00    +0.000 A 
ATOM     16  C   UNL     1       6.452   3.536  12.254  0.00  0.00    +0.000 A 
ATOM     17  C   UNL     1       5.431   3.478  13.203  0.00  0.00    +0.000 A 
ATOM     18  C   UNL     1       5.482   4.301  14.331  0.00  0.00    +0.000 A 
ENDBRANCH  11  13
ENDBRANCH   2  11
TORSDOF 3
ENDMDL
