MODEL 1
REMARK VINA RESULT:      -5.5      0.000      0.000
REMARK  Name = 
REMARK  4 active torsions:
REMARK  status: ('A' for Active; 'I' for Inactive)
REMARK    1  A    between atoms: N_1  and  C_2
REMARK    2  A    between atoms: C_2  and  C_3
REMARK    3  A    between atoms: C_3  and  C_4
REMARK    4  A    between atoms: C_4  and  N_5
REMARK                            x       y       z     vdW  Elec       q    Type
REMARK                         _______ _______ _______ _____ _____    ______ ____
ROOT
ATOM      1  C   UNL     1       6.376   5.075  16.859  0.00  0.00    +0.000 C 
ATOM      2  C   UNL     1       5.224   4.142  17.138  0.00  0.00    +0.000 C 
ATOM      3  C   UNL     1       4.011   4.602  17.452  0.00  0.00    +0.000 C 
ATOM      4  N   UNL     1       3.678   5.918  17.562  0.00  0.00    +0.000 NA
ATOM      5  C   UNL     1       4.567   6.811  17.264  0.00  0.00    +0.000 C 
ATOM      6  C   UNL     1       5.982   6.560  16.825  0.00  0.00    +0.000 C 
ENDROOT
BRANCH   1   7
ATOM      7  N   UNL     1       6.853   4.728  15.424  0.00  0.00    +0.000 N 
ATOM      8  O   UNL     1       7.711   5.452  14.899  0.00  0.00    +0.000 OA
ATOM      9  O   UNL     1       6.329   3.750  14.871  0.00  0.00    +0.000 OA
ENDBRANCH   1   7
BRANCH   1  10
ATOM     10  C   UNL     1       7.542   4.824  17.855  0.00  0.00    +0.000 C 
BRANCH  10  11
ATOM     11  C   UNL     1       7.772   5.969  18.850  0.00  0.00    +0.000 C 
BRANCH  11  12
ATOM     12  N   UNL     1       7.882   5.439  20.204  0.00  0.00    +0.000 NA
ATOM     13  H   UNL     1       7.676   6.177  20.879  0.00  0.00    +0.000 HD
ATOM     14  H   UNL     1       8.838   5.141  20.395  0.00  0.00    +0.000 HD
ENDBRANCH  11  12
ENDBRANCH  10  11
ENDBRANCH   1  10
TORSDOF 4
ENDMDL
MODEL 2
REMARK VINA RESULT:      -5.4      2.303      2.844
REMARK  Name = 
REMARK  4 active torsions:
REMARK  status: ('A' for Active; 'I' for Inactive)
REMARK    1  A    between atoms: N_1  and  C_2
REMARK    2  A    between atoms: C_2  and  C_3
REMARK    3  A    between atoms: C_3  and  C_4
REMARK    4  A    between atoms: C_4  and  N_5
REMARK                            x       y       z     vdW  Elec       q    Type
REMARK                         _______ _______ _______ _____ _____    ______ ____
ROOT
ATOM      1  C   UNL     1       6.121   4.905  17.528  0.00  0.00    +0.000 C 
ATOM      2  C   UNL     1       5.640   6.334  17.465  0.00  0.00    +0.000 C 
ATOM      3  C   UNL     1       5.291   6.904  16.310  0.00  0.00    +0.000 C 
ATOM      4  N   UNL     1       5.331   6.294  15.093  0.00  0.00    +0.000 NA
ATOM      5  C   UNL     1       5.650   5.041  15.037  0.00  0.00    +0.000 C 
ATOM      6  C   UNL     1       6.023   4.155  16.190  0.00  0.00    +0.000 C 
ENDROOT
BRANCH   1   7
ATOM      7  N   UNL     1       5.146   4.181  18.494  0.00  0.00    +0.000 N 
ATOM      8  O   UNL     1       5.621   3.591  19.475  0.00  0.00    +0.000 OA
ATOM      9  O   UNL     1       3.938   4.218  18.216  0.00  0.00    +0.000 OA
ENDBRANCH   1   7
BRANCH   1  10
ATOM     10  C   UNL     1       7.559   4.834  18.112  0.00  0.00    +0.000 C 
BRANCH  10  11
ATOM     11  C   UNL     1       7.885   5.952  19.111  0.00  0.00    +0.000 C 
BRANCH  11  12
ATOM     12  N   UNL     1       8.016   5.399  20.453  0.00  0.00    +0.000 NA
ATOM     13  H   UNL     1       8.425   4.464  20.400  0.00  0.00    +0.000 HD
ATOM     14  H   UNL     1       7.100   5.281  20.884  0.00  0.00    +0.000 HD
ENDBRANCH  11  12
ENDBRANCH  10  11
ENDBRANCH   1  10
TORSDOF 4
ENDMDL
MODEL 3
REMARK VINA RESULT:      -5.4      2.126      3.194
REMARK  Name = 
REMARK  4 active torsions:
REMARK  status: ('A' for Active; 'I' for Inactive)
REMARK    1  A    between atoms: N_1  and  C_2
REMARK    2  A    between atoms: C_2  and  C_3
REMARK    3  A    between atoms: C_3  and  C_4
REMARK    4  A    between atoms: C_4  and  N_5
REMARK                            x       y       z     vdW  Elec       q    Type
REMARK                         _______ _______ _______ _____ _____    ______ ____
ROOT
ATOM      1  C   UNL     1       6.454   5.722  17.585  0.00  0.00    +0.000 C 
ATOM      2  C   UNL     1       5.285   6.389  16.903  0.00  0.00    +0.000 C 
ATOM      3  C   UNL     1       4.070   6.407  17.455  0.00  0.00    +0.000 C 
ATOM      4  N   UNL     1       3.746   5.843  18.651  0.00  0.00    +0.000 NA
ATOM      5  C   UNL     1       4.688   5.314  19.364  0.00  0.00    +0.000 C 
ATOM      6  C   UNL     1       6.143   5.218  19.004  0.00  0.00    +0.000 C 
ENDROOT
BRANCH   1   7
ATOM      7  N   UNL     1       7.525   6.832  17.752  0.00  0.00    +0.000 N 
ATOM      8  O   UNL     1       8.189   6.854  18.798  0.00  0.00    +0.000 OA
ATOM      9  O   UNL     1       7.643   7.652  16.830  0.00  0.00    +0.000 OA
ENDBRANCH   1   7
BRANCH   1  10
ATOM     10  C   UNL     1       7.034   4.586  16.698  0.00  0.00    +0.000 C 
BRANCH  10  11
ATOM     11  C   UNL     1       6.675   4.709  15.210  0.00  0.00    +0.000 C 
BRANCH  11  12
ATOM     12  N   UNL     1       7.716   5.446  14.505  0.00  0.00    +0.000 NA
ATOM     13  H   UNL     1       7.779   5.113  13.542  0.00  0.00    +0.000 HD
ATOM     14  H   UNL     1       8.628   5.269  14.925  0.00  0.00    +0.000 HD
ENDBRANCH  11  12
ENDBRANCH  10  11
ENDBRANCH   1  10
TORSDOF 4
ENDMDL
MODEL 4
REMARK VINA RESULT:      -5.3      2.696      3.965
REMARK  Name = 
REMARK  4 active torsions:
REMARK  status: ('A' for Active; 'I' for Inactive)
REMARK    1  A    between atoms: N_1  and  C_2
REMARK    2  A    between atoms: C_2  and  C_3
REMARK    3  A    between atoms: C_3  and  C_4
REMARK    4  A    between atoms: C_4  and  N_5
REMARK                            x       y       z     vdW  Elec       q    Type
REMARK                         _______ _______ _______ _____ _____    ______ ____
ROOT
ATOM      1  C   UNL     1       4.469   4.658  17.789  0.00  0.00    +0.000 C 
ATOM      2  C   UNL     1       5.009   3.961  16.565  0.00  0.00    +0.000 C 
ATOM      3  C   UNL     1       5.447   4.646  15.506  0.00  0.00    +0.000 C 
ATOM      4  N   UNL     1       5.454   6.004  15.401  0.00  0.00    +0.000 NA
ATOM      5  C   UNL     1       5.090   6.708  16.425  0.00  0.00    +0.000 C 
ATOM      6  C   UNL     1       4.615   6.188  17.751  0.00  0.00    +0.000 C 
ENDROOT
BRANCH   1   7
ATOM      7  N   UNL     1       5.356   4.175  18.967  0.00  0.00    +0.000 N 
ATOM      8  O   UNL     1       6.384   4.816  19.228  0.00  0.00    +0.000 OA
ATOM      9  O   UNL     1       4.994   3.155  19.572  0.00  0.00    +0.000 OA
ENDBRANCH   1   7
BRANCH   1  10
ATOM     10  C   UNL     1       2.998   4.238  18.058  0.00  0.00    +0.000 C 
BRANCH  10  11
ATOM     11  C   UNL     1       2.541   3.012  17.256  0.00  0.00    +0.000 C 
BRANCH  11  12
ATOM     12  N   UNL     1       2.524   1.833  18.114  0.00  0.00    +0.000 NA
ATOM     13  H   UNL     1       1.868   1.146  17.740  0.00  0.00    +0.000 HD
ATOM     14  H   UNL     1       2.182   2.072  19.045  0.00  0.00    +0.000 HD
ENDBRANCH  11  12
ENDBRANCH  10  11
ENDBRANCH   1  10
TORSDOF 4
ENDMDL
MODEL 5
REMARK VINA RESULT:      -5.2      2.586      3.819
REMARK  Name = 
REMARK  4 active torsions:
REMARK  status: ('A' for Active; 'I' for Inactive)
REMARK    1  A    between atoms: N_1  and  C_2
REMARK    2  A    between atoms: C_2  and  C_3
REMARK    3  A    between atoms: C_3  and  C_4
REMARK    4  A    between atoms: C_4  and  N_5
REMARK                            x       y       z     vdW  Elec       q    Type
REMARK                         _______ _______ _______ _____ _____    ______ ____
ROOT
ATOM      1  C   UNL     1       4.978   4.577  17.447  0.00  0.00    +0.000 C 
ATOM      2  C   UNL     1       6.185   4.894  18.294  0.00  0.00    +0.000 C 
ATOM      3  C   UNL     1       7.423   4.842  17.797  0.00  0.00    +0.000 C 
ATOM      4  N   UNL     1       7.736   4.503  16.516  0.00  0.00    +0.000 NA
ATOM      5  C   UNL     1       6.774   4.290  15.675  0.00  0.00    +0.000 C 
ATOM      6  C   UNL     1       5.301   4.346  15.962  0.00  0.00    +0.000 C 
ENDROOT
BRANCH   1   7
ATOM      7  N   UNL     1       4.091   5.849  17.496  0.00  0.00    +0.000 N 
ATOM      8  O   UNL     1       2.905   5.725  17.835  0.00  0.00    +0.000 OA
ATOM      9  O   UNL     1       4.618   6.923  17.171  0.00  0.00    +0.000 OA
ENDBRANCH   1   7
BRANCH   1  10
ATOM     10  C   UNL     1       4.184   3.382  18.044  0.00  0.00    +0.000 C 
BRANCH  10  11
ATOM     11  C   UNL     1       4.448   3.140  19.537  0.00  0.00    +0.000 C 
BRANCH  11  12
ATOM     12  N   UNL     1       4.942   1.784  19.742  0.00  0.00    +0.000 NA
ATOM     13  H   UNL     1       5.078   1.328  18.838  0.00  0.00    +0.000 HD
ATOM     14  H   UNL     1       4.252   1.222  20.240  0.00  0.00    +0.000 HD
ENDBRANCH  11  12
ENDBRANCH  10  11
ENDBRANCH   1  10
TORSDOF 4
ENDMDL
MODEL 6
REMARK VINA RESULT:      -5.2      2.738      3.745
REMARK  Name = 
REMARK  4 active torsions:
REMARK  status: ('A' for Active; 'I' for Inactive)
REMARK    1  A    between atoms: N_1  and  C_2
REMARK    2  A    between atoms: C_2  and  C_3
REMARK    3  A    between atoms: C_3  and  C_4
REMARK    4  A    between atoms: C_4  and  N_5
REMARK                            x       y       z     vdW  Elec       q    Type
REMARK                         _______ _______ _______ _____ _____    ______ ____
ROOT
ATOM      1  C   UNL     1       4.341   4.474  17.682  0.00  0.00    +0.000 C 
ATOM      2  C   UNL     1       3.198   5.386  18.052  0.00  0.00    +0.000 C 
ATOM      3  C   UNL     1       1.930   4.968  18.021  0.00  0.00    +0.000 C 
ATOM      4  N   UNL     1       1.529   3.717  17.660  0.00  0.00    +0.000 NA
ATOM      5  C   UNL     1       2.431   2.825  17.401  0.00  0.00    +0.000 C 
ATOM      6  C   UNL     1       3.920   3.019  17.424  0.00  0.00    +0.000 C 
ENDROOT
BRANCH   1   7
ATOM      7  N   UNL     1       5.262   4.436  18.931  0.00  0.00    +0.000 N 
ATOM      8  O   UNL     1       5.284   3.402  19.612  0.00  0.00    +0.000 OA
ATOM      9  O   UNL     1       5.912   5.460  19.190  0.00  0.00    +0.000 OA
ENDBRANCH   1   7
BRANCH   1  10
ATOM     10  C   UNL     1       5.140   5.052  16.482  0.00  0.00    +0.000 C 
BRANCH  10  11
ATOM     11  C   UNL     1       6.291   4.155  16.006  0.00  0.00    +0.000 C 
BRANCH  11  12
ATOM     12  N   UNL     1       7.564   4.685  16.481  0.00  0.00    +0.000 NA
ATOM     13  H   UNL     1       8.235   4.705  15.711  0.00  0.00    +0.000 HD
ATOM     14  H   UNL     1       7.967   4.071  17.189  0.00  0.00    +0.000 HD
ENDBRANCH  11  12
ENDBRANCH  10  11
ENDBRANCH   1  10
TORSDOF 4
ENDMDL
MODEL 7
REMARK VINA RESULT:      -5.2      3.910      5.326
REMARK  Name = 
REMARK  4 active torsions:
REMARK  status: ('A' for Active; 'I' for Inactive)
REMARK    1  A    between atoms: N_1  and  C_2
REMARK    2  A    between atoms: C_2  and  C_3
REMARK    3  A    between atoms: C_3  and  C_4
REMARK    4  A    between atoms: C_4  and  N_5
REMARK                            x       y       z     vdW  Elec       q    Type
REMARK                         _______ _______ _______ _____ _____    ______ ____
ROOT
ATOM      1  C   UNL     1       2.358   3.994  19.107  0.00  0.00    +0.000 C 
ATOM      2  C   UNL     1       2.325   5.180  18.175  0.00  0.00    +0.000 C 
ATOM      3  C   UNL     1       3.443   5.796  17.786  0.00  0.00    +0.000 C 
ATOM      4  N   UNL     1       4.702   5.448  18.172  0.00  0.00    +0.000 NA
ATOM      5  C   UNL     1       4.858   4.393  18.906  0.00  0.00    +0.000 C 
ATOM      6  C   UNL     1       3.775   3.491  19.426  0.00  0.00    +0.000 C 
ENDROOT
BRANCH   1   7
ATOM      7  N   UNL     1       1.662   2.841  18.335  0.00  0.00    +0.000 N 
ATOM      8  O   UNL     1       2.162   2.463  17.267  0.00  0.00    +0.000 OA
ATOM      9  O   UNL     1       0.623   2.374  18.827  0.00  0.00    +0.000 OA
ENDBRANCH   1   7
BRANCH   1  10
ATOM     10  C   UNL     1       1.559   4.291  20.405  0.00  0.00    +0.000 C 
BRANCH  10  11
ATOM     11  C   UNL     1       2.176   3.684  21.673  0.00  0.00    +0.000 C 
BRANCH  11  12
ATOM     12  N   UNL     1       1.522   2.421  21.991  0.00  0.00    +0.000 NA
ATOM     13  H   UNL     1       1.828   1.702  21.335  0.00  0.00    +0.000 HD
ATOM     14  H   UNL     1       0.512   2.501  21.872  0.00  0.00    +0.000 HD
ENDBRANCH  11  12
ENDBRANCH  10  11
ENDBRANCH   1  10
TORSDOF 4
ENDMDL
MODEL 8
REMARK VINA RESULT:      -5.2      2.431      3.535
REMARK  Name = 
REMARK  4 active torsions:
REMARK  status: ('A' for Active; 'I' for Inactive)
REMARK    1  A    between atoms: N_1  and  C_2
REMARK    2  A    between atoms: C_2  and  C_3
REMARK    3  A    between atoms: C_3  and  C_4
REMARK    4  A    between atoms: C_4  and  N_5
REMARK                            x       y       z     vdW  Elec       q    Type
REMARK                         _______ _______ _______ _____ _____    ______ ____
ROOT
ATOM      1  C   UNL     1       6.218   5.212  17.975  0.00  0.00    +0.000 C 
ATOM      2  C   UNL     1       7.017   4.544  16.884  0.00  0.00    +0.000 C 
ATOM      3  C   UNL     1       6.850   4.863  15.598  0.00  0.00    +0.000 C 
ATOM      4  N   UNL     1       5.968   5.789  15.132  0.00  0.00    +0.000 NA
ATOM      5  C   UNL     1       5.287   6.485  15.985  0.00  0.00    +0.000 C 
ATOM      6  C   UNL     1       5.333   6.368  17.482  0.00  0.00    +0.000 C 
ENDROOT
BRANCH   1   7
ATOM      7  N   UNL     1       7.266   5.853  18.923  0.00  0.00    +0.000 N 
ATOM      8  O   UNL     1       7.372   5.403  20.072  0.00  0.00    +0.000 OA
ATOM      9  O   UNL     1       7.930   6.802  18.479  0.00  0.00    +0.000 OA
ENDBRANCH   1   7
BRANCH   1  10
ATOM     10  C   UNL     1       5.390   4.166  18.770  0.00  0.00    +0.000 C 
BRANCH  10  11
ATOM     11  C   UNL     1       4.234   3.546  17.972  0.00  0.00    +0.000 C 
BRANCH  11  12
ATOM     12  N   UNL     1       4.160   2.114  18.233  0.00  0.00    +0.000 NA
ATOM     13  H   UNL     1       4.673   1.894  19.088  0.00  0.00    +0.000 HD
ATOM     14  H   UNL     1       4.618   1.590  17.488  0.00  0.00    +0.000 HD
ENDBRANCH  11  12
ENDBRANCH  10  11
ENDBRANCH   1  10
TORSDOF 4
ENDMDL
MODEL 9
REMARK VINA RESULT:      -5.2      2.375      3.112
REMARK  Name = 
REMARK  4 active torsions:
REMARK  status: ('A' for Active; 'I' for Inactive)
REMARK    1  A    between atoms: N_1  and  C_2
REMARK    2  A    between atoms: C_2  and  C_3
REMARK    3  A    between atoms: C_3  and  C_4
REMARK    4  A    between atoms: C_4  and  N_5
REMARK                            x       y       z     vdW  Elec       q    Type
REMARK                         _______ _______ _______ _____ _____    ______ ____
ROOT
ATOM      1  C   UNL     1       6.533   5.813  17.579  0.00  0.00    +0.000 C 
ATOM      2  C   UNL     1       7.275   4.722  16.847  0.00  0.00    +0.000 C 
ATOM      3  C   UNL     1       6.923   4.341  15.617  0.00  0.00    +0.000 C 
ATOM      4  N   UNL     1       5.890   4.865  14.901  0.00  0.00    +0.000 NA
ATOM      5  C   UNL     1       5.234   5.864  15.398  0.00  0.00    +0.000 C 
ATOM      6  C   UNL     1       5.466   6.521  16.729  0.00  0.00    +0.000 C 
ENDROOT
BRANCH   1   7
ATOM      7  N   UNL     1       7.599   6.892  17.907  0.00  0.00    +0.000 N 
ATOM      8  O   UNL     1       7.754   7.826  17.109  0.00  0.00    +0.000 OA
ATOM      9  O   UNL     1       8.256   6.744  18.949  0.00  0.00    +0.000 OA
ENDBRANCH   1   7
BRANCH   1  10
ATOM     10  C   UNL     1       5.932   5.275  18.906  0.00  0.00    +0.000 C 
BRANCH  10  11
ATOM     11  C   UNL     1       4.857   4.196  18.714  0.00  0.00    +0.000 C 
BRANCH  11  12
ATOM     12  N   UNL     1       5.206   3.003  19.476  0.00  0.00    +0.000 NA
ATOM     13  H   UNL     1       5.787   2.389  18.903  0.00  0.00    +0.000 HD
ATOM     14  H   UNL     1       4.370   2.466  19.705  0.00  0.00    +0.000 HD
ENDBRANCH  11  12
ENDBRANCH  10  11
ENDBRANCH   1  10
TORSDOF 4
ENDMDL
