MODEL 1
REMARK VINA RESULT:      -7.9      0.000      0.000
REMARK  Name = 
REMARK  7 active torsions:
REMARK  status: ('A' for Active; 'I' for Inactive)
REMARK    1  A    between atoms: C_1  and  C_2
REMARK    2  A    between atoms: C_2  and  C_3
REMARK    3  A    between atoms: C_3  and  C_4
REMARK    4  A    between atoms: C_4  and  C_5
REMARK    5  A    between atoms: C_8  and  N_9
REMARK    6  A    between atoms: C_14  and  C_15
REMARK    7  A    between atoms: N_17  and  C_18
REMARK                            x       y       z     vdW  Elec       q    Type
REMARK                         _______ _______ _______ _____ _____    ______ ____
ROOT
ATOM      1  N   UNL     1       1.040  11.057  19.248  0.00  0.00    +0.000 N 
ATOM      2  C   UNL     1       1.411   9.803  18.876  0.00  0.00    +0.000 A 
ATOM      3  N   UNL     1       1.897   9.649  17.639  0.00  0.00    +0.000 NA
ATOM      4  O   UNL     1       2.324   8.359  17.533  0.00  0.00    +0.000 OA
ATOM      5  C   UNL     1       2.126   7.705  18.703  0.00  0.00    +0.000 A 
ATOM      6  C   UNL     1       2.528   6.382  18.958  0.00  0.00    +0.000 A 
ATOM      7  C   UNL     1       2.170   5.869  20.209  0.00  0.00    +0.000 A 
ATOM      8 CL   UNL     1       2.562   4.258  20.705  0.00  0.00    +0.000 Cl
ATOM      9  C   UNL     1       1.505   6.675  21.143  0.00  0.00    +0.000 A 
ATOM     10  C   UNL     1       1.196   8.025  20.872  0.00  0.00    +0.000 A 
ATOM     11  C   UNL     1       1.487   8.559  19.598  0.00  0.00    +0.000 A 
ATOM     12  H   UNL     1       1.325  11.725  18.531  0.00  0.00    +0.000 HD
ENDROOT
BRANCH   1  16
ATOM     13  C   UNL     1      -2.140  12.802  21.479  0.00  0.00    +0.000 A 
ATOM     14  C   UNL     1      -0.876  12.637  22.055  0.00  0.00    +0.000 A 
ATOM     15  C   UNL     1       0.186  12.059  21.341  0.00  0.00    +0.000 A 
ATOM     16  C   UNL     1       0.022  11.635  20.028  0.00  0.00    +0.000 A 
ATOM     17  C   UNL     1      -1.247  11.824  19.443  0.00  0.00    +0.000 A 
ATOM     18  C   UNL     1      -2.318  12.379  20.159  0.00  0.00    +0.000 A 
BRANCH  13  19
ATOM     19  C   UNL     1      -3.307  13.309  22.294  0.00  0.00    +0.000 C 
BRANCH  19  20
ATOM     20  C   UNL     1      -3.151  13.260  23.822  0.00  0.00    +0.000 C 
BRANCH  20  22
ATOM     21  C   UNL     1      -5.639  12.891  23.931  0.00  0.00    +0.000 C 
ATOM     22  C   UNL     1      -4.289  12.533  24.540  0.00  0.00    +0.000 C 
ENDBRANCH  20  22
ENDBRANCH  19  20
ENDBRANCH  13  19
ENDBRANCH   1  16
BRANCH   6  23
ATOM     23  C   UNL     1       3.391   5.727  17.949  0.00  0.00    +0.000 C 
ATOM     24  O   UNL     1       2.971   4.695  17.436  0.00  0.00    +0.000 OA
ATOM     25  N   UNL     1       4.606   6.312  17.644  0.00  0.00    +0.000 N 
ATOM     26  H   UNL     1       4.831   7.202  18.077  0.00  0.00    +0.000 HD
BRANCH  25  27
ATOM     27  C   UNL     1       5.545   5.797  16.719  0.00  0.00    +0.000 A 
ATOM     28  C   UNL     1       5.458   5.874  15.337  0.00  0.00    +0.000 A 
ATOM     29  N   UNL     1       6.384   5.369  14.487  0.00  0.00    +0.000 NA
ATOM     30  C   UNL     1       7.432   4.761  15.056  0.00  0.00    +0.000 A 
ATOM     31  N   UNL     1       7.632   4.613  16.374  0.00  0.00    +0.000 NA
ATOM     32  C   UNL     1       6.675   5.139  17.173  0.00  0.00    +0.000 A 
ENDBRANCH  25  27
ENDBRANCH   6  23
TORSDOF 6
ENDMDL
MODEL 2
REMARK VINA RESULT:      -7.8      1.746      2.082
REMARK  Name = 
REMARK  7 active torsions:
REMARK  status: ('A' for Active; 'I' for Inactive)
REMARK    1  A    between atoms: C_1  and  C_2
REMARK    2  A    between atoms: C_2  and  C_3
REMARK    3  A    between atoms: C_3  and  C_4
REMARK    4  A    between atoms: C_4  and  C_5
REMARK    5  A    between atoms: C_8  and  N_9
REMARK    6  A    between atoms: C_14  and  C_15
REMARK    7  A    between atoms: N_17  and  C_18
REMARK                            x       y       z     vdW  Elec       q    Type
REMARK                         _______ _______ _______ _____ _____    ______ ____
ROOT
ATOM      1  N   UNL     1       0.720  11.020  18.822  0.00  0.00    +0.000 N 
ATOM      2  C   UNL     1       1.306   9.801  18.687  0.00  0.00    +0.000 A 
ATOM      3  N   UNL     1       2.148   9.637  17.660  0.00  0.00    +0.000 NA
ATOM      4  O   UNL     1       2.713   8.404  17.796  0.00  0.00    +0.000 OA
ATOM      5  C   UNL     1       2.245   7.798  18.914  0.00  0.00    +0.000 A 
ATOM      6  C   UNL     1       2.683   6.551  19.390  0.00  0.00    +0.000 A 
ATOM      7  C   UNL     1       2.025   6.069  20.527  0.00  0.00    +0.000 A 
ATOM      8 CL   UNL     1       2.411   4.549  21.256  0.00  0.00    +0.000 Cl
ATOM      9  C   UNL     1       1.038   6.841  21.156  0.00  0.00    +0.000 A 
ATOM     10  C   UNL     1       0.690   8.126  20.687  0.00  0.00    +0.000 A 
ATOM     11  C   UNL     1       1.290   8.618  19.508  0.00  0.00    +0.000 A 
ATOM     12  H   UNL     1       1.136  11.676  18.162  0.00  0.00    +0.000 HD
ENDROOT
BRANCH   1  16
ATOM     13  C   UNL     1      -3.136  12.479  19.888  0.00  0.00    +0.000 A 
ATOM     14  C   UNL     1      -2.064  12.591  20.780  0.00  0.00    +0.000 A 
ATOM     15  C   UNL     1      -0.786  12.112  20.453  0.00  0.00    +0.000 A 
ATOM     16  C   UNL     1      -0.535  11.514  19.224  0.00  0.00    +0.000 A 
ATOM     17  C   UNL     1      -1.612  11.424  18.319  0.00  0.00    +0.000 A 
ATOM     18  C   UNL     1      -2.897  11.879  18.648  0.00  0.00    +0.000 A 
BRANCH  13  19
ATOM     19  C   UNL     1      -4.534  12.884  20.296  0.00  0.00    +0.000 C 
BRANCH  19  20
ATOM     20  C   UNL     1      -5.676  12.439  19.369  0.00  0.00    +0.000 C 
BRANCH  20  22
ATOM     21  C   UNL     1      -6.812  10.212  19.066  0.00  0.00    +0.000 C 
ATOM     22  C   UNL     1      -6.616  11.405  19.992  0.00  0.00    +0.000 C 
ENDBRANCH  20  22
ENDBRANCH  19  20
ENDBRANCH  13  19
ENDBRANCH   1  16
BRANCH   6  23
ATOM     23  C   UNL     1       3.866   5.949  18.733  0.00  0.00    +0.000 C 
ATOM     24  O   UNL     1       4.750   5.511  19.462  0.00  0.00    +0.000 OA
ATOM     25  N   UNL     1       3.903   5.912  17.353  0.00  0.00    +0.000 N 
ATOM     26  H   UNL     1       3.089   6.242  16.843  0.00  0.00    +0.000 HD
BRANCH  25  27
ATOM     27  C   UNL     1       4.968   5.388  16.583  0.00  0.00    +0.000 A 
ATOM     28  C   UNL     1       5.031   4.117  16.031  0.00  0.00    +0.000 A 
ATOM     29  N   UNL     1       6.072   3.656  15.297  0.00  0.00    +0.000 NA
ATOM     30  C   UNL     1       7.086   4.511  15.119  0.00  0.00    +0.000 A 
ATOM     31  N   UNL     1       7.154   5.760  15.602  0.00  0.00    +0.000 NA
ATOM     32  C   UNL     1       6.085   6.165  16.326  0.00  0.00    +0.000 A 
ENDBRANCH  25  27
ENDBRANCH   6  23
TORSDOF 6
ENDMDL
MODEL 3
REMARK VINA RESULT:      -7.7      4.188     10.599
REMARK  Name = 
REMARK  7 active torsions:
REMARK  status: ('A' for Active; 'I' for Inactive)
REMARK    1  A    between atoms: C_1  and  C_2
REMARK    2  A    between atoms: C_2  and  C_3
REMARK    3  A    between atoms: C_3  and  C_4
REMARK    4  A    between atoms: C_4  and  C_5
REMARK    5  A    between atoms: C_8  and  N_9
REMARK    6  A    between atoms: C_14  and  C_15
REMARK    7  A    between atoms: N_17  and  C_18
REMARK                            x       y       z     vdW  Elec       q    Type
REMARK                         _______ _______ _______ _____ _____    ______ ____
ROOT
ATOM      1  N   UNL     1       1.826   7.788  21.361  0.00  0.00    +0.000 N 
ATOM      2  C   UNL     1       1.166   8.972  21.466  0.00  0.00    +0.000 A 
ATOM      3  N   UNL     1       0.790   9.356  22.692  0.00  0.00    +0.000 NA
ATOM      4  O   UNL     1       0.276  10.613  22.579  0.00  0.00    +0.000 OA
ATOM      5  C   UNL     1       0.344  11.030  21.291  0.00  0.00    +0.000 A 
ATOM      6  C   UNL     1      -0.029  12.309  20.844  0.00  0.00    +0.000 A 
ATOM      7  C   UNL     1       0.054  12.519  19.463  0.00  0.00    +0.000 A 
ATOM      8 CL   UNL     1      -0.371  14.021  18.719  0.00  0.00    +0.000 Cl
ATOM      9  C   UNL     1       0.541  11.510  18.620  0.00  0.00    +0.000 A 
ATOM     10  C   UNL     1       0.981  10.268  19.127  0.00  0.00    +0.000 A 
ATOM     11  C   UNL     1       0.855  10.000  20.507  0.00  0.00    +0.000 A 
ATOM     12  H   UNL     1       2.046   7.434  22.291  0.00  0.00    +0.000 HD
ENDROOT
BRANCH   1  16
ATOM     13  C   UNL     1       2.038   4.659  18.479  0.00  0.00    +0.000 A 
ATOM     14  C   UNL     1       1.430   4.441  19.720  0.00  0.00    +0.000 A 
ATOM     15  C   UNL     1       1.354   5.455  20.688  0.00  0.00    +0.000 A 
ATOM     16  C   UNL     1       1.874   6.720  20.445  0.00  0.00    +0.000 A 
ATOM     17  C   UNL     1       2.465   6.944  19.185  0.00  0.00    +0.000 A 
ATOM     18  C   UNL     1       2.566   5.928  18.223  0.00  0.00    +0.000 A 
BRANCH  13  19
ATOM     19  C   UNL     1       2.226   3.528  17.494  0.00  0.00    +0.000 C 
BRANCH  19  20
ATOM     20  C   UNL     1       3.576   2.796  17.540  0.00  0.00    +0.000 C 
BRANCH  20  22
ATOM     21  C   UNL     1       4.309   2.118  19.852  0.00  0.00    +0.000 C 
ATOM     22  C   UNL     1       3.633   1.662  18.565  0.00  0.00    +0.000 C 
ENDBRANCH  20  22
ENDBRANCH  19  20
ENDBRANCH  13  19
ENDBRANCH   1  16
BRANCH   6  23
ATOM     23  C   UNL     1      -0.334  13.328  21.874  0.00  0.00    +0.000 C 
ATOM     24  O   UNL     1       0.592  14.035  22.257  0.00  0.00    +0.000 OA
ATOM     25  N   UNL     1      -1.633  13.425  22.337  0.00  0.00    +0.000 N 
ATOM     26  H   UNL     1      -2.340  12.837  21.907  0.00  0.00    +0.000 HD
BRANCH  25  27
ATOM     27  C   UNL     1      -2.075  14.332  23.329  0.00  0.00    +0.000 A 
ATOM     28  C   UNL     1      -1.425  14.625  24.518  0.00  0.00    +0.000 A 
ATOM     29  N   UNL     1      -1.884  15.505  25.441  0.00  0.00    +0.000 NA
ATOM     30  C   UNL     1      -3.043  16.106  25.149  0.00  0.00    +0.000 A 
ATOM     31  N   UNL     1      -3.774  15.908  24.042  0.00  0.00    +0.000 NA
ATOM     32  C   UNL     1      -3.264  15.020  23.158  0.00  0.00    +0.000 A 
ENDBRANCH  25  27
ENDBRANCH   6  23
TORSDOF 6
ENDMDL
MODEL 4
REMARK VINA RESULT:      -7.7      4.287     10.724
REMARK  Name = 
REMARK  7 active torsions:
REMARK  status: ('A' for Active; 'I' for Inactive)
REMARK    1  A    between atoms: C_1  and  C_2
REMARK    2  A    between atoms: C_2  and  C_3
REMARK    3  A    between atoms: C_3  and  C_4
REMARK    4  A    between atoms: C_4  and  C_5
REMARK    5  A    between atoms: C_8  and  N_9
REMARK    6  A    between atoms: C_14  and  C_15
REMARK    7  A    between atoms: N_17  and  C_18
REMARK                            x       y       z     vdW  Elec       q    Type
REMARK                         _______ _______ _______ _____ _____    ______ ____
ROOT
ATOM      1  N   UNL     1       1.788   8.115  21.402  0.00  0.00    +0.000 N 
ATOM      2  C   UNL     1       1.107   9.286  21.516  0.00  0.00    +0.000 A 
ATOM      3  N   UNL     1       0.659   9.618  22.733  0.00  0.00    +0.000 NA
ATOM      4  O   UNL     1       0.134  10.873  22.640  0.00  0.00    +0.000 OA
ATOM      5  C   UNL     1       0.268  11.341  21.375  0.00  0.00    +0.000 A 
ATOM      6  C   UNL     1      -0.097  12.632  20.958  0.00  0.00    +0.000 A 
ATOM      7  C   UNL     1       0.060  12.897  19.593  0.00  0.00    +0.000 A 
ATOM      8 CL   UNL     1      -0.345  14.422  18.884  0.00  0.00    +0.000 Cl
ATOM      9  C   UNL     1       0.605  11.927  18.740  0.00  0.00    +0.000 A 
ATOM     10  C   UNL     1       1.033  10.672  19.222  0.00  0.00    +0.000 A 
ATOM     11  C   UNL     1       0.835  10.348  20.581  0.00  0.00    +0.000 A 
ATOM     12  H   UNL     1       1.961   7.728  22.329  0.00  0.00    +0.000 HD
ENDROOT
BRANCH   1  16
ATOM     13  C   UNL     1       2.082   4.890  18.636  0.00  0.00    +0.000 A 
ATOM     14  C   UNL     1       2.467   6.183  18.264  0.00  0.00    +0.000 A 
ATOM     15  C   UNL     1       2.374   7.262  19.156  0.00  0.00    +0.000 A 
ATOM     16  C   UNL     1       1.900   7.085  20.450  0.00  0.00    +0.000 A 
ATOM     17  C   UNL     1       1.535   5.778  20.830  0.00  0.00    +0.000 A 
ATOM     18  C   UNL     1       1.604   4.700  19.936  0.00  0.00    +0.000 A 
BRANCH  13  19
ATOM     19  C   UNL     1       2.069   3.761  17.632  0.00  0.00    +0.000 C 
BRANCH  19  20
ATOM     20  C   UNL     1       3.372   2.960  17.482  0.00  0.00    +0.000 C 
BRANCH  20  22
ATOM     21  C   UNL     1       4.212   2.052  19.676  0.00  0.00    +0.000 C 
ATOM     22  C   UNL     1       3.455   1.734  18.392  0.00  0.00    +0.000 C 
ENDBRANCH  20  22
ENDBRANCH  19  20
ENDBRANCH  13  19
ENDBRANCH   1  16
BRANCH   6  23
ATOM     23  C   UNL     1      -0.473  13.606  22.008  0.00  0.00    +0.000 C 
ATOM     24  O   UNL     1       0.438  14.207  22.569  0.00  0.00    +0.000 OA
ATOM     25  N   UNL     1      -1.814  13.782  22.291  0.00  0.00    +0.000 N 
ATOM     26  H   UNL     1      -2.492  13.285  21.723  0.00  0.00    +0.000 HD
BRANCH  25  27
ATOM     27  C   UNL     1      -2.327  14.659  23.276  0.00  0.00    +0.000 A 
ATOM     28  C   UNL     1      -2.411  14.403  24.636  0.00  0.00    +0.000 A 
ATOM     29  N   UNL     1      -2.908  15.275  25.546  0.00  0.00    +0.000 NA
ATOM     30  C   UNL     1      -3.337  16.446  25.060  0.00  0.00    +0.000 A 
ATOM     31  N   UNL     1      -3.319  16.815  23.772  0.00  0.00    +0.000 NA
ATOM     32  C   UNL     1      -2.811  15.904  22.910  0.00  0.00    +0.000 A 
ENDBRANCH  25  27
ENDBRANCH   6  23
TORSDOF 6
ENDMDL
MODEL 5
REMARK VINA RESULT:      -7.7      0.351      1.262
REMARK  Name = 
REMARK  7 active torsions:
REMARK  status: ('A' for Active; 'I' for Inactive)
REMARK    1  A    between atoms: C_1  and  C_2
REMARK    2  A    between atoms: C_2  and  C_3
REMARK    3  A    between atoms: C_3  and  C_4
REMARK    4  A    between atoms: C_4  and  C_5
REMARK    5  A    between atoms: C_8  and  N_9
REMARK    6  A    between atoms: C_14  and  C_15
REMARK    7  A    between atoms: N_17  and  C_18
REMARK                            x       y       z     vdW  Elec       q    Type
REMARK                         _______ _______ _______ _____ _____    ______ ____
ROOT
ATOM      1  N   UNL     1       1.047  11.061  19.075  0.00  0.00    +0.000 N 
ATOM      2  C   UNL     1       1.432   9.795  18.760  0.00  0.00    +0.000 A 
ATOM      3  N   UNL     1       1.968   9.601  17.550  0.00  0.00    +0.000 NA
ATOM      4  O   UNL     1       2.398   8.309  17.503  0.00  0.00    +0.000 OA
ATOM      5  C   UNL     1       2.153   7.693  18.685  0.00  0.00    +0.000 A 
ATOM      6  C   UNL     1       2.543   6.380  18.999  0.00  0.00    +0.000 A 
ATOM      7  C   UNL     1       2.134   5.907  20.250  0.00  0.00    +0.000 A 
ATOM      8 CL   UNL     1       2.505   4.314  20.814  0.00  0.00    +0.000 Cl
ATOM      9  C   UNL     1       1.432   6.743  21.130  0.00  0.00    +0.000 A 
ATOM     10  C   UNL     1       1.135   8.083  20.802  0.00  0.00    +0.000 A 
ATOM     11  C   UNL     1       1.478   8.575  19.525  0.00  0.00    +0.000 A 
ATOM     12  H   UNL     1       1.361  11.705  18.350  0.00  0.00    +0.000 HD
ENDROOT
BRANCH   1  16
ATOM     13  C   UNL     1      -2.048  12.847  21.392  0.00  0.00    +0.000 A 
ATOM     14  C   UNL     1      -2.172  12.742  20.002  0.00  0.00    +0.000 A 
ATOM     15  C   UNL     1      -1.163  12.162  19.218  0.00  0.00    +0.000 A 
ATOM     16  C   UNL     1      -0.002  11.663  19.794  0.00  0.00    +0.000 A 
ATOM     17  C   UNL     1       0.110  11.749  21.197  0.00  0.00    +0.000 A 
ATOM     18  C   UNL     1      -0.884  12.348  21.984  0.00  0.00    +0.000 A 
BRANCH  13  19
ATOM     19  C   UNL     1      -3.081  13.583  22.213  0.00  0.00    +0.000 C 
BRANCH  19  20
ATOM     20  C   UNL     1      -3.689  12.816  23.398  0.00  0.00    +0.000 C 
BRANCH  20  22
ATOM     21  C   UNL     1      -6.199  12.947  23.569  0.00  0.00    +0.000 C 
ATOM     22  C   UNL     1      -4.875  13.526  24.053  0.00  0.00    +0.000 C 
ENDBRANCH  20  22
ENDBRANCH  19  20
ENDBRANCH  13  19
ENDBRANCH   1  16
BRANCH   6  23
ATOM     23  C   UNL     1       3.446   5.693  18.048  0.00  0.00    +0.000 C 
ATOM     24  O   UNL     1       3.085   4.602  17.619  0.00  0.00    +0.000 OA
ATOM     25  N   UNL     1       4.630   6.315  17.700  0.00  0.00    +0.000 N 
ATOM     26  H   UNL     1       4.804   7.248  18.060  0.00  0.00    +0.000 HD
BRANCH  25  27
ATOM     27  C   UNL     1       5.600   5.778  16.821  0.00  0.00    +0.000 A 
ATOM     28  C   UNL     1       6.755   5.106  17.189  0.00  0.00    +0.000 A 
ATOM     29  N   UNL     1       7.658   4.605  16.312  0.00  0.00    +0.000 NA
ATOM     30  C   UNL     1       7.382   4.795  15.016  0.00  0.00    +0.000 A 
ATOM     31  N   UNL     1       6.308   5.432  14.528  0.00  0.00    +0.000 NA
ATOM     32  C   UNL     1       5.443   5.909  15.451  0.00  0.00    +0.000 A 
ENDBRANCH  25  27
ENDBRANCH   6  23
TORSDOF 6
ENDMDL
MODEL 6
REMARK VINA RESULT:      -7.6      0.571      1.092
REMARK  Name = 
REMARK  7 active torsions:
REMARK  status: ('A' for Active; 'I' for Inactive)
REMARK    1  A    between atoms: C_1  and  C_2
REMARK    2  A    between atoms: C_2  and  C_3
REMARK    3  A    between atoms: C_3  and  C_4
REMARK    4  A    between atoms: C_4  and  C_5
REMARK    5  A    between atoms: C_8  and  N_9
REMARK    6  A    between atoms: C_14  and  C_15
REMARK    7  A    between atoms: N_17  and  C_18
REMARK                            x       y       z     vdW  Elec       q    Type
REMARK                         _______ _______ _______ _____ _____    ______ ____
ROOT
ATOM      1  N   UNL     1       1.026  11.342  18.878  0.00  0.00    +0.000 N 
ATOM      2  C   UNL     1       1.399  10.055  18.645  0.00  0.00    +0.000 A 
ATOM      3  N   UNL     1       1.973   9.789  17.465  0.00  0.00    +0.000 NA
ATOM      4  O   UNL     1       2.382   8.489  17.502  0.00  0.00    +0.000 OA
ATOM      5  C   UNL     1       2.086   7.941  18.706  0.00  0.00    +0.000 A 
ATOM      6  C   UNL     1       2.442   6.641  19.103  0.00  0.00    +0.000 A 
ATOM      7  C   UNL     1       1.983   6.243  20.363  0.00  0.00    +0.000 A 
ATOM      8 CL   UNL     1       2.307   4.677  21.023  0.00  0.00    +0.000 Cl
ATOM      9  C   UNL     1       1.266   7.135  21.172  0.00  0.00    +0.000 A 
ATOM     10  C   UNL     1       1.004   8.460  20.763  0.00  0.00    +0.000 A 
ATOM     11  C   UNL     1       1.399   8.878  19.474  0.00  0.00    +0.000 A 
ATOM     12  H   UNL     1       1.376  11.941  18.131  0.00  0.00    +0.000 HD
ENDROOT
BRANCH   1  16
ATOM     13  C   UNL     1      -2.292  13.257  20.738  0.00  0.00    +0.000 A 
ATOM     14  C   UNL     1      -0.986  13.539  21.151  0.00  0.00    +0.000 A 
ATOM     15  C   UNL     1       0.123  12.916  20.557  0.00  0.00    +0.000 A 
ATOM     16  C   UNL     1      -0.036  11.998  19.527  0.00  0.00    +0.000 A 
ATOM     17  C   UNL     1      -1.352  11.732  19.097  0.00  0.00    +0.000 A 
ATOM     18  C   UNL     1      -2.465  12.334  19.702  0.00  0.00    +0.000 A 
BRANCH  13  19
ATOM     19  C   UNL     1      -3.483  13.837  21.466  0.00  0.00    +0.000 C 
BRANCH  19  20
ATOM     20  C   UNL     1      -3.227  14.373  22.883  0.00  0.00    +0.000 C 
BRANCH  20  22
ATOM     21  C   UNL     1      -4.561  12.719  24.234  0.00  0.00    +0.000 C 
ATOM     22  C   UNL     1      -3.174  13.286  23.957  0.00  0.00    +0.000 C 
ENDBRANCH  20  22
ENDBRANCH  19  20
ENDBRANCH  13  19
ENDBRANCH   1  16
BRANCH   6  23
ATOM     23  C   UNL     1       3.365   5.890  18.221  0.00  0.00    +0.000 C 
ATOM     24  O   UNL     1       3.076   4.726  17.967  0.00  0.00    +0.000 OA
ATOM     25  N   UNL     1       4.486   6.539  17.739  0.00  0.00    +0.000 N 
ATOM     26  H   UNL     1       4.600   7.524  17.955  0.00  0.00    +0.000 HD
BRANCH  25  27
ATOM     27  C   UNL     1       5.467   5.951  16.905  0.00  0.00    +0.000 A 
ATOM     28  C   UNL     1       6.608   5.287  17.327  0.00  0.00    +0.000 A 
ATOM     29  N   UNL     1       7.522   4.736  16.491  0.00  0.00    +0.000 NA
ATOM     30  C   UNL     1       7.271   4.866  15.183  0.00  0.00    +0.000 A 
ATOM     31  N   UNL     1       6.212   5.488  14.644  0.00  0.00    +0.000 NA
ATOM     32  C   UNL     1       5.335   6.017  15.528  0.00  0.00    +0.000 A 
ENDBRANCH  25  27
ENDBRANCH   6  23
TORSDOF 6
ENDMDL
MODEL 7
REMARK VINA RESULT:      -7.6      1.332      1.561
REMARK  Name = 
REMARK  7 active torsions:
REMARK  status: ('A' for Active; 'I' for Inactive)
REMARK    1  A    between atoms: C_1  and  C_2
REMARK    2  A    between atoms: C_2  and  C_3
REMARK    3  A    between atoms: C_3  and  C_4
REMARK    4  A    between atoms: C_4  and  C_5
REMARK    5  A    between atoms: C_8  and  N_9
REMARK    6  A    between atoms: C_14  and  C_15
REMARK    7  A    between atoms: N_17  and  C_18
REMARK                            x       y       z     vdW  Elec       q    Type
REMARK                         _______ _______ _______ _____ _____    ______ ____
ROOT
ATOM      1  N   UNL     1       1.524   9.790  19.840  0.00  0.00    +0.000 N 
ATOM      2  C   UNL     1       1.822   8.611  19.233  0.00  0.00    +0.000 A 
ATOM      3  N   UNL     1       2.247   8.665  17.965  0.00  0.00    +0.000 NA
ATOM      4  O   UNL     1       2.612   7.401  17.609  0.00  0.00    +0.000 OA
ATOM      5  C   UNL     1       2.436   6.554  18.652  0.00  0.00    +0.000 A 
ATOM      6  C   UNL     1       2.790   5.194  18.646  0.00  0.00    +0.000 A 
ATOM      7  C   UNL     1       2.464   4.477  19.802  0.00  0.00    +0.000 A 
ATOM      8 CL   UNL     1       2.806   2.790  19.983  0.00  0.00    +0.000 Cl
ATOM      9  C   UNL     1       1.877   5.124  20.898  0.00  0.00    +0.000 A 
ATOM     10  C   UNL     1       1.616   6.511  20.887  0.00  0.00    +0.000 A 
ATOM     11  C   UNL     1       1.875   7.255  19.716  0.00  0.00    +0.000 A 
ATOM     12  H   UNL     1       1.807  10.565  19.241  0.00  0.00    +0.000 HD
ENDROOT
BRANCH   1  16
ATOM     13  C   UNL     1      -1.408  11.315  22.526  0.00  0.00    +0.000 A 
ATOM     14  C   UNL     1      -0.600  10.235  22.896  0.00  0.00    +0.000 A 
ATOM     15  C   UNL     1       0.369   9.712  22.025  0.00  0.00    +0.000 A 
ATOM     16  C   UNL     1       0.567  10.254  20.762  0.00  0.00    +0.000 A 
ATOM     17  C   UNL     1      -0.233  11.357  20.401  0.00  0.00    +0.000 A 
ATOM     18  C   UNL     1      -1.218  11.869  21.257  0.00  0.00    +0.000 A 
BRANCH  13  19
ATOM     19  C   UNL     1      -2.531  11.790  23.419  0.00  0.00    +0.000 C 
BRANCH  19  20
ATOM     20  C   UNL     1      -2.917  13.274  23.306  0.00  0.00    +0.000 C 
BRANCH  20  22
ATOM     21  C   UNL     1      -4.831  12.710  21.768  0.00  0.00    +0.000 C 
ATOM     22  C   UNL     1      -4.396  13.507  22.992  0.00  0.00    +0.000 C 
ENDBRANCH  20  22
ENDBRANCH  19  20
ENDBRANCH  13  19
ENDBRANCH   1  16
BRANCH   6  23
ATOM     23  C   UNL     1       3.579   4.701  17.494  0.00  0.00    +0.000 C 
ATOM     24  O   UNL     1       3.267   3.612  17.025  0.00  0.00    +0.000 OA
ATOM     25  N   UNL     1       4.608   5.490  17.017  0.00  0.00    +0.000 N 
ATOM     26  H   UNL     1       4.742   6.406  17.434  0.00  0.00    +0.000 HD
BRANCH  25  27
ATOM     27  C   UNL     1       5.459   5.149  15.939  0.00  0.00    +0.000 A 
ATOM     28  C   UNL     1       5.102   4.425  14.812  0.00  0.00    +0.000 A 
ATOM     29  N   UNL     1       5.951   4.122  13.800  0.00  0.00    +0.000 NA
ATOM     30  C   UNL     1       7.206   4.566  13.937  0.00  0.00    +0.000 A 
ATOM     31  N   UNL     1       7.681   5.268  14.976  0.00  0.00    +0.000 NA
ATOM     32  C   UNL     1       6.787   5.541  15.954  0.00  0.00    +0.000 A 
ENDBRANCH  25  27
ENDBRANCH   6  23
TORSDOF 6
ENDMDL
MODEL 8
REMARK VINA RESULT:      -7.6      4.041     10.714
REMARK  Name = 
REMARK  7 active torsions:
REMARK  status: ('A' for Active; 'I' for Inactive)
REMARK    1  A    between atoms: C_1  and  C_2
REMARK    2  A    between atoms: C_2  and  C_3
REMARK    3  A    between atoms: C_3  and  C_4
REMARK    4  A    between atoms: C_4  and  C_5
REMARK    5  A    between atoms: C_8  and  N_9
REMARK    6  A    between atoms: C_14  and  C_15
REMARK    7  A    between atoms: N_17  and  C_18
REMARK                            x       y       z     vdW  Elec       q    Type
REMARK                         _______ _______ _______ _____ _____    ______ ____
ROOT
ATOM      1  N   UNL     1       1.822   7.977  21.458  0.00  0.00    +0.000 N 
ATOM      2  C   UNL     1       1.128   9.141  21.563  0.00  0.00    +0.000 A 
ATOM      3  N   UNL     1       0.716   9.500  22.785  0.00  0.00    +0.000 NA
ATOM      4  O   UNL     1       0.170  10.744  22.676  0.00  0.00    +0.000 OA
ATOM      5  C   UNL     1       0.254  11.179  21.394  0.00  0.00    +0.000 A 
ATOM      6  C   UNL     1      -0.144  12.453  20.955  0.00  0.00    +0.000 A 
ATOM      7  C   UNL     1      -0.038  12.681  19.579  0.00  0.00    +0.000 A 
ATOM      8 CL   UNL     1      -0.489  14.181  18.843  0.00  0.00    +0.000 Cl
ATOM      9  C   UNL     1       0.493  11.697  18.734  0.00  0.00    +0.000 A 
ATOM     10  C   UNL     1       0.957  10.461  19.236  0.00  0.00    +0.000 A 
ATOM     11  C   UNL     1       0.809  10.172  20.609  0.00  0.00    +0.000 A 
ATOM     12  H   UNL     1       2.032   7.618  22.389  0.00  0.00    +0.000 HD
ENDROOT
BRANCH   1  16
ATOM     13  C   UNL     1       2.162   4.895  18.539  0.00  0.00    +0.000 A 
ATOM     14  C   UNL     1       1.668   4.611  19.817  0.00  0.00    +0.000 A 
ATOM     15  C   UNL     1       1.552   5.609  20.797  0.00  0.00    +0.000 A 
ATOM     16  C   UNL     1       1.919   6.923  20.531  0.00  0.00    +0.000 A 
ATOM     17  C   UNL     1       2.395   7.210  19.235  0.00  0.00    +0.000 A 
ATOM     18  C   UNL     1       2.535   6.213  18.259  0.00  0.00    +0.000 A 
BRANCH  13  19
ATOM     19  C   UNL     1       2.399   3.792  17.533  0.00  0.00    +0.000 C 
BRANCH  19  20
ATOM     20  C   UNL     1       3.822   3.214  17.471  0.00  0.00    +0.000 C 
BRANCH  20  22
ATOM     21  C   UNL     1       5.937   4.568  17.287  0.00  0.00    +0.000 C 
ATOM     22  C   UNL     1       4.759   3.971  16.528  0.00  0.00    +0.000 C 
ENDBRANCH  20  22
ENDBRANCH  19  20
ENDBRANCH  13  19
ENDBRANCH   1  16
BRANCH   6  23
ATOM     23  C   UNL     1      -0.499  13.450  21.991  0.00  0.00    +0.000 C 
ATOM     24  O   UNL     1       0.424  14.011  22.570  0.00  0.00    +0.000 OA
ATOM     25  N   UNL     1      -1.837  13.690  22.239  0.00  0.00    +0.000 N 
ATOM     26  H   UNL     1      -2.524  13.221  21.658  0.00  0.00    +0.000 HD
BRANCH  25  27
ATOM     27  C   UNL     1      -2.332  14.597  23.207  0.00  0.00    +0.000 A 
ATOM     28  C   UNL     1      -2.309  14.419  24.581  0.00  0.00    +0.000 A 
ATOM     29  N   UNL     1      -2.793  15.317  25.474  0.00  0.00    +0.000 NA
ATOM     30  C   UNL     1      -3.321  16.431  24.954  0.00  0.00    +0.000 A 
ATOM     31  N   UNL     1      -3.412  16.722  23.648  0.00  0.00    +0.000 NA
ATOM     32  C   UNL     1      -2.911  15.789  22.806  0.00  0.00    +0.000 A 
ENDBRANCH  25  27
ENDBRANCH   6  23
TORSDOF 6
ENDMDL
MODEL 9
REMARK VINA RESULT:      -7.6      0.765      1.414
REMARK  Name = 
REMARK  7 active torsions:
REMARK  status: ('A' for Active; 'I' for Inactive)
REMARK    1  A    between atoms: C_1  and  C_2
REMARK    2  A    between atoms: C_2  and  C_3
REMARK    3  A    between atoms: C_3  and  C_4
REMARK    4  A    between atoms: C_4  and  C_5
REMARK    5  A    between atoms: C_8  and  N_9
REMARK    6  A    between atoms: C_14  and  C_15
REMARK    7  A    between atoms: N_17  and  C_18
REMARK                            x       y       z     vdW  Elec       q    Type
REMARK                         _______ _______ _______ _____ _____    ______ ____
ROOT
ATOM      1  N   UNL     1       1.070  11.162  19.104  0.00  0.00    +0.000 N 
ATOM      2  C   UNL     1       1.434   9.896  18.765  0.00  0.00    +0.000 A 
ATOM      3  N   UNL     1       1.923   9.709  17.534  0.00  0.00    +0.000 NA
ATOM      4  O   UNL     1       2.343   8.414  17.461  0.00  0.00    +0.000 OA
ATOM      5  C   UNL     1       2.137   7.790  18.646  0.00  0.00    +0.000 A 
ATOM      6  C   UNL     1       2.529   6.472  18.935  0.00  0.00    +0.000 A 
ATOM      7  C   UNL     1       2.164   5.991  20.197  0.00  0.00    +0.000 A 
ATOM      8 CL   UNL     1       2.544   4.392  20.734  0.00  0.00    +0.000 Cl
ATOM      9  C   UNL     1       1.502   6.825  21.109  0.00  0.00    +0.000 A 
ATOM     10  C   UNL     1       1.202   8.169  20.803  0.00  0.00    +0.000 A 
ATOM     11  C   UNL     1       1.501   8.670  19.518  0.00  0.00    +0.000 A 
ATOM     12  H   UNL     1       1.362  11.810  18.373  0.00  0.00    +0.000 HD
ENDROOT
BRANCH   1  16
ATOM     13  C   UNL     1      -1.933  12.932  21.550  0.00  0.00    +0.000 A 
ATOM     14  C   UNL     1      -2.034  12.979  20.155  0.00  0.00    +0.000 A 
ATOM     15  C   UNL     1      -1.054  12.408  19.329  0.00  0.00    +0.000 A 
ATOM     16  C   UNL     1       0.054  11.765  19.867  0.00  0.00    +0.000 A 
ATOM     17  C   UNL     1       0.141  11.699  21.273  0.00  0.00    +0.000 A 
ATOM     18  C   UNL     1      -0.823  12.288  22.104  0.00  0.00    +0.000 A 
BRANCH  13  19
ATOM     19  C   UNL     1      -2.927  13.656  22.428  0.00  0.00    +0.000 C 
BRANCH  19  20
ATOM     20  C   UNL     1      -2.557  13.795  23.914  0.00  0.00    +0.000 C 
BRANCH  20  22
ATOM     21  C   UNL     1      -1.880  15.428  25.708  0.00  0.00    +0.000 C 
ATOM     22  C   UNL     1      -1.749  15.053  24.237  0.00  0.00    +0.000 C 
ENDBRANCH  20  22
ENDBRANCH  19  20
ENDBRANCH  13  19
ENDBRANCH   1  16
BRANCH   6  23
ATOM     23  C   UNL     1       3.391   5.786  17.945  0.00  0.00    +0.000 C 
ATOM     24  O   UNL     1       2.981   4.727  17.481  0.00  0.00    +0.000 OA
ATOM     25  N   UNL     1       4.593   6.375  17.602  0.00  0.00    +0.000 N 
ATOM     26  H   UNL     1       4.810   7.286  17.994  0.00  0.00    +0.000 HD
BRANCH  25  27
ATOM     27  C   UNL     1       5.530   5.834  16.689  0.00  0.00    +0.000 A 
ATOM     28  C   UNL     1       5.450   5.892  15.306  0.00  0.00    +0.000 A 
ATOM     29  N   UNL     1       6.373   5.362  14.467  0.00  0.00    +0.000 NA
ATOM     30  C   UNL     1       7.411   4.750  15.051  0.00  0.00    +0.000 A 
ATOM     31  N   UNL     1       7.604   4.619  16.371  0.00  0.00    +0.000 NA
ATOM     32  C   UNL     1       6.650   5.168  17.158  0.00  0.00    +0.000 A 
ENDBRANCH  25  27
ENDBRANCH   6  23
TORSDOF 6
ENDMDL
