MODEL 1
REMARK VINA RESULT:      -7.9      0.000      0.000
REMARK  Name = 
REMARK  9 active torsions:
REMARK  status: ('A' for Active; 'I' for Inactive)
REMARK    1  A    between atoms: C_1  and  C_2
REMARK    2  A    between atoms: C_2  and  O_3
REMARK    3  A    between atoms: O_3  and  C_4
REMARK    4  A    between atoms: C_7  and  C_8
REMARK    5  A    between atoms: C_8  and  C_9
REMARK    6  A    between atoms: C_9  and  N_10
REMARK    7  A    between atoms: C_11  and  C_13
REMARK    8  A    between atoms: C_13  and  C_14
REMARK    9  A    between atoms: C_17  and  N_18
REMARK                            x       y       z     vdW  Elec       q    Type
REMARK                         _______ _______ _______ _____ _____    ______ ____
ROOT
ATOM      1  C   UNL     1       1.895   7.080  20.189  0.00  0.00    +0.000 A 
ATOM      2  C   UNL     1       2.293   7.428  18.896  0.00  0.00    +0.000 A 
ATOM      3  C   UNL     1       1.917   8.656  18.324  0.00  0.00    +0.000 A 
ATOM      4  C   UNL     1       1.110   9.552  19.041  0.00  0.00    +0.000 A 
ATOM      5  C   UNL     1       0.792   9.222  20.359  0.00  0.00    +0.000 A 
ATOM      6  C   UNL     1       1.145   7.995  20.923  0.00  0.00    +0.000 A 
ENDROOT
BRANCH   4   7
ATOM      7  N   UNL     1       0.629  10.726  18.412  0.00  0.00    +0.000 N 
ATOM      8  C   UNL     1       0.950  11.980  18.856  0.00  0.00    +0.000 C 
ATOM      9  N   UNL     1       1.962  12.340  19.590  0.00  0.00    +0.000 NA
ATOM     10  C   UNL     1       1.735  13.717  20.005  0.00  0.00    +0.000 C 
ATOM     11  C   UNL     1       2.960  14.456  20.506  0.00  0.00    +0.000 C 
ATOM     12  S   UNL     1       2.666  16.146  19.971  0.00  0.00    +0.000 S 
ATOM     13  O   UNL     1       2.550  17.008  21.128  0.00  0.00    +0.000 OA
ATOM     14  O   UNL     1       3.567  16.444  18.878  0.00  0.00    +0.000 OA
ATOM     15  C   UNL     1       1.021  15.869  19.279  0.00  0.00    +0.000 C 
ATOM     16  C   UNL     1       1.185  14.452  18.793  0.00  0.00    +0.000 C 
ATOM     17  S   UNL     1      -0.143  13.305  18.373  0.00  0.00    +0.000 S 
ATOM     18  H   UNL     1      -0.293  10.646  18.009  0.00  0.00    +0.000 HD
ENDBRANCH   4   7
BRANCH   1  19
ATOM     19  C   UNL     1       2.218   5.732  20.786  0.00  0.00    +0.000 C 
BRANCH  19  21
ATOM     20  N   UNL     1       3.656   4.150  19.585  0.00  0.00    +0.000 N 
ATOM     21  C   UNL     1       2.375   4.628  19.748  0.00  0.00    +0.000 C 
ATOM     22  O   UNL     1       1.418   4.203  19.104  0.00  0.00    +0.000 OA
ATOM     23  H   UNL     1       4.350   4.351  20.294  0.00  0.00    +0.000 HD
BRANCH  20  24
ATOM     24  C   UNL     1       3.880   3.057  18.640  0.00  0.00    +0.000 C 
BRANCH  24  25
ATOM     25  C   UNL     1       4.224   3.519  17.225  0.00  0.00    +0.000 C 
BRANCH  25  29
ATOM     26  C   UNL     1       6.859   6.956  17.224  0.00  0.00    +0.000 A 
ATOM     27  C   UNL     1       5.570   7.055  16.704  0.00  0.00    +0.000 A 
ATOM     28  C   UNL     1       4.716   5.949  16.716  0.00  0.00    +0.000 A 
ATOM     29  C   UNL     1       5.143   4.723  17.240  0.00  0.00    +0.000 A 
ATOM     30  C   UNL     1       6.450   4.623  17.731  0.00  0.00    +0.000 A 
ATOM     31  C   UNL     1       7.309   5.731  17.721  0.00  0.00    +0.000 A 
BRANCH  26  32
ATOM     32  O   UNL     1       7.601   8.107  17.178  0.00  0.00    +0.000 OA
BRANCH  32  34
ATOM     33  C   UNL     1       8.713   9.862  18.346  0.00  0.00    +0.000 C 
ATOM     34  C   UNL     1       8.412   8.373  18.324  0.00  0.00    +0.000 C 
ENDBRANCH  32  34
ENDBRANCH  26  32
ENDBRANCH  25  29
ENDBRANCH  24  25
ENDBRANCH  20  24
ENDBRANCH  19  21
ENDBRANCH   1  19
TORSDOF 8
ENDMDL
MODEL 2
REMARK VINA RESULT:      -7.7      3.048      4.282
REMARK  Name = 
REMARK  9 active torsions:
REMARK  status: ('A' for Active; 'I' for Inactive)
REMARK    1  A    between atoms: C_1  and  C_2
REMARK    2  A    between atoms: C_2  and  O_3
REMARK    3  A    between atoms: O_3  and  C_4
REMARK    4  A    between atoms: C_7  and  C_8
REMARK    5  A    between atoms: C_8  and  C_9
REMARK    6  A    between atoms: C_9  and  N_10
REMARK    7  A    between atoms: C_11  and  C_13
REMARK    8  A    between atoms: C_13  and  C_14
REMARK    9  A    between atoms: C_17  and  N_18
REMARK                            x       y       z     vdW  Elec       q    Type
REMARK                         _______ _______ _______ _____ _____    ______ ____
ROOT
ATOM      1  C   UNL     1       2.646   5.820  19.260  0.00  0.00    +0.000 A 
ATOM      2  C   UNL     1       2.210   6.591  20.341  0.00  0.00    +0.000 A 
ATOM      3  C   UNL     1       1.798   7.923  20.165  0.00  0.00    +0.000 A 
ATOM      4  C   UNL     1       1.837   8.514  18.893  0.00  0.00    +0.000 A 
ATOM      5  C   UNL     1       2.197   7.704  17.816  0.00  0.00    +0.000 A 
ATOM      6  C   UNL     1       2.628   6.387  17.988  0.00  0.00    +0.000 A 
ENDROOT
BRANCH   4   7
ATOM      7  N   UNL     1       1.544   9.891  18.746  0.00  0.00    +0.000 N 
ATOM      8  C   UNL     1       0.683  10.551  19.581  0.00  0.00    +0.000 C 
ATOM      9  N   UNL     1       0.315  10.219  20.784  0.00  0.00    +0.000 NA
ATOM     10  C   UNL     1      -0.793  11.087  21.158  0.00  0.00    +0.000 C 
ATOM     11  C   UNL     1      -1.095  11.154  22.641  0.00  0.00    +0.000 C 
ATOM     12  S   UNL     1      -1.653  12.846  22.870  0.00  0.00    +0.000 S 
ATOM     13  O   UNL     1      -3.030  12.847  23.315  0.00  0.00    +0.000 OA
ATOM     14  O   UNL     1      -0.618  13.579  23.570  0.00  0.00    +0.000 OA
ATOM     15  C   UNL     1      -1.597  13.327  21.130  0.00  0.00    +0.000 C 
ATOM     16  C   UNL     1      -0.438  12.482  20.669  0.00  0.00    +0.000 C 
ATOM     17  S   UNL     1      -0.030  12.065  18.962  0.00  0.00    +0.000 S 
ATOM     18  H   UNL     1       1.549  10.229  17.795  0.00  0.00    +0.000 HD
ENDBRANCH   4   7
BRANCH   1  19
ATOM     19  C   UNL     1       3.172   4.417  19.443  0.00  0.00    +0.000 C 
BRANCH  19  21
ATOM     20  N   UNL     1       5.365   5.512  19.533  0.00  0.00    +0.000 N 
ATOM     21  C   UNL     1       4.690   4.322  19.371  0.00  0.00    +0.000 C 
ATOM     22  O   UNL     1       5.264   3.252  19.178  0.00  0.00    +0.000 OA
ATOM     23  H   UNL     1       4.875   6.306  19.926  0.00  0.00    +0.000 HD
BRANCH  20  24
ATOM     24  C   UNL     1       6.827   5.494  19.523  0.00  0.00    +0.000 C 
BRANCH  24  25
ATOM     25  C   UNL     1       7.449   6.160  18.296  0.00  0.00    +0.000 C 
BRANCH  25  29
ATOM     26  C   UNL     1       5.669   4.767  14.602  0.00  0.00    +0.000 A 
ATOM     27  C   UNL     1       6.689   4.040  15.212  0.00  0.00    +0.000 A 
ATOM     28  C   UNL     1       7.255   4.484  16.410  0.00  0.00    +0.000 A 
ATOM     29  C   UNL     1       6.814   5.668  17.013  0.00  0.00    +0.000 A 
ATOM     30  C   UNL     1       5.811   6.409  16.377  0.00  0.00    +0.000 A 
ATOM     31  C   UNL     1       5.241   5.967  15.175  0.00  0.00    +0.000 A 
BRANCH  26  32
ATOM     32  O   UNL     1       5.176   4.229  13.443  0.00  0.00    +0.000 OA
BRANCH  32  34
ATOM     33  C   UNL     1       5.264   2.696  11.620  0.00  0.00    +0.000 C 
ATOM     34  C   UNL     1       6.056   3.352  12.737  0.00  0.00    +0.000 C 
ENDBRANCH  32  34
ENDBRANCH  26  32
ENDBRANCH  25  29
ENDBRANCH  24  25
ENDBRANCH  20  24
ENDBRANCH  19  21
ENDBRANCH   1  19
TORSDOF 8
ENDMDL
MODEL 3
REMARK VINA RESULT:      -7.7      1.149      1.424
REMARK  Name = 
REMARK  9 active torsions:
REMARK  status: ('A' for Active; 'I' for Inactive)
REMARK    1  A    between atoms: C_1  and  C_2
REMARK    2  A    between atoms: C_2  and  O_3
REMARK    3  A    between atoms: O_3  and  C_4
REMARK    4  A    between atoms: C_7  and  C_8
REMARK    5  A    between atoms: C_8  and  C_9
REMARK    6  A    between atoms: C_9  and  N_10
REMARK    7  A    between atoms: C_11  and  C_13
REMARK    8  A    between atoms: C_13  and  C_14
REMARK    9  A    between atoms: C_17  and  N_18
REMARK                            x       y       z     vdW  Elec       q    Type
REMARK                         _______ _______ _______ _____ _____    ______ ____
ROOT
ATOM      1  C   UNL     1       2.094   7.585  19.329  0.00  0.00    +0.000 A 
ATOM      2  C   UNL     1       2.312   8.171  18.079  0.00  0.00    +0.000 A 
ATOM      3  C   UNL     1       1.848   9.467  17.791  0.00  0.00    +0.000 A 
ATOM      4  C   UNL     1       1.134  10.193  18.756  0.00  0.00    +0.000 A 
ATOM      5  C   UNL     1       0.999   9.624  20.022  0.00  0.00    +0.000 A 
ATOM      6  C   UNL     1       1.439   8.329  20.306  0.00  0.00    +0.000 A 
ENDROOT
BRANCH   4   7
ATOM      7  N   UNL     1       0.559  11.441  18.416  0.00  0.00    +0.000 N 
ATOM      8  C   UNL     1       1.126  12.633  18.779  0.00  0.00    +0.000 C 
ATOM      9  N   UNL     1       2.362  12.870  19.106  0.00  0.00    +0.000 NA
ATOM     10  C   UNL     1       2.420  14.218  19.652  0.00  0.00    +0.000 C 
ATOM     11  C   UNL     1       3.802  14.839  19.707  0.00  0.00    +0.000 C 
ATOM     12  S   UNL     1       3.479  16.582  19.414  0.00  0.00    +0.000 S 
ATOM     13  O   UNL     1       3.867  17.350  20.578  0.00  0.00    +0.000 OA
ATOM     14  O   UNL     1       3.942  16.917  18.083  0.00  0.00    +0.000 OA
ATOM     15  C   UNL     1       1.678  16.461  19.363  0.00  0.00    +0.000 C 
ATOM     16  C   UNL     1       1.531  15.083  18.773  0.00  0.00    +0.000 C 
ATOM     17  S   UNL     1       0.049  14.055  18.809  0.00  0.00    +0.000 S 
ATOM     18  H   UNL     1      -0.450  11.449  18.377  0.00  0.00    +0.000 HD
ENDBRANCH   4   7
BRANCH   1  19
ATOM     19  C   UNL     1       2.510   6.166  19.626  0.00  0.00    +0.000 C 
BRANCH  19  21
ATOM     20  N   UNL     1       4.107   5.272  17.993  0.00  0.00    +0.000 N 
ATOM     21  C   UNL     1       2.786   5.338  18.378  0.00  0.00    +0.000 C 
ATOM     22  O   UNL     1       1.884   4.773  17.762  0.00  0.00    +0.000 OA
ATOM     23  H   UNL     1       4.825   5.541  18.653  0.00  0.00    +0.000 HD
BRANCH  20  24
ATOM     24  C   UNL     1       4.457   4.458  16.830  0.00  0.00    +0.000 C 
BRANCH  24  25
ATOM     25  C   UNL     1       5.957   4.381  16.553  0.00  0.00    +0.000 C 
BRANCH  25  29
ATOM     26  C   UNL     1       8.135   7.611  18.445  0.00  0.00    +0.000 A 
ATOM     27  C   UNL     1       7.404   7.839  17.281  0.00  0.00    +0.000 A 
ATOM     28  C   UNL     1       6.692   6.799  16.678  0.00  0.00    +0.000 A 
ATOM     29  C   UNL     1       6.707   5.511  17.226  0.00  0.00    +0.000 A 
ATOM     30  C   UNL     1       7.470   5.282  18.378  0.00  0.00    +0.000 A 
ATOM     31  C   UNL     1       8.185   6.324  18.985  0.00  0.00    +0.000 A 
BRANCH  26  32
ATOM     32  O   UNL     1       8.778   8.706  18.960  0.00  0.00    +0.000 OA
BRANCH  32  34
ATOM     33  C   UNL     1       9.786  10.790  18.397  0.00  0.00    +0.000 C 
ATOM     34  C   UNL     1       8.528   9.946  18.296  0.00  0.00    +0.000 C 
ENDBRANCH  32  34
ENDBRANCH  26  32
ENDBRANCH  25  29
ENDBRANCH  24  25
ENDBRANCH  20  24
ENDBRANCH  19  21
ENDBRANCH   1  19
TORSDOF 8
ENDMDL
MODEL 4
REMARK VINA RESULT:      -7.1      2.211      2.657
REMARK  Name = 
REMARK  9 active torsions:
REMARK  status: ('A' for Active; 'I' for Inactive)
REMARK    1  A    between atoms: C_1  and  C_2
REMARK    2  A    between atoms: C_2  and  O_3
REMARK    3  A    between atoms: O_3  and  C_4
REMARK    4  A    between atoms: C_7  and  C_8
REMARK    5  A    between atoms: C_8  and  C_9
REMARK    6  A    between atoms: C_9  and  N_10
REMARK    7  A    between atoms: C_11  and  C_13
REMARK    8  A    between atoms: C_13  and  C_14
REMARK    9  A    between atoms: C_17  and  N_18
REMARK                            x       y       z     vdW  Elec       q    Type
REMARK                         _______ _______ _______ _____ _____    ______ ____
ROOT
ATOM      1  C   UNL     1       1.773   6.381  20.405  0.00  0.00    +0.000 A 
ATOM      2  C   UNL     1       1.050   7.275  21.200  0.00  0.00    +0.000 A 
ATOM      3  C   UNL     1       0.846   8.606  20.796  0.00  0.00    +0.000 A 
ATOM      4  C   UNL     1       1.386   9.070  19.587  0.00  0.00    +0.000 A 
ATOM      5  C   UNL     1       2.032   8.142  18.771  0.00  0.00    +0.000 A 
ATOM      6  C   UNL     1       2.257   6.825  19.177  0.00  0.00    +0.000 A 
ENDROOT
BRANCH   4   7
ATOM      7  N   UNL     1       1.286  10.442  19.251  0.00  0.00    +0.000 N 
ATOM      8  C   UNL     1       0.541  11.325  19.985  0.00  0.00    +0.000 C 
ATOM      9  N   UNL     1       0.151  11.216  21.221  0.00  0.00    +0.000 NA
ATOM     10  C   UNL     1      -0.817  12.274  21.470  0.00  0.00    +0.000 C 
ATOM     11  C   UNL     1      -1.081  12.586  22.930  0.00  0.00    +0.000 C 
ATOM     12  S   UNL     1      -1.391  14.355  22.921  0.00  0.00    +0.000 S 
ATOM     13  O   UNL     1      -2.747  14.612  23.359  0.00  0.00    +0.000 OA
ATOM     14  O   UNL     1      -0.253  15.024  23.515  0.00  0.00    +0.000 OA
ATOM     15  C   UNL     1      -1.300  14.580  21.132  0.00  0.00    +0.000 C 
ATOM     16  C   UNL     1      -0.279  13.525  20.794  0.00  0.00    +0.000 C 
ATOM     17  S   UNL     1       0.036  12.824  19.161  0.00  0.00    +0.000 S 
ATOM     18  H   UNL     1       1.322  10.641  18.262  0.00  0.00    +0.000 HD
ENDBRANCH   4   7
BRANCH   1  19
ATOM     19  C   UNL     1       2.074   4.975  20.861  0.00  0.00    +0.000 C 
BRANCH  19  21
ATOM     20  N   UNL     1       3.218   3.508  19.262  0.00  0.00    +0.000 N 
ATOM     21  C   UNL     1       2.003   3.943  19.743  0.00  0.00    +0.000 C 
ATOM     22  O   UNL     1       0.929   3.536  19.305  0.00  0.00    +0.000 OA
ATOM     23  H   UNL     1       4.053   3.682  19.807  0.00  0.00    +0.000 HD
BRANCH  20  24
ATOM     24  C   UNL     1       3.231   2.483  18.220  0.00  0.00    +0.000 C 
BRANCH  24  25
ATOM     25  C   UNL     1       3.364   3.039  16.803  0.00  0.00    +0.000 C 
BRANCH  25  29
ATOM     26  C   UNL     1       6.670   5.813  16.438  0.00  0.00    +0.000 A 
ATOM     27  C   UNL     1       5.427   6.252  16.888  0.00  0.00    +0.000 A 
ATOM     28  C   UNL     1       4.363   5.354  17.017  0.00  0.00    +0.000 A 
ATOM     29  C   UNL     1       4.526   4.003  16.688  0.00  0.00    +0.000 A 
ATOM     30  C   UNL     1       5.769   3.576  16.207  0.00  0.00    +0.000 A 
ATOM     31  C   UNL     1       6.838   4.474  16.077  0.00  0.00    +0.000 A 
BRANCH  26  32
ATOM     32  O   UNL     1       7.643   6.774  16.369  0.00  0.00    +0.000 OA
BRANCH  32  34
ATOM     33  C   UNL     1       8.193   7.176  18.653  0.00  0.00    +0.000 C 
ATOM     34  C   UNL     1       7.605   7.776  17.388  0.00  0.00    +0.000 C 
ENDBRANCH  32  34
ENDBRANCH  26  32
ENDBRANCH  25  29
ENDBRANCH  24  25
ENDBRANCH  20  24
ENDBRANCH  19  21
ENDBRANCH   1  19
TORSDOF 8
ENDMDL
MODEL 5
REMARK VINA RESULT:      -7.1      5.381     11.146
REMARK  Name = 
REMARK  9 active torsions:
REMARK  status: ('A' for Active; 'I' for Inactive)
REMARK    1  A    between atoms: C_1  and  C_2
REMARK    2  A    between atoms: C_2  and  O_3
REMARK    3  A    between atoms: O_3  and  C_4
REMARK    4  A    between atoms: C_7  and  C_8
REMARK    5  A    between atoms: C_8  and  C_9
REMARK    6  A    between atoms: C_9  and  N_10
REMARK    7  A    between atoms: C_11  and  C_13
REMARK    8  A    between atoms: C_13  and  C_14
REMARK    9  A    between atoms: C_17  and  N_18
REMARK                            x       y       z     vdW  Elec       q    Type
REMARK                         _______ _______ _______ _____ _____    ______ ____
ROOT
ATOM      1  C   UNL     1      -0.259  10.287  21.898  0.00  0.00    +0.000 A 
ATOM      2  C   UNL     1      -0.486  10.560  20.547  0.00  0.00    +0.000 A 
ATOM      3  C   UNL     1       0.201   9.863  19.538  0.00  0.00    +0.000 A 
ATOM      4  C   UNL     1       1.151   8.887  19.874  0.00  0.00    +0.000 A 
ATOM      5  C   UNL     1       1.304   8.573  21.224  0.00  0.00    +0.000 A 
ATOM      6  C   UNL     1       0.640   9.277  22.231  0.00  0.00    +0.000 A 
ENDROOT
BRANCH   4   7
ATOM      7  N   UNL     1       1.931   8.283  18.857  0.00  0.00    +0.000 N 
ATOM      8  C   UNL     1       2.530   7.064  19.020  0.00  0.00    +0.000 C 
ATOM      9  N   UNL     1       2.222   6.121  19.862  0.00  0.00    +0.000 NA
ATOM     10  C   UNL     1       3.294   5.136  19.828  0.00  0.00    +0.000 C 
ATOM     11  C   UNL     1       2.948   3.778  20.406  0.00  0.00    +0.000 C 
ATOM     12  S   UNL     1       3.901   2.645  19.388  0.00  0.00    +0.000 S 
ATOM     13  O   UNL     1       4.872   1.955  20.210  0.00  0.00    +0.000 OA
ATOM     14  O   UNL     1       2.989   1.934  18.516  0.00  0.00    +0.000 OA
ATOM     15  C   UNL     1       4.748   3.900  18.406  0.00  0.00    +0.000 C 
ATOM     16  C   UNL     1       3.678   4.960  18.368  0.00  0.00    +0.000 C 
ATOM     17  S   UNL     1       3.908   6.700  17.947  0.00  0.00    +0.000 S 
ATOM     18  H   UNL     1       2.441   8.929  18.272  0.00  0.00    +0.000 HD
ENDBRANCH   4   7
BRANCH   1  19
ATOM     19  C   UNL     1      -0.923  11.084  22.994  0.00  0.00    +0.000 C 
BRANCH  19  21
ATOM     20  N   UNL     1      -2.133  13.211  22.831  0.00  0.00    +0.000 N 
ATOM     21  C   UNL     1      -0.908  12.587  22.751  0.00  0.00    +0.000 C 
ATOM     22  O   UNL     1       0.132  13.191  22.497  0.00  0.00    +0.000 OA
ATOM     23  H   UNL     1      -2.903  12.726  23.274  0.00  0.00    +0.000 HD
BRANCH  20  24
ATOM     24  C   UNL     1      -2.192  14.661  22.655  0.00  0.00    +0.000 C 
BRANCH  24  25
ATOM     25  C   UNL     1      -3.317  15.130  21.734  0.00  0.00    +0.000 C 
BRANCH  25  29
ATOM     26  C   UNL     1      -6.254  12.002  21.150  0.00  0.00    +0.000 A 
ATOM     27  C   UNL     1      -6.318  12.830  22.269  0.00  0.00    +0.000 A 
ATOM     28  C   UNL     1      -5.377  13.847  22.451  0.00  0.00    +0.000 A 
ATOM     29  C   UNL     1      -4.351  14.045  21.519  0.00  0.00    +0.000 A 
ATOM     30  C   UNL     1      -4.275  13.189  20.413  0.00  0.00    +0.000 A 
ATOM     31  C   UNL     1      -5.218  12.168  20.228  0.00  0.00    +0.000 A 
BRANCH  26  32
ATOM     32  O   UNL     1      -7.238  11.053  21.064  0.00  0.00    +0.000 OA
BRANCH  32  34
ATOM     33  C   UNL     1      -7.491   8.804  20.316  0.00  0.00    +0.000 C 
ATOM     34  C   UNL     1      -7.220  10.237  19.891  0.00  0.00    +0.000 C 
ENDBRANCH  32  34
ENDBRANCH  26  32
ENDBRANCH  25  29
ENDBRANCH  24  25
ENDBRANCH  20  24
ENDBRANCH  19  21
ENDBRANCH   1  19
TORSDOF 8
ENDMDL
MODEL 6
REMARK VINA RESULT:      -7.1      3.822      4.685
REMARK  Name = 
REMARK  9 active torsions:
REMARK  status: ('A' for Active; 'I' for Inactive)
REMARK    1  A    between atoms: C_1  and  C_2
REMARK    2  A    between atoms: C_2  and  O_3
REMARK    3  A    between atoms: O_3  and  C_4
REMARK    4  A    between atoms: C_7  and  C_8
REMARK    5  A    between atoms: C_8  and  C_9
REMARK    6  A    between atoms: C_9  and  N_10
REMARK    7  A    between atoms: C_11  and  C_13
REMARK    8  A    between atoms: C_13  and  C_14
REMARK    9  A    between atoms: C_17  and  N_18
REMARK                            x       y       z     vdW  Elec       q    Type
REMARK                         _______ _______ _______ _____ _____    ______ ____
ROOT
ATOM      1  C   UNL     1       0.824  10.113  18.155  0.00  0.00    +0.000 A 
ATOM      2  C   UNL     1      -0.477   9.701  17.852  0.00  0.00    +0.000 A 
ATOM      3  C   UNL     1      -1.588  10.495  18.186  0.00  0.00    +0.000 A 
ATOM      4  C   UNL     1      -1.410  11.716  18.854  0.00  0.00    +0.000 A 
ATOM      5  C   UNL     1      -0.102  12.146  19.074  0.00  0.00    +0.000 A 
ATOM      6  C   UNL     1       1.004  11.352  18.764  0.00  0.00    +0.000 A 
ENDROOT
BRANCH   4   7
ATOM      7  N   UNL     1      -2.538  12.446  19.301  0.00  0.00    +0.000 N 
ATOM      8  C   UNL     1      -2.632  12.944  20.572  0.00  0.00    +0.000 C 
ATOM      9  N   UNL     1      -1.671  13.195  21.412  0.00  0.00    +0.000 NA
ATOM     10  C   UNL     1      -2.280  13.468  22.706  0.00  0.00    +0.000 C 
ATOM     11  C   UNL     1      -1.390  14.179  23.707  0.00  0.00    +0.000 C 
ATOM     12  S   UNL     1      -2.545  15.204  24.625  0.00  0.00    +0.000 S 
ATOM     13  O   UNL     1      -2.564  14.790  26.012  0.00  0.00    +0.000 OA
ATOM     14  O   UNL     1      -2.341  16.584  24.238  0.00  0.00    +0.000 OA
ATOM     15  C   UNL     1      -4.047  14.613  23.815  0.00  0.00    +0.000 C 
ATOM     16  C   UNL     1      -3.501  14.333  22.439  0.00  0.00    +0.000 C 
ATOM     17  S   UNL     1      -4.273  13.309  21.169  0.00  0.00    +0.000 S 
ATOM     18  H   UNL     1      -3.418  12.162  18.894  0.00  0.00    +0.000 HD
ENDBRANCH   4   7
BRANCH   1  19
ATOM     19  C   UNL     1       2.021   9.236  17.881  0.00  0.00    +0.000 C 
BRANCH  19  21
ATOM     20  N   UNL     1       2.552   6.872  18.257  0.00  0.00    +0.000 N 
ATOM     21  C   UNL     1       2.140   8.053  18.833  0.00  0.00    +0.000 C 
ATOM     22  O   UNL     1       1.880   8.156  20.030  0.00  0.00    +0.000 OA
ATOM     23  H   UNL     1       2.981   6.894  17.341  0.00  0.00    +0.000 HD
BRANCH  20  24
ATOM     24  C   UNL     1       2.735   5.702  19.116  0.00  0.00    +0.000 C 
BRANCH  24  25
ATOM     25  C   UNL     1       4.197   5.362  19.401  0.00  0.00    +0.000 C 
BRANCH  25  29
ATOM     26  C   UNL     1       6.441   4.694  15.758  0.00  0.00    +0.000 A 
ATOM     27  C   UNL     1       5.155   4.177  15.899  0.00  0.00    +0.000 A 
ATOM     28  C   UNL     1       4.426   4.403  17.070  0.00  0.00    +0.000 A 
ATOM     29  C   UNL     1       4.978   5.143  18.123  0.00  0.00    +0.000 A 
ATOM     30  C   UNL     1       6.283   5.632  17.986  0.00  0.00    +0.000 A 
ATOM     31  C   UNL     1       7.017   5.406  16.812  0.00  0.00    +0.000 A 
BRANCH  26  32
ATOM     32  O   UNL     1       7.053   4.427  14.562  0.00  0.00    +0.000 OA
BRANCH  32  34
ATOM     33  C   UNL     1       6.941   3.977  12.224  0.00  0.00    +0.000 C 
ATOM     34  C   UNL     1       6.230   3.830  13.558  0.00  0.00    +0.000 C 
ENDBRANCH  32  34
ENDBRANCH  26  32
ENDBRANCH  25  29
ENDBRANCH  24  25
ENDBRANCH  20  24
ENDBRANCH  19  21
ENDBRANCH   1  19
TORSDOF 8
ENDMDL
MODEL 7
REMARK VINA RESULT:      -7.0      2.756      3.687
REMARK  Name = 
REMARK  9 active torsions:
REMARK  status: ('A' for Active; 'I' for Inactive)
REMARK    1  A    between atoms: C_1  and  C_2
REMARK    2  A    between atoms: C_2  and  O_3
REMARK    3  A    between atoms: O_3  and  C_4
REMARK    4  A    between atoms: C_7  and  C_8
REMARK    5  A    between atoms: C_8  and  C_9
REMARK    6  A    between atoms: C_9  and  N_10
REMARK    7  A    between atoms: C_11  and  C_13
REMARK    8  A    between atoms: C_13  and  C_14
REMARK    9  A    between atoms: C_17  and  N_18
REMARK                            x       y       z     vdW  Elec       q    Type
REMARK                         _______ _______ _______ _____ _____    ______ ____
ROOT
ATOM      1  C   UNL     1       2.278   7.399  18.878  0.00  0.00    +0.000 A 
ATOM      2  C   UNL     1       2.198   8.281  17.797  0.00  0.00    +0.000 A 
ATOM      3  C   UNL     1       1.664   9.573  17.950  0.00  0.00    +0.000 A 
ATOM      4  C   UNL     1       1.179   9.995  19.198  0.00  0.00    +0.000 A 
ATOM      5  C   UNL     1       1.344   9.130  20.280  0.00  0.00    +0.000 A 
ATOM      6  C   UNL     1       1.853   7.839  20.128  0.00  0.00    +0.000 A 
ENDROOT
BRANCH   4   7
ATOM      7  N   UNL     1       0.526  11.246  19.314  0.00  0.00    +0.000 N 
ATOM      8  C   UNL     1       1.200  12.435  19.234  0.00  0.00    +0.000 C 
ATOM      9  N   UNL     1       2.358  12.669  18.689  0.00  0.00    +0.000 NA
ATOM     10  C   UNL     1       2.760  14.014  19.077  0.00  0.00    +0.000 C 
ATOM     11  C   UNL     1       3.855  14.634  18.233  0.00  0.00    +0.000 C 
ATOM     12  S   UNL     1       3.428  16.379  18.226  0.00  0.00    +0.000 S 
ATOM     13  O   UNL     1       4.478  17.138  18.872  0.00  0.00    +0.000 OA
ATOM     14  O   UNL     1       2.928  16.723  16.911  0.00  0.00    +0.000 OA
ATOM     15  C   UNL     1       2.017  16.259  19.346  0.00  0.00    +0.000 C 
ATOM     16  C   UNL     1       1.518  14.885  18.981  0.00  0.00    +0.000 C 
ATOM     17  S   UNL     1       0.401  13.857  19.957  0.00  0.00    +0.000 S 
ATOM     18  H   UNL     1      -0.271  11.254  19.934  0.00  0.00    +0.000 HD
ENDBRANCH   4   7
BRANCH   1  19
ATOM     19  C   UNL     1       2.768   5.981  18.713  0.00  0.00    +0.000 C 
BRANCH  19  21
ATOM     20  N   UNL     1       5.054   6.319  17.891  0.00  0.00    +0.000 N 
ATOM     21  C   UNL     1       4.270   5.829  18.913  0.00  0.00    +0.000 C 
ATOM     22  O   UNL     1       4.740   5.301  19.918  0.00  0.00    +0.000 OA
ATOM     23  H   UNL     1       4.643   6.950  17.215  0.00  0.00    +0.000 HD
BRANCH  20  24
ATOM     24  C   UNL     1       6.508   6.250  18.031  0.00  0.00    +0.000 C 
BRANCH  24  25
ATOM     25  C   UNL     1       7.113   4.916  17.598  0.00  0.00    +0.000 C 
BRANCH  25  29
ATOM     26  C   UNL     1       6.277   4.011  13.446  0.00  0.00    +0.000 A 
ATOM     27  C   UNL     1       5.577   3.365  14.464  0.00  0.00    +0.000 A 
ATOM     28  C   UNL     1       5.839   3.667  15.803  0.00  0.00    +0.000 A 
ATOM     29  C   UNL     1       6.812   4.613  16.145  0.00  0.00    +0.000 A 
ATOM     30  C   UNL     1       7.533   5.234  15.118  0.00  0.00    +0.000 A 
ATOM     31  C   UNL     1       7.273   4.933  13.773  0.00  0.00    +0.000 A 
BRANCH  26  32
ATOM     32  O   UNL     1       5.925   3.652  12.172  0.00  0.00    +0.000 OA
BRANCH  32  34
ATOM     33  C   UNL     1       5.899   1.452  11.256  0.00  0.00    +0.000 C 
ATOM     34  C   UNL     1       6.755   2.671  11.547  0.00  0.00    +0.000 C 
ENDBRANCH  32  34
ENDBRANCH  26  32
ENDBRANCH  25  29
ENDBRANCH  24  25
ENDBRANCH  20  24
ENDBRANCH  19  21
ENDBRANCH   1  19
TORSDOF 8
ENDMDL
MODEL 8
REMARK VINA RESULT:      -7.0      3.978      8.584
REMARK  Name = 
REMARK  9 active torsions:
REMARK  status: ('A' for Active; 'I' for Inactive)
REMARK    1  A    between atoms: C_1  and  C_2
REMARK    2  A    between atoms: C_2  and  O_3
REMARK    3  A    between atoms: O_3  and  C_4
REMARK    4  A    between atoms: C_7  and  C_8
REMARK    5  A    between atoms: C_8  and  C_9
REMARK    6  A    between atoms: C_9  and  N_10
REMARK    7  A    between atoms: C_11  and  C_13
REMARK    8  A    between atoms: C_13  and  C_14
REMARK    9  A    between atoms: C_17  and  N_18
REMARK                            x       y       z     vdW  Elec       q    Type
REMARK                         _______ _______ _______ _____ _____    ______ ____
ROOT
ATOM      1  C   UNL     1       1.137  10.809  19.362  0.00  0.00    +0.000 A 
ATOM      2  C   UNL     1       1.559  10.162  18.197  0.00  0.00    +0.000 A 
ATOM      3  C   UNL     1       1.849   8.787  18.192  0.00  0.00    +0.000 A 
ATOM      4  C   UNL     1       1.738   8.036  19.372  0.00  0.00    +0.000 A 
ATOM      5  C   UNL     1       1.238   8.682  20.503  0.00  0.00    +0.000 A 
ATOM      6  C   UNL     1       0.970  10.052  20.518  0.00  0.00    +0.000 A 
ENDROOT
BRANCH   4   7
ATOM      7  N   UNL     1       2.156   6.683  19.389  0.00  0.00    +0.000 N 
ATOM      8  C   UNL     1       3.086   6.192  18.513  0.00  0.00    +0.000 C 
ATOM      9  N   UNL     1       3.984   6.849  17.839  0.00  0.00    +0.000 NA
ATOM     10  C   UNL     1       4.559   5.932  16.866  0.00  0.00    +0.000 C 
ATOM     11  C   UNL     1       5.886   6.361  16.272  0.00  0.00    +0.000 C 
ATOM     12  S   UNL     1       6.743   4.803  16.016  0.00  0.00    +0.000 S 
ATOM     13  O   UNL     1       6.985   4.609  14.602  0.00  0.00    +0.000 OA
ATOM     14  O   UNL     1       7.802   4.695  16.998  0.00  0.00    +0.000 OA
ATOM     15  C   UNL     1       5.389   3.726  16.534  0.00  0.00    +0.000 C 
ATOM     16  C   UNL     1       4.751   4.604  17.579  0.00  0.00    +0.000 C 
ATOM     17  S   UNL     1       3.087   4.427  18.254  0.00  0.00    +0.000 S 
ATOM     18  H   UNL     1       1.444   6.022  19.662  0.00  0.00    +0.000 HD
ENDBRANCH   4   7
BRANCH   1  19
ATOM     19  C   UNL     1       0.904  12.299  19.405  0.00  0.00    +0.000 C 
BRANCH  19  21
ATOM     20  N   UNL     1       2.755  13.764  18.739  0.00  0.00    +0.000 N 
ATOM     21  C   UNL     1       2.145  13.099  19.780  0.00  0.00    +0.000 C 
ATOM     22  O   UNL     1       2.566  13.139  20.934  0.00  0.00    +0.000 OA
ATOM     23  H   UNL     1       2.245  13.900  17.876  0.00  0.00    +0.000 HD
BRANCH  20  24
ATOM     24  C   UNL     1       3.925  14.591  19.029  0.00  0.00    +0.000 C 
BRANCH  24  25
ATOM     25  C   UNL     1       4.680  15.058  17.785  0.00  0.00    +0.000 C 
BRANCH  25  29
ATOM     26  C   UNL     1       8.933  14.351  18.194  0.00  0.00    +0.000 A 
ATOM     27  C   UNL     1       8.093  13.345  17.723  0.00  0.00    +0.000 A 
ATOM     28  C   UNL     1       6.722  13.577  17.579  0.00  0.00    +0.000 A 
ATOM     29  C   UNL     1       6.170  14.819  17.915  0.00  0.00    +0.000 A 
ATOM     30  C   UNL     1       7.016  15.815  18.418  0.00  0.00    +0.000 A 
ATOM     31  C   UNL     1       8.391  15.585  18.563  0.00  0.00    +0.000 A 
BRANCH  26  32
ATOM     32  O   UNL     1      10.260  14.019  18.275  0.00  0.00    +0.000 OA
BRANCH  32  34
ATOM     33  C   UNL     1      11.726  12.184  17.873  0.00  0.00    +0.000 C 
ATOM     34  C   UNL     1      10.755  13.165  17.242  0.00  0.00    +0.000 C 
ENDBRANCH  32  34
ENDBRANCH  26  32
ENDBRANCH  25  29
ENDBRANCH  24  25
ENDBRANCH  20  24
ENDBRANCH  19  21
ENDBRANCH   1  19
TORSDOF 8
ENDMDL
MODEL 9
REMARK VINA RESULT:      -6.9      2.845      3.960
REMARK  Name = 
REMARK  9 active torsions:
REMARK  status: ('A' for Active; 'I' for Inactive)
REMARK    1  A    between atoms: C_1  and  C_2
REMARK    2  A    between atoms: C_2  and  O_3
REMARK    3  A    between atoms: O_3  and  C_4
REMARK    4  A    between atoms: C_7  and  C_8
REMARK    5  A    between atoms: C_8  and  C_9
REMARK    6  A    between atoms: C_9  and  N_10
REMARK    7  A    between atoms: C_11  and  C_13
REMARK    8  A    between atoms: C_13  and  C_14
REMARK    9  A    between atoms: C_17  and  N_18
REMARK                            x       y       z     vdW  Elec       q    Type
REMARK                         _______ _______ _______ _____ _____    ______ ____
ROOT
ATOM      1  C   UNL     1       2.186   7.657  18.445  0.00  0.00    +0.000 A 
ATOM      2  C   UNL     1       1.826   7.794  19.788  0.00  0.00    +0.000 A 
ATOM      3  C   UNL     1       1.307   9.004  20.283  0.00  0.00    +0.000 A 
ATOM      4  C   UNL     1       1.158  10.110  19.433  0.00  0.00    +0.000 A 
ATOM      5  C   UNL     1       1.445   9.927  18.080  0.00  0.00    +0.000 A 
ATOM      6  C   UNL     1       1.982   8.735  17.588  0.00  0.00    +0.000 A 
ENDROOT
BRANCH   4   7
ATOM      7  N   UNL     1       0.758  11.359  19.965  0.00  0.00    +0.000 N 
ATOM      8  C   UNL     1       1.490  12.501  19.787  0.00  0.00    +0.000 C 
ATOM      9  N   UNL     1       2.374  12.755  18.866  0.00  0.00    +0.000 NA
ATOM     10  C   UNL     1       3.055  13.987  19.241  0.00  0.00    +0.000 C 
ATOM     11  C   UNL     1       3.814  14.676  18.125  0.00  0.00    +0.000 C 
ATOM     12  S   UNL     1       3.634  16.418  18.523  0.00  0.00    +0.000 S 
ATOM     13  O   UNL     1       4.935  16.990  18.797  0.00  0.00    +0.000 OA
ATOM     14  O   UNL     1       2.718  17.013  17.572  0.00  0.00    +0.000 OA
ATOM     15  C   UNL     1       2.751  16.192  20.081  0.00  0.00    +0.000 C 
ATOM     16  C   UNL     1       1.987  14.934  19.761  0.00  0.00    +0.000 C 
ATOM     17  S   UNL     1       1.208  13.823  20.951  0.00  0.00    +0.000 S 
ATOM     18  H   UNL     1       0.264  11.309  20.844  0.00  0.00    +0.000 HD
ENDBRANCH   4   7
BRANCH   1  19
ATOM     19  C   UNL     1       2.824   6.395  17.917  0.00  0.00    +0.000 C 
BRANCH  19  21
ATOM     20  N   UNL     1       5.147   6.723  17.204  0.00  0.00    +0.000 N 
ATOM     21  C   UNL     1       4.314   6.295  18.214  0.00  0.00    +0.000 C 
ATOM     22  O   UNL     1       4.734   5.859  19.284  0.00  0.00    +0.000 OA
ATOM     23  H   UNL     1       4.765   7.289  16.458  0.00  0.00    +0.000 HD
BRANCH  20  24
ATOM     24  C   UNL     1       6.591   6.700  17.432  0.00  0.00    +0.000 C 
BRANCH  24  25
ATOM     25  C   UNL     1       7.247   5.353  17.136  0.00  0.00    +0.000 C 
BRANCH  25  29
ATOM     26  C   UNL     1       5.966   3.811  13.297  0.00  0.00    +0.000 A 
ATOM     27  C   UNL     1       6.998   4.745  13.374  0.00  0.00    +0.000 A 
ATOM     28  C   UNL     1       7.419   5.233  14.614  0.00  0.00    +0.000 A 
ATOM     29  C   UNL     1       6.807   4.801  15.797  0.00  0.00    +0.000 A 
ATOM     30  C   UNL     1       5.750   3.886  15.709  0.00  0.00    +0.000 A 
ATOM     31  C   UNL     1       5.325   3.395  14.466  0.00  0.00    +0.000 A 
BRANCH  26  32
ATOM     32  O   UNL     1       5.649   3.388  12.033  0.00  0.00    +0.000 OA
BRANCH  32  34
ATOM     33  C   UNL     1       3.909   3.845  10.470  0.00  0.00    +0.000 C 
ATOM     34  C   UNL     1       4.262   3.161  11.779  0.00  0.00    +0.000 C 
ENDBRANCH  32  34
ENDBRANCH  26  32
ENDBRANCH  25  29
ENDBRANCH  24  25
ENDBRANCH  20  24
ENDBRANCH  19  21
ENDBRANCH   1  19
TORSDOF 8
ENDMDL
