MODEL 1
REMARK VINA RESULT:      -8.1      0.000      0.000
REMARK  Name = 
REMARK  6 active torsions:
REMARK  status: ('A' for Active; 'I' for Inactive)
REMARK    1  A    between atoms: C_1  and  C_2
REMARK    2  A    between atoms: C_2  and  N_3
REMARK    3  A    between atoms: N_3  and  O_4
REMARK    4  A    between atoms: C_5  and  C_7
REMARK    5  A    between atoms: C_7  and  C_8
REMARK    6  A    between atoms: C_7  and  C_9
REMARK                            x       y       z     vdW  Elec       q    Type
REMARK                         _______ _______ _______ _____ _____    ______ ____
ROOT
ATOM      1  C   UNL     1       2.389   7.509  18.912  0.00  0.00    +0.000 A 
ATOM      2  C   UNL     1       2.094   8.207  17.737  0.00  0.00    +0.000 A 
ATOM      3  C   UNL     1       1.392   9.415  17.799  0.00  0.00    +0.000 A 
ATOM      4  C   UNL     1       0.985   9.959  19.029  0.00  0.00    +0.000 A 
ATOM      5  C   UNL     1       1.229   9.257  20.211  0.00  0.00    +0.000 A 
ATOM      6  C   UNL     1       1.929   8.037  20.130  0.00  0.00    +0.000 A 
ATOM      7  C   UNL     1       0.768   9.644  21.577  0.00  0.00    +0.000 C 
ATOM      8  O   UNL     1       1.161   8.995  22.550  0.00  0.00    +0.000 OA
ATOM      9  C   UNL     1      -0.190  10.738  21.849  0.00  0.00    +0.000 A 
ATOM     10  C   UNL     1      -1.044  10.588  22.955  0.00  0.00    +0.000 A 
ATOM     11  C   UNL     1      -1.958  11.585  23.286  0.00  0.00    +0.000 A 
ATOM     12  C   UNL     1      -2.020  12.745  22.520  0.00  0.00    +0.000 A 
ATOM     13  C   UNL     1      -1.164  12.909  21.429  0.00  0.00    +0.000 A 
ATOM     14  C   UNL     1      -0.236  11.910  21.088  0.00  0.00    +0.000 A 
ATOM     15  C   UNL     1       0.697  12.094  19.936  0.00  0.00    +0.000 C 
ATOM     16  O   UNL     1       0.356  11.167  18.910  0.00  0.00    +0.000 OA
ENDROOT
BRANCH   1  17
ATOM     17  C   UNL     1       3.189   6.206  18.875  0.00  0.00    +0.000 C 
ATOM     18  C   UNL     1       4.053   6.169  17.606  0.00  0.00    +0.000 C 
BRANCH  17  20
ATOM     19  N   UNL     1       2.406   4.163  20.083  0.00  0.00    +0.000 N 
ATOM     20  C   UNL     1       2.282   4.956  18.940  0.00  0.00    +0.000 C 
ATOM     21  O   UNL     1       1.537   4.625  18.014  0.00  0.00    +0.000 OA
BRANCH  19  23
ATOM     22  C   UNL     1       1.370   2.583  21.686  0.00  0.00    +0.000 C 
ATOM     23  C   UNL     1       1.481   3.047  20.245  0.00  0.00    +0.000 C 
ENDBRANCH  19  23
BRANCH  19  24
ATOM     24  O   UNL     1       2.520   4.920  21.279  0.00  0.00    +0.000 OA
ATOM     25  H   UNL     1       2.320   4.247  21.956  0.00  0.00    +0.000 HD
ENDBRANCH  19  24
ENDBRANCH  17  20
ENDBRANCH   1  17
TORSDOF 4
ENDMDL
MODEL 2
REMARK VINA RESULT:      -7.6      2.246      4.016
REMARK  Name = 
REMARK  6 active torsions:
REMARK  status: ('A' for Active; 'I' for Inactive)
REMARK    1  A    between atoms: C_1  and  C_2
REMARK    2  A    between atoms: C_2  and  N_3
REMARK    3  A    between atoms: N_3  and  O_4
REMARK    4  A    between atoms: C_5  and  C_7
REMARK    5  A    between atoms: C_7  and  C_8
REMARK    6  A    between atoms: C_7  and  C_9
REMARK                            x       y       z     vdW  Elec       q    Type
REMARK                         _______ _______ _______ _____ _____    ______ ____
ROOT
ATOM      1  C   UNL     1       2.834   5.779  18.723  0.00  0.00    +0.000 A 
ATOM      2  C   UNL     1       2.481   5.453  20.035  0.00  0.00    +0.000 A 
ATOM      3  C   UNL     1       1.840   6.397  20.843  0.00  0.00    +0.000 A 
ATOM      4  C   UNL     1       1.523   7.677  20.356  0.00  0.00    +0.000 A 
ATOM      5  C   UNL     1       1.907   8.041  19.063  0.00  0.00    +0.000 A 
ATOM      6  C   UNL     1       2.560   7.081  18.266  0.00  0.00    +0.000 A 
ATOM      7  C   UNL     1       1.742   9.387  18.441  0.00  0.00    +0.000 C 
ATOM      8  O   UNL     1       2.014   9.534  17.247  0.00  0.00    +0.000 OA
ATOM      9  C   UNL     1       1.321  10.597  19.182  0.00  0.00    +0.000 A 
ATOM     10  C   UNL     1       1.836  11.830  18.750  0.00  0.00    +0.000 A 
ATOM     11  C   UNL     1       1.468  13.014  19.385  0.00  0.00    +0.000 A 
ATOM     12  C   UNL     1       0.576  12.976  20.452  0.00  0.00    +0.000 A 
ATOM     13  C   UNL     1       0.048  11.755  20.878  0.00  0.00    +0.000 A 
ATOM     14  C   UNL     1       0.410  10.556  20.242  0.00  0.00    +0.000 A 
ATOM     15  C   UNL     1      -0.175   9.251  20.680  0.00  0.00    +0.000 C 
ATOM     16  O   UNL     1       0.854   8.455  21.260  0.00  0.00    +0.000 OA
ENDROOT
BRANCH   1  17
ATOM     17  C   UNL     1       3.500   4.752  17.807  0.00  0.00    +0.000 C 
ATOM     18  C   UNL     1       2.663   3.466  17.783  0.00  0.00    +0.000 C 
BRANCH  17  20
ATOM     19  N   UNL     1       5.962   4.962  17.424  0.00  0.00    +0.000 N 
ATOM     20  C   UNL     1       4.953   4.437  18.234  0.00  0.00    +0.000 C 
ATOM     21  O   UNL     1       5.222   3.707  19.192  0.00  0.00    +0.000 OA
BRANCH  19  23
ATOM     22  C   UNL     1       7.815   5.931  18.751  0.00  0.00    +0.000 C 
ATOM     23  C   UNL     1       7.344   4.797  17.859  0.00  0.00    +0.000 C 
ENDBRANCH  19  23
BRANCH  19  24
ATOM     24  O   UNL     1       5.705   6.294  17.004  0.00  0.00    +0.000 OA
ATOM     25  H   UNL     1       5.978   6.802  17.790  0.00  0.00    +0.000 HD
ENDBRANCH  19  24
ENDBRANCH  17  20
ENDBRANCH   1  17
TORSDOF 4
ENDMDL
MODEL 3
REMARK VINA RESULT:      -7.2      1.627      2.701
REMARK  Name = 
REMARK  6 active torsions:
REMARK  status: ('A' for Active; 'I' for Inactive)
REMARK    1  A    between atoms: C_1  and  C_2
REMARK    2  A    between atoms: C_2  and  N_3
REMARK    3  A    between atoms: N_3  and  O_4
REMARK    4  A    between atoms: C_5  and  C_7
REMARK    5  A    between atoms: C_7  and  C_8
REMARK    6  A    between atoms: C_7  and  C_9
REMARK                            x       y       z     vdW  Elec       q    Type
REMARK                         _______ _______ _______ _____ _____    ______ ____
ROOT
ATOM      1  C   UNL     1       2.371   7.207  18.700  0.00  0.00    +0.000 A 
ATOM      2  C   UNL     1       2.190   8.015  17.574  0.00  0.00    +0.000 A 
ATOM      3  C   UNL     1       1.628   9.288  17.708  0.00  0.00    +0.000 A 
ATOM      4  C   UNL     1       1.249   9.788  18.966  0.00  0.00    +0.000 A 
ATOM      5  C   UNL     1       1.378   8.981  20.099  0.00  0.00    +0.000 A 
ATOM      6  C   UNL     1       1.938   7.698  19.944  0.00  0.00    +0.000 A 
ATOM      7  C   UNL     1       0.924   9.322  21.479  0.00  0.00    +0.000 C 
ATOM      8  O   UNL     1       1.213   8.565  22.410  0.00  0.00    +0.000 OA
ATOM      9  C   UNL     1       0.088  10.496  21.811  0.00  0.00    +0.000 A 
ATOM     10  C   UNL     1      -0.809  10.368  22.884  0.00  0.00    +0.000 A 
ATOM     11  C   UNL     1      -1.614  11.438  23.268  0.00  0.00    +0.000 A 
ATOM     12  C   UNL     1      -1.523  12.648  22.588  0.00  0.00    +0.000 A 
ATOM     13  C   UNL     1      -0.622  12.789  21.530  0.00  0.00    +0.000 A 
ATOM     14  C   UNL     1       0.196  11.716  21.136  0.00  0.00    +0.000 A 
ATOM     15  C   UNL     1       1.178  11.873  20.020  0.00  0.00    +0.000 C 
ATOM     16  O   UNL     1       0.764  11.065  18.923  0.00  0.00    +0.000 OA
ENDROOT
BRANCH   1  17
ATOM     17  C   UNL     1       3.019   5.827  18.584  0.00  0.00    +0.000 C 
ATOM     18  C   UNL     1       3.272   5.260  19.988  0.00  0.00    +0.000 C 
BRANCH  17  20
ATOM     19  N   UNL     1       4.789   4.635  17.283  0.00  0.00    +0.000 N 
ATOM     20  C   UNL     1       4.336   5.860  17.776  0.00  0.00    +0.000 C 
ATOM     21  O   UNL     1       4.998   6.890  17.624  0.00  0.00    +0.000 OA
BRANCH  19  23
ATOM     22  C   UNL     1       5.586   4.559  14.939  0.00  0.00    +0.000 C 
ATOM     23  C   UNL     1       5.957   4.638  16.409  0.00  0.00    +0.000 C 
ENDBRANCH  19  23
BRANCH  19  24
ATOM     24  O   UNL     1       3.748   3.825  16.756  0.00  0.00    +0.000 OA
ATOM     25  H   UNL     1       4.210   3.356  16.037  0.00  0.00    +0.000 HD
ENDBRANCH  19  24
ENDBRANCH  17  20
ENDBRANCH   1  17
TORSDOF 4
ENDMDL
MODEL 4
REMARK VINA RESULT:      -7.2      1.737      2.892
REMARK  Name = 
REMARK  6 active torsions:
REMARK  status: ('A' for Active; 'I' for Inactive)
REMARK    1  A    between atoms: C_1  and  C_2
REMARK    2  A    between atoms: C_2  and  N_3
REMARK    3  A    between atoms: N_3  and  O_4
REMARK    4  A    between atoms: C_5  and  C_7
REMARK    5  A    between atoms: C_7  and  C_8
REMARK    6  A    between atoms: C_7  and  C_9
REMARK                            x       y       z     vdW  Elec       q    Type
REMARK                         _______ _______ _______ _____ _____    ______ ____
ROOT
ATOM      1  C   UNL     1       2.388   7.232  18.477  0.00  0.00    +0.000 A 
ATOM      2  C   UNL     1       2.267   8.136  17.418  0.00  0.00    +0.000 A 
ATOM      3  C   UNL     1       1.752   9.416  17.646  0.00  0.00    +0.000 A 
ATOM      4  C   UNL     1       1.363   9.827  18.933  0.00  0.00    +0.000 A 
ATOM      5  C   UNL     1       1.431   8.925  19.997  0.00  0.00    +0.000 A 
ATOM      6  C   UNL     1       1.944   7.637  19.749  0.00  0.00    +0.000 A 
ATOM      7  C   UNL     1       0.958   9.170  21.391  0.00  0.00    +0.000 C 
ATOM      8  O   UNL     1       1.193   8.329  22.262  0.00  0.00    +0.000 OA
ATOM      9  C   UNL     1       0.160  10.348  21.801  0.00  0.00    +0.000 A 
ATOM     10  C   UNL     1      -0.767  10.169  22.840  0.00  0.00    +0.000 A 
ATOM     11  C   UNL     1      -1.538  11.237  23.294  0.00  0.00    +0.000 A 
ATOM     12  C   UNL     1      -1.383  12.493  22.718  0.00  0.00    +0.000 A 
ATOM     13  C   UNL     1      -0.452  12.683  21.695  0.00  0.00    +0.000 A 
ATOM     14  C   UNL     1       0.333  11.613  21.232  0.00  0.00    +0.000 A 
ATOM     15  C   UNL     1       1.348  11.820  20.153  0.00  0.00    +0.000 C 
ATOM     16  O   UNL     1       0.929  11.122  18.985  0.00  0.00    +0.000 OA
ENDROOT
BRANCH   1  17
ATOM     17  C   UNL     1       2.984   5.841  18.262  0.00  0.00    +0.000 C 
ATOM     18  C   UNL     1       2.175   4.807  19.059  0.00  0.00    +0.000 C 
BRANCH  17  20
ATOM     19  N   UNL     1       5.395   5.792  17.605  0.00  0.00    +0.000 N 
ATOM     20  C   UNL     1       4.477   5.772  18.657  0.00  0.00    +0.000 C 
ATOM     21  O   UNL     1       4.851   5.635  19.825  0.00  0.00    +0.000 OA
BRANCH  19  23
ATOM     22  C   UNL     1       7.455   7.165  17.510  0.00  0.00    +0.000 C 
ATOM     23  C   UNL     1       6.814   5.858  17.937  0.00  0.00    +0.000 C 
ENDBRANCH  19  23
BRANCH  19  24
ATOM     24  O   UNL     1       5.057   6.722  16.587  0.00  0.00    +0.000 OA
ATOM     25  H   UNL     1       5.768   6.569  15.938  0.00  0.00    +0.000 HD
ENDBRANCH  19  24
ENDBRANCH  17  20
ENDBRANCH   1  17
TORSDOF 4
ENDMDL
MODEL 5
REMARK VINA RESULT:      -7.0      2.289      4.213
REMARK  Name = 
REMARK  6 active torsions:
REMARK  status: ('A' for Active; 'I' for Inactive)
REMARK    1  A    between atoms: C_1  and  C_2
REMARK    2  A    between atoms: C_2  and  N_3
REMARK    3  A    between atoms: N_3  and  O_4
REMARK    4  A    between atoms: C_5  and  C_7
REMARK    5  A    between atoms: C_7  and  C_8
REMARK    6  A    between atoms: C_7  and  C_9
REMARK                            x       y       z     vdW  Elec       q    Type
REMARK                         _______ _______ _______ _____ _____    ______ ____
ROOT
ATOM      1  C   UNL     1       2.669   5.778  18.763  0.00  0.00    +0.000 A 
ATOM      2  C   UNL     1       2.346   5.512  20.097  0.00  0.00    +0.000 A 
ATOM      3  C   UNL     1       1.777   6.512  20.892  0.00  0.00    +0.000 A 
ATOM      4  C   UNL     1       1.504   7.789  20.372  0.00  0.00    +0.000 A 
ATOM      5  C   UNL     1       1.860   8.091  19.056  0.00  0.00    +0.000 A 
ATOM      6  C   UNL     1       2.440   7.075  18.272  0.00  0.00    +0.000 A 
ATOM      7  C   UNL     1       1.738   9.423  18.394  0.00  0.00    +0.000 C 
ATOM      8  O   UNL     1       1.976   9.517  17.187  0.00  0.00    +0.000 OA
ATOM      9  C   UNL     1       1.399  10.675  19.106  0.00  0.00    +0.000 A 
ATOM     10  C   UNL     1       1.957  11.867  18.615  0.00  0.00    +0.000 A 
ATOM     11  C   UNL     1       1.667  13.087  19.221  0.00  0.00    +0.000 A 
ATOM     12  C   UNL     1       0.810  13.127  20.316  0.00  0.00    +0.000 A 
ATOM     13  C   UNL     1       0.239  11.948  20.801  0.00  0.00    +0.000 A 
ATOM     14  C   UNL     1       0.523  10.712  20.195  0.00  0.00    +0.000 A 
ATOM     15  C   UNL     1      -0.106   9.452  20.696  0.00  0.00    +0.000 C 
ATOM     16  O   UNL     1       0.903   8.627  21.269  0.00  0.00    +0.000 OA
ENDROOT
BRANCH   1  17
ATOM     17  C   UNL     1       3.255   4.690  17.863  0.00  0.00    +0.000 C 
ATOM     18  C   UNL     1       2.785   3.312  18.348  0.00  0.00    +0.000 C 
BRANCH  17  20
ATOM     19  N   UNL     1       5.390   4.295  16.624  0.00  0.00    +0.000 N 
ATOM     20  C   UNL     1       4.800   4.739  17.809  0.00  0.00    +0.000 C 
ATOM     21  O   UNL     1       5.489   5.083  18.772  0.00  0.00    +0.000 OA
BRANCH  19  23
ATOM     22  C   UNL     1       7.246   4.828  15.073  0.00  0.00    +0.000 C 
ATOM     23  C   UNL     1       6.834   4.443  16.482  0.00  0.00    +0.000 C 
ENDBRANCH  19  23
BRANCH  19  24
ATOM     24  O   UNL     1       4.706   4.734  15.459  0.00  0.00    +0.000 OA
ATOM     25  H   UNL     1       4.436   5.634  15.720  0.00  0.00    +0.000 HD
ENDBRANCH  19  24
ENDBRANCH  17  20
ENDBRANCH   1  17
TORSDOF 4
ENDMDL
MODEL 6
REMARK VINA RESULT:      -7.0      2.199      3.999
REMARK  Name = 
REMARK  6 active torsions:
REMARK  status: ('A' for Active; 'I' for Inactive)
REMARK    1  A    between atoms: C_1  and  C_2
REMARK    2  A    between atoms: C_2  and  N_3
REMARK    3  A    between atoms: N_3  and  O_4
REMARK    4  A    between atoms: C_5  and  C_7
REMARK    5  A    between atoms: C_7  and  C_8
REMARK    6  A    between atoms: C_7  and  C_9
REMARK                            x       y       z     vdW  Elec       q    Type
REMARK                         _______ _______ _______ _____ _____    ______ ____
ROOT
ATOM      1  C   UNL     1       2.836   5.544  18.508  0.00  0.00    +0.000 A 
ATOM      2  C   UNL     1       2.608   5.172  19.836  0.00  0.00    +0.000 A 
ATOM      3  C   UNL     1       2.048   6.087  20.733  0.00  0.00    +0.000 A 
ATOM      4  C   UNL     1       1.690   7.383  20.324  0.00  0.00    +0.000 A 
ATOM      5  C   UNL     1       1.952   7.792  19.014  0.00  0.00    +0.000 A 
ATOM      6  C   UNL     1       2.524   6.861  18.126  0.00  0.00    +0.000 A 
ATOM      7  C   UNL     1       1.734   9.160  18.458  0.00  0.00    +0.000 C 
ATOM      8  O   UNL     1       1.893   9.349  17.250  0.00  0.00    +0.000 OA
ATOM      9  C   UNL     1       1.388  10.342  19.278  0.00  0.00    +0.000 A 
ATOM     10  C   UNL     1       1.864  11.590  18.843  0.00  0.00    +0.000 A 
ATOM     11  C   UNL     1       1.561  12.751  19.551  0.00  0.00    +0.000 A 
ATOM     12  C   UNL     1       0.774  12.675  20.695  0.00  0.00    +0.000 A 
ATOM     13  C   UNL     1       0.283  11.440  21.125  0.00  0.00    +0.000 A 
ATOM     14  C   UNL     1       0.580  10.263  20.416  0.00  0.00    +0.000 A 
ATOM     15  C   UNL     1       0.036   8.944  20.861  0.00  0.00    +0.000 C 
ATOM     16  O   UNL     1       1.112   8.128  21.313  0.00  0.00    +0.000 OA
ENDROOT
BRANCH   1  17
ATOM     17  C   UNL     1       3.411   4.550  17.499  0.00  0.00    +0.000 C 
ATOM     18  C   UNL     1       3.259   3.122  18.040  0.00  0.00    +0.000 C 
BRANCH  17  20
ATOM     19  N   UNL     1       5.794   4.750  18.224  0.00  0.00    +0.000 N 
ATOM     20  C   UNL     1       4.892   4.841  17.163  0.00  0.00    +0.000 C 
ATOM     21  O   UNL     1       5.262   5.201  16.043  0.00  0.00    +0.000 OA
BRANCH  19  23
ATOM     22  C   UNL     1       7.882   5.970  18.760  0.00  0.00    +0.000 C 
ATOM     23  C   UNL     1       7.216   4.891  17.928  0.00  0.00    +0.000 C 
ENDBRANCH  19  23
BRANCH  19  24
ATOM     24  O   UNL     1       5.548   3.639  19.074  0.00  0.00    +0.000 OA
ATOM     25  H   UNL     1       4.634   3.406  18.830  0.00  0.00    +0.000 HD
ENDBRANCH  19  24
ENDBRANCH  17  20
ENDBRANCH   1  17
TORSDOF 4
ENDMDL
MODEL 7
REMARK VINA RESULT:      -7.0      1.774      2.583
REMARK  Name = 
REMARK  6 active torsions:
REMARK  status: ('A' for Active; 'I' for Inactive)
REMARK    1  A    between atoms: C_1  and  C_2
REMARK    2  A    between atoms: C_2  and  N_3
REMARK    3  A    between atoms: N_3  and  O_4
REMARK    4  A    between atoms: C_5  and  C_7
REMARK    5  A    between atoms: C_7  and  C_8
REMARK    6  A    between atoms: C_7  and  C_9
REMARK                            x       y       z     vdW  Elec       q    Type
REMARK                         _______ _______ _______ _____ _____    ______ ____
ROOT
ATOM      1  C   UNL     1       2.438   7.137  18.730  0.00  0.00    +0.000 A 
ATOM      2  C   UNL     1       2.149   7.859  17.569  0.00  0.00    +0.000 A 
ATOM      3  C   UNL     1       1.503   9.097  17.658  0.00  0.00    +0.000 A 
ATOM      4  C   UNL     1       1.146   9.645  18.902  0.00  0.00    +0.000 A 
ATOM      5  C   UNL     1       1.383   8.920  20.072  0.00  0.00    +0.000 A 
ATOM      6  C   UNL     1       2.027   7.672  19.964  0.00  0.00    +0.000 A 
ATOM      7  C   UNL     1       0.969   9.312  21.450  0.00  0.00    +0.000 C 
ATOM      8  O   UNL     1       1.353   8.636  22.408  0.00  0.00    +0.000 OA
ATOM      9  C   UNL     1       0.065  10.444  21.754  0.00  0.00    +0.000 A 
ATOM     10  C   UNL     1      -0.770  10.319  22.876  0.00  0.00    +0.000 A 
ATOM     11  C   UNL     1      -1.633  11.352  23.236  0.00  0.00    +0.000 A 
ATOM     12  C   UNL     1      -1.660  12.522  22.483  0.00  0.00    +0.000 A 
ATOM     13  C   UNL     1      -0.821  12.660  21.376  0.00  0.00    +0.000 A 
ATOM     14  C   UNL     1       0.055  11.625  21.006  0.00  0.00    +0.000 A 
ATOM     15  C   UNL     1       0.972  11.781  19.835  0.00  0.00    +0.000 C 
ATOM     16  O   UNL     1       0.568  10.880  18.808  0.00  0.00    +0.000 OA
ENDROOT
BRANCH   1  17
ATOM     17  C   UNL     1       3.179   5.801  18.663  0.00  0.00    +0.000 C 
ATOM     18  C   UNL     1       3.118   5.111  20.033  0.00  0.00    +0.000 C 
BRANCH  17  20
ATOM     19  N   UNL     1       5.524   4.940  18.579  0.00  0.00    +0.000 N 
ATOM     20  C   UNL     1       4.648   5.964  18.211  0.00  0.00    +0.000 C 
ATOM     21  O   UNL     1       5.056   6.967  17.620  0.00  0.00    +0.000 OA
BRANCH  19  23
ATOM     22  C   UNL     1       7.861   5.612  19.049  0.00  0.00    +0.000 C 
ATOM     23  C   UNL     1       6.888   4.989  18.065  0.00  0.00    +0.000 C 
ENDBRANCH  19  23
BRANCH  19  24
ATOM     24  O   UNL     1       4.961   3.644  18.433  0.00  0.00    +0.000 OA
ATOM     25  H   UNL     1       4.549   3.708  17.552  0.00  0.00    +0.000 HD
ENDBRANCH  19  24
ENDBRANCH  17  20
ENDBRANCH   1  17
TORSDOF 4
ENDMDL
MODEL 8
REMARK VINA RESULT:      -7.0      0.677      1.262
REMARK  Name = 
REMARK  6 active torsions:
REMARK  status: ('A' for Active; 'I' for Inactive)
REMARK    1  A    between atoms: C_1  and  C_2
REMARK    2  A    between atoms: C_2  and  N_3
REMARK    3  A    between atoms: N_3  and  O_4
REMARK    4  A    between atoms: C_5  and  C_7
REMARK    5  A    between atoms: C_7  and  C_8
REMARK    6  A    between atoms: C_7  and  C_9
REMARK                            x       y       z     vdW  Elec       q    Type
REMARK                         _______ _______ _______ _____ _____    ______ ____
ROOT
ATOM      1  C   UNL     1       2.335   7.543  19.184  0.00  0.00    +0.000 A 
ATOM      2  C   UNL     1       1.948   8.091  17.959  0.00  0.00    +0.000 A 
ATOM      3  C   UNL     1       1.160   9.246  17.927  0.00  0.00    +0.000 A 
ATOM      4  C   UNL     1       0.756   9.885  19.112  0.00  0.00    +0.000 A 
ATOM      5  C   UNL     1       1.092   9.329  20.348  0.00  0.00    +0.000 A 
ATOM      6  C   UNL     1       1.879   8.161  20.361  0.00  0.00    +0.000 A 
ATOM      7  C   UNL     1       0.651   9.822  21.685  0.00  0.00    +0.000 C 
ATOM      8  O   UNL     1       1.124   9.307  22.701  0.00  0.00    +0.000 OA
ATOM      9  C   UNL     1      -0.377  10.868  21.886  0.00  0.00    +0.000 A 
ATOM     10  C   UNL     1      -1.178  10.772  23.035  0.00  0.00    +0.000 A 
ATOM     11  C   UNL     1      -2.153  11.732  23.302  0.00  0.00    +0.000 A 
ATOM     12  C   UNL     1      -2.329  12.798  22.426  0.00  0.00    +0.000 A 
ATOM     13  C   UNL     1      -1.525  12.908  21.289  0.00  0.00    +0.000 A 
ATOM     14  C   UNL     1      -0.537  11.948  21.012  0.00  0.00    +0.000 A 
ATOM     15  C   UNL     1       0.340  12.077  19.809  0.00  0.00    +0.000 C 
ATOM     16  O   UNL     1       0.034  11.026  18.898  0.00  0.00    +0.000 OA
ENDROOT
BRANCH   1  17
ATOM     17  C   UNL     1       3.229   6.303  19.245  0.00  0.00    +0.000 C 
ATOM     18  C   UNL     1       3.716   5.951  17.833  0.00  0.00    +0.000 C 
BRANCH  17  20
ATOM     19  N   UNL     1       1.393   4.607  19.200  0.00  0.00    +0.000 N 
ATOM     20  C   UNL     1       2.512   5.091  19.882  0.00  0.00    +0.000 C 
ATOM     21  O   UNL     1       2.852   4.610  20.966  0.00  0.00    +0.000 OA
BRANCH  19  23
ATOM     22  C   UNL     1       0.935   2.215  18.748  0.00  0.00    +0.000 C 
ATOM     23  C   UNL     1       0.764   3.388  19.696  0.00  0.00    +0.000 C 
ENDBRANCH  19  23
BRANCH  19  24
ATOM     24  O   UNL     1       1.574   4.562  17.792  0.00  0.00    +0.000 OA
ATOM     25  H   UNL     1       1.307   3.647  17.590  0.00  0.00    +0.000 HD
ENDBRANCH  19  24
ENDBRANCH  17  20
ENDBRANCH   1  17
TORSDOF 4
ENDMDL
MODEL 9
REMARK VINA RESULT:      -6.9      5.526      8.084
REMARK  Name = 
REMARK  6 active torsions:
REMARK  status: ('A' for Active; 'I' for Inactive)
REMARK    1  A    between atoms: C_1  and  C_2
REMARK    2  A    between atoms: C_2  and  N_3
REMARK    3  A    between atoms: N_3  and  O_4
REMARK    4  A    between atoms: C_5  and  C_7
REMARK    5  A    between atoms: C_7  and  C_8
REMARK    6  A    between atoms: C_7  and  C_9
REMARK                            x       y       z     vdW  Elec       q    Type
REMARK                         _______ _______ _______ _____ _____    ______ ____
ROOT
ATOM      1  C   UNL     1       5.955   4.752  14.855  0.00  0.00    +0.000 A 
ATOM      2  C   UNL     1       5.853   6.127  15.079  0.00  0.00    +0.000 A 
ATOM      3  C   UNL     1       5.131   6.607  16.176  0.00  0.00    +0.000 A 
ATOM      4  C   UNL     1       4.510   5.727  17.080  0.00  0.00    +0.000 A 
ATOM      5  C   UNL     1       4.560   4.350  16.850  0.00  0.00    +0.000 A 
ATOM      6  C   UNL     1       5.284   3.885  15.736  0.00  0.00    +0.000 A 
ATOM      7  C   UNL     1       3.866   3.298  17.650  0.00  0.00    +0.000 C 
ATOM      8  O   UNL     1       4.097   2.111  17.409  0.00  0.00    +0.000 OA
ATOM      9  C   UNL     1       2.856   3.582  18.694  0.00  0.00    +0.000 A 
ATOM     10  C   UNL     1       1.829   2.640  18.871  0.00  0.00    +0.000 A 
ATOM     11  C   UNL     1       0.855   2.829  19.848  0.00  0.00    +0.000 A 
ATOM     12  C   UNL     1       0.904   3.955  20.663  0.00  0.00    +0.000 A 
ATOM     13  C   UNL     1       1.931   4.888  20.504  0.00  0.00    +0.000 A 
ATOM     14  C   UNL     1       2.921   4.706  19.523  0.00  0.00    +0.000 A 
ATOM     15  C   UNL     1       4.035   5.691  19.368  0.00  0.00    +0.000 C 
ATOM     16  O   UNL     1       3.889   6.361  18.120  0.00  0.00    +0.000 OA
ENDROOT
BRANCH   1  17
ATOM     17  C   UNL     1       6.772   4.202  13.685  0.00  0.00    +0.000 C 
ATOM     18  C   UNL     1       7.489   5.356  12.972  0.00  0.00    +0.000 C 
BRANCH  17  20
ATOM     19  N   UNL     1       6.583   2.792  11.630  0.00  0.00    +0.000 N 
ATOM     20  C   UNL     1       5.903   3.410  12.681  0.00  0.00    +0.000 C 
ATOM     21  O   UNL     1       4.672   3.374  12.749  0.00  0.00    +0.000 OA
BRANCH  19  23
ATOM     22  C   UNL     1       6.030   0.456  11.020  0.00  0.00    +0.000 C 
ATOM     23  C   UNL     1       5.820   1.931  10.733  0.00  0.00    +0.000 C 
ENDBRANCH  19  23
BRANCH  19  24
ATOM     24  O   UNL     1       7.796   2.174  12.036  0.00  0.00    +0.000 OA
ATOM     25  H   UNL     1       8.123   2.805  12.703  0.00  0.00    +0.000 HD
ENDBRANCH  19  24
ENDBRANCH  17  20
ENDBRANCH   1  17
TORSDOF 4
ENDMDL
