MODEL 1
REMARK VINA RESULT:      -8.3      0.000      0.000
REMARK  Name = 
REMARK  3 active torsions:
REMARK  status: ('A' for Active; 'I' for Inactive)
REMARK    1  A    between atoms: C_2  and  O_3
REMARK    2  A    between atoms: C_2  and  C_4
REMARK    3  A    between atoms: C_16  and  C_17
REMARK                            x       y       z     vdW  Elec       q    Type
REMARK                         _______ _______ _______ _____ _____    ______ ____
ROOT
ATOM      1  C   UNL     1       5.986   5.065  15.602  0.00  0.00    +0.000 A 
ATOM      2  C   UNL     1       6.027   4.006  16.520  0.00  0.00    +0.000 A 
ATOM      3  C   UNL     1       5.323   4.095  17.724  0.00  0.00    +0.000 A 
ATOM      4  C   UNL     1       4.555   5.233  17.986  0.00  0.00    +0.000 A 
ATOM      5  C   UNL     1       3.758   5.352  19.229  0.00  0.00    +0.000 A 
ATOM      6  O   UNL     1       3.845   4.515  20.121  0.00  0.00    +0.000 OA
ATOM      7  N   UNL     1       2.945   6.459  19.279  0.00  0.00    +0.000 N 
ATOM      8  C   UNL     1       2.949   7.435  18.309  0.00  0.00    +0.000 A 
ATOM      9  N   UNL     1       3.679   7.414  17.251  0.00  0.00    +0.000 NA
ATOM     10  C   UNL     1       4.483   6.281  17.059  0.00  0.00    +0.000 A 
ATOM     11  C   UNL     1       5.203   6.193  15.868  0.00  0.00    +0.000 A 
ATOM     12  C   UNL     1       1.972   8.466  18.716  0.00  0.00    +0.000 C 
ATOM     13  C   UNL     1       1.785   9.545  17.944  0.00  0.00    +0.000 C 
ATOM     14  C   UNL     1       1.315   8.039  19.991  0.00  0.00    +0.000 C 
ATOM     15  C   UNL     1       2.060   6.762  20.377  0.00  0.00    +0.000 C 
ENDROOT
BRANCH  13  16
ATOM     16  C   UNL     1       0.838  10.627  18.225  0.00  0.00    +0.000 A 
ATOM     17  C   UNL     1      -0.510  10.272  18.388  0.00  0.00    +0.000 A 
ATOM     18  C   UNL     1      -1.457  11.230  18.742  0.00  0.00    +0.000 A 
ATOM     19  C   UNL     1      -1.066  12.552  18.943  0.00  0.00    +0.000 A 
ATOM     20  C   UNL     1       0.271  12.925  18.767  0.00  0.00    +0.000 A 
ATOM     21 CL   UNL     1       0.668  14.588  19.031  0.00  0.00    +0.000 Cl
ATOM     22  C   UNL     1       1.230  11.969  18.398  0.00  0.00    +0.000 A 
ATOM     23 CL   UNL     1       2.891  12.423  18.163  0.00  0.00    +0.000 Cl
ENDBRANCH  13  16
BRANCH   1  25
ATOM     24  O   UNL     1       7.731   5.592  14.085  0.00  0.00    +0.000 OA
ATOM     25  C   UNL     1       6.741   4.932  14.333  0.00  0.00    +0.000 C 
BRANCH  25  26
ATOM     26  O   UNL     1       6.198   4.049  13.467  0.00  0.00    +0.000 OA
ATOM     27  H   UNL     1       5.243   3.889  13.573  0.00  0.00    +0.000 HD
ENDBRANCH  25  26
ENDBRANCH   1  25
TORSDOF 3
ENDMDL
MODEL 2
REMARK VINA RESULT:      -8.2      1.356      1.755
REMARK  Name = 
REMARK  3 active torsions:
REMARK  status: ('A' for Active; 'I' for Inactive)
REMARK    1  A    between atoms: C_2  and  O_3
REMARK    2  A    between atoms: C_2  and  C_4
REMARK    3  A    between atoms: C_16  and  C_17
REMARK                            x       y       z     vdW  Elec       q    Type
REMARK                         _______ _______ _______ _____ _____    ______ ____
ROOT
ATOM      1  C   UNL     1       5.801   4.965  15.601  0.00  0.00    +0.000 A 
ATOM      2  C   UNL     1       5.742   3.869  16.472  0.00  0.00    +0.000 A 
ATOM      3  C   UNL     1       5.030   3.964  17.671  0.00  0.00    +0.000 A 
ATOM      4  C   UNL     1       4.354   5.148  17.974  0.00  0.00    +0.000 A 
ATOM      5  C   UNL     1       3.551   5.278  19.212  0.00  0.00    +0.000 A 
ATOM      6  O   UNL     1       3.557   4.401  20.067  0.00  0.00    +0.000 OA
ATOM      7  N   UNL     1       2.829   6.445  19.301  0.00  0.00    +0.000 N 
ATOM      8  C   UNL     1       2.926   7.458  18.375  0.00  0.00    +0.000 A 
ATOM      9  N   UNL     1       3.668   7.423  17.326  0.00  0.00    +0.000 NA
ATOM     10  C   UNL     1       4.380   6.238  17.093  0.00  0.00    +0.000 A 
ATOM     11  C   UNL     1       5.107   6.141  15.907  0.00  0.00    +0.000 A 
ATOM     12  C   UNL     1       2.030   8.547  18.815  0.00  0.00    +0.000 C 
ATOM     13  C   UNL     1       1.942   9.669  18.089  0.00  0.00    +0.000 C 
ATOM     14  C   UNL     1       1.323   8.121  20.063  0.00  0.00    +0.000 C 
ATOM     15  C   UNL     1       1.956   6.773  20.402  0.00  0.00    +0.000 C 
ENDROOT
BRANCH  13  16
ATOM     16  C   UNL     1       1.082  10.812  18.406  0.00  0.00    +0.000 A 
ATOM     17  C   UNL     1       1.709  11.967  18.898  0.00  0.00    +0.000 A 
ATOM     18  C   UNL     1       0.971  13.125  19.141  0.00  0.00    +0.000 A 
ATOM     19  C   UNL     1      -0.399  13.140  18.889  0.00  0.00    +0.000 A 
ATOM     20  C   UNL     1      -1.041  11.990  18.416  0.00  0.00    +0.000 A 
ATOM     21 CL   UNL     1      -2.745  12.096  18.136  0.00  0.00    +0.000 Cl
ATOM     22  C   UNL     1      -0.308  10.817  18.180  0.00  0.00    +0.000 A 
ATOM     23 CL   UNL     1      -1.096   9.379  17.606  0.00  0.00    +0.000 Cl
ENDBRANCH  13  16
BRANCH   1  25
ATOM     24  O   UNL     1       6.220   4.073  13.443  0.00  0.00    +0.000 OA
ATOM     25  C   UNL     1       6.561   4.826  14.336  0.00  0.00    +0.000 C 
BRANCH  25  26
ATOM     26  O   UNL     1       7.684   5.573  14.292  0.00  0.00    +0.000 OA
ATOM     27  H   UNL     1       8.415   5.269  14.860  0.00  0.00    +0.000 HD
ENDBRANCH  25  26
ENDBRANCH   1  25
TORSDOF 3
ENDMDL
MODEL 3
REMARK VINA RESULT:      -8.0      1.962      2.559
REMARK  Name = 
REMARK  3 active torsions:
REMARK  status: ('A' for Active; 'I' for Inactive)
REMARK    1  A    between atoms: C_2  and  O_3
REMARK    2  A    between atoms: C_2  and  C_4
REMARK    3  A    between atoms: C_16  and  C_17
REMARK                            x       y       z     vdW  Elec       q    Type
REMARK                         _______ _______ _______ _____ _____    ______ ____
ROOT
ATOM      1  C   UNL     1       5.853   4.588  15.747  0.00  0.00    +0.000 A 
ATOM      2  C   UNL     1       5.651   3.223  15.993  0.00  0.00    +0.000 A 
ATOM      3  C   UNL     1       4.812   2.814  17.033  0.00  0.00    +0.000 A 
ATOM      4  C   UNL     1       4.155   3.779  17.802  0.00  0.00    +0.000 A 
ATOM      5  C   UNL     1       3.223   3.392  18.886  0.00  0.00    +0.000 A 
ATOM      6  O   UNL     1       3.095   2.221  19.226  0.00  0.00    +0.000 OA
ATOM      7  N   UNL     1       2.545   4.444  19.455  0.00  0.00    +0.000 N 
ATOM      8  C   UNL     1       2.788   5.757  19.125  0.00  0.00    +0.000 A 
ATOM      9  N   UNL     1       3.641   6.146  18.246  0.00  0.00    +0.000 NA
ATOM     10  C   UNL     1       4.326   5.145  17.542  0.00  0.00    +0.000 A 
ATOM     11  C   UNL     1       5.178   5.545  16.513  0.00  0.00    +0.000 A 
ATOM     12  C   UNL     1       1.893   6.594  19.952  0.00  0.00    +0.000 C 
ATOM     13  C   UNL     1       1.935   7.927  19.835  0.00  0.00    +0.000 C 
ATOM     14  C   UNL     1       1.032   5.703  20.791  0.00  0.00    +0.000 C 
ATOM     15  C   UNL     1       1.567   4.301  20.506  0.00  0.00    +0.000 C 
ENDROOT
BRANCH  13  16
ATOM     16  C   UNL     1       1.093   8.865  20.581  0.00  0.00    +0.000 A 
ATOM     17  C   UNL     1       1.176   8.824  21.982  0.00  0.00    +0.000 A 
ATOM     18  C   UNL     1       0.472   9.741  22.760  0.00  0.00    +0.000 A 
ATOM     19  C   UNL     1      -0.317  10.712  22.146  0.00  0.00    +0.000 A 
ATOM     20  C   UNL     1      -0.424  10.754  20.752  0.00  0.00    +0.000 A 
ATOM     21 CL   UNL     1      -1.430  11.987  20.074  0.00  0.00    +0.000 Cl
ATOM     22  C   UNL     1       0.271   9.826  19.960  0.00  0.00    +0.000 A 
ATOM     23 CL   UNL     1       0.135   9.859  18.229  0.00  0.00    +0.000 Cl
ENDBRANCH  13  16
BRANCH   1  25
ATOM     24  O   UNL     1       6.574   4.607  13.487  0.00  0.00    +0.000 OA
ATOM     25  C   UNL     1       6.744   4.983  14.631  0.00  0.00    +0.000 C 
BRANCH  25  26
ATOM     26  O   UNL     1       7.784   5.756  15.013  0.00  0.00    +0.000 OA
ATOM     27  H   UNL     1       8.218   5.496  15.846  0.00  0.00    +0.000 HD
ENDBRANCH  25  26
ENDBRANCH   1  25
TORSDOF 3
ENDMDL
MODEL 4
REMARK VINA RESULT:      -7.4      4.478      8.125
REMARK  Name = 
REMARK  3 active torsions:
REMARK  status: ('A' for Active; 'I' for Inactive)
REMARK    1  A    between atoms: C_2  and  O_3
REMARK    2  A    between atoms: C_2  and  C_4
REMARK    3  A    between atoms: C_16  and  C_17
REMARK                            x       y       z     vdW  Elec       q    Type
REMARK                         _______ _______ _______ _____ _____    ______ ____
ROOT
ATOM      1  C   UNL     1       0.573  13.165  19.429  0.00  0.00    +0.000 A 
ATOM      2  C   UNL     1      -0.059  13.108  20.680  0.00  0.00    +0.000 A 
ATOM      3  C   UNL     1      -0.179  11.887  21.349  0.00  0.00    +0.000 A 
ATOM      4  C   UNL     1       0.365  10.735  20.775  0.00  0.00    +0.000 A 
ATOM      5  C   UNL     1       0.300   9.428  21.469  0.00  0.00    +0.000 A 
ATOM      6  O   UNL     1      -0.340   9.290  22.506  0.00  0.00    +0.000 OA
ATOM      7  N   UNL     1       1.002   8.420  20.850  0.00  0.00    +0.000 N 
ATOM      8  C   UNL     1       1.622   8.579  19.633  0.00  0.00    +0.000 A 
ATOM      9  N   UNL     1       1.640   9.672  18.956  0.00  0.00    +0.000 NA
ATOM     10  C   UNL     1       1.027  10.789  19.541  0.00  0.00    +0.000 A 
ATOM     11  C   UNL     1       1.127  12.008  18.871  0.00  0.00    +0.000 A 
ATOM     12  C   UNL     1       2.246   7.286  19.282  0.00  0.00    +0.000 C 
ATOM     13  C   UNL     1       2.912   7.162  18.127  0.00  0.00    +0.000 C 
ATOM     14  C   UNL     1       2.013   6.315  20.397  0.00  0.00    +0.000 C 
ATOM     15  C   UNL     1       1.104   7.075  21.361  0.00  0.00    +0.000 C 
ENDROOT
BRANCH  13  16
ATOM     16  C   UNL     1       3.587   5.944  17.672  0.00  0.00    +0.000 A 
ATOM     17  C   UNL     1       2.826   4.765  17.639  0.00  0.00    +0.000 A 
ATOM     18  C   UNL     1       3.371   3.584  17.136  0.00  0.00    +0.000 A 
ATOM     19  C   UNL     1       4.678   3.572  16.656  0.00  0.00    +0.000 A 
ATOM     20  C   UNL     1       5.455   4.735  16.698  0.00  0.00    +0.000 A 
ATOM     21 CL   UNL     1       7.070   4.629  16.088  0.00  0.00    +0.000 Cl
ATOM     22  C   UNL     1       4.920   5.926  17.214  0.00  0.00    +0.000 A 
ATOM     23 CL   UNL     1       5.878   7.372  17.285  0.00  0.00    +0.000 Cl
ENDBRANCH  13  16
BRANCH   1  25
ATOM     24  O   UNL     1       1.756  14.999  18.502  0.00  0.00    +0.000 OA
ATOM     25  C   UNL     1       0.686  14.478  18.752  0.00  0.00    +0.000 C 
BRANCH  25  26
ATOM     26  O   UNL     1      -0.504  15.056  18.484  0.00  0.00    +0.000 OA
ATOM     27  H   UNL     1      -1.163  15.015  19.201  0.00  0.00    +0.000 HD
ENDBRANCH  25  26
ENDBRANCH   1  25
TORSDOF 3
ENDMDL
MODEL 5
REMARK VINA RESULT:      -7.4      1.126      1.458
REMARK  Name = 
REMARK  3 active torsions:
REMARK  status: ('A' for Active; 'I' for Inactive)
REMARK    1  A    between atoms: C_2  and  O_3
REMARK    2  A    between atoms: C_2  and  C_4
REMARK    3  A    between atoms: C_16  and  C_17
REMARK                            x       y       z     vdW  Elec       q    Type
REMARK                         _______ _______ _______ _____ _____    ______ ____
ROOT
ATOM      1  C   UNL     1       5.192   5.402  16.537  0.00  0.00    +0.000 A 
ATOM      2  C   UNL     1       5.071   4.330  17.433  0.00  0.00    +0.000 A 
ATOM      3  C   UNL     1       4.290   4.464  18.584  0.00  0.00    +0.000 A 
ATOM      4  C   UNL     1       3.609   5.662  18.815  0.00  0.00    +0.000 A 
ATOM      5  C   UNL     1       2.735   5.833  19.998  0.00  0.00    +0.000 A 
ATOM      6  O   UNL     1       2.681   4.979  20.876  0.00  0.00    +0.000 OA
ATOM      7  N   UNL     1       2.022   7.008  20.013  0.00  0.00    +0.000 N 
ATOM      8  C   UNL     1       2.184   7.994  19.068  0.00  0.00    +0.000 A 
ATOM      9  N   UNL     1       2.986   7.924  18.066  0.00  0.00    +0.000 NA
ATOM     10  C   UNL     1       3.699   6.727  17.908  0.00  0.00    +0.000 A 
ATOM     11  C   UNL     1       4.494   6.592  16.770  0.00  0.00    +0.000 A 
ATOM     12  C   UNL     1       1.275   9.103  19.425  0.00  0.00    +0.000 C 
ATOM     13  C   UNL     1       1.242  10.206  18.665  0.00  0.00    +0.000 C 
ATOM     14  C   UNL     1       0.490   8.718  20.639  0.00  0.00    +0.000 C 
ATOM     15  C   UNL     1       1.088   7.373  21.051  0.00  0.00    +0.000 C 
ENDROOT
BRANCH  13  16
ATOM     16  C   UNL     1       0.377  11.364  18.900  0.00  0.00    +0.000 A 
ATOM     17  C   UNL     1      -0.955  11.265  18.470  0.00  0.00    +0.000 A 
ATOM     18  C   UNL     1      -1.863  12.290  18.734  0.00  0.00    +0.000 A 
ATOM     19  C   UNL     1      -1.449  13.420  19.436  0.00  0.00    +0.000 A 
ATOM     20  C   UNL     1      -0.120  13.541  19.855  0.00  0.00    +0.000 A 
ATOM     21 CL   UNL     1       0.309  14.980  20.714  0.00  0.00    +0.000 Cl
ATOM     22  C   UNL     1       0.804  12.520  19.583  0.00  0.00    +0.000 A 
ATOM     23 CL   UNL     1       2.460  12.665  20.086  0.00  0.00    +0.000 Cl
ENDBRANCH  13  16
BRANCH   1  25
ATOM     24  O   UNL     1       5.695   4.502  14.401  0.00  0.00    +0.000 OA
ATOM     25  C   UNL     1       6.024   5.221  15.325  0.00  0.00    +0.000 C 
BRANCH  25  26
ATOM     26  O   UNL     1       7.197   5.890  15.365  0.00  0.00    +0.000 OA
ATOM     27  H   UNL     1       7.598   5.982  16.248  0.00  0.00    +0.000 HD
ENDBRANCH  25  26
ENDBRANCH   1  25
TORSDOF 3
ENDMDL
MODEL 6
REMARK VINA RESULT:      -7.4      2.965      4.705
REMARK  Name = 
REMARK  3 active torsions:
REMARK  status: ('A' for Active; 'I' for Inactive)
REMARK    1  A    between atoms: C_2  and  O_3
REMARK    2  A    between atoms: C_2  and  C_4
REMARK    3  A    between atoms: C_16  and  C_17
REMARK                            x       y       z     vdW  Elec       q    Type
REMARK                         _______ _______ _______ _____ _____    ______ ____
ROOT
ATOM      1  C   UNL     1       2.892   3.807  20.580  0.00  0.00    +0.000 A 
ATOM      2  C   UNL     1       3.855   3.794  19.560  0.00  0.00    +0.000 A 
ATOM      3  C   UNL     1       3.971   4.883  18.692  0.00  0.00    +0.000 A 
ATOM      4  C   UNL     1       3.142   5.993  18.872  0.00  0.00    +0.000 A 
ATOM      5  C   UNL     1       3.260   7.187  18.003  0.00  0.00    +0.000 A 
ATOM      6  O   UNL     1       3.998   7.190  17.024  0.00  0.00    +0.000 OA
ATOM      7  N   UNL     1       2.480   8.251  18.391  0.00  0.00    +0.000 N 
ATOM      8  C   UNL     1       1.583   8.182  19.431  0.00  0.00    +0.000 A 
ATOM      9  N   UNL     1       1.389   7.144  20.164  0.00  0.00    +0.000 NA
ATOM     10  C   UNL     1       2.200   6.028  19.908  0.00  0.00    +0.000 A 
ATOM     11  C   UNL     1       2.078   4.930  20.760  0.00  0.00    +0.000 A 
ATOM     12  C   UNL     1       0.919   9.498  19.532  0.00  0.00    +0.000 C 
ATOM     13  C   UNL     1      -0.018   9.700  20.467  0.00  0.00    +0.000 C 
ATOM     14  C   UNL     1       1.505  10.418  18.507  0.00  0.00    +0.000 C 
ATOM     15  C   UNL     1       2.456   9.525  17.712  0.00  0.00    +0.000 C 
ENDROOT
BRANCH  13  16
ATOM     16  C   UNL     1      -0.735  10.959  20.682  0.00  0.00    +0.000 A 
ATOM     17  C   UNL     1      -1.040  11.724  19.545  0.00  0.00    +0.000 A 
ATOM     18  C   UNL     1      -1.796  12.889  19.658  0.00  0.00    +0.000 A 
ATOM     19  C   UNL     1      -2.260  13.298  20.906  0.00  0.00    +0.000 A 
ATOM     20  C   UNL     1      -1.949  12.556  22.051  0.00  0.00    +0.000 A 
ATOM     21 CL   UNL     1      -2.560  13.139  23.560  0.00  0.00    +0.000 Cl
ATOM     22  C   UNL     1      -1.179  11.387  21.949  0.00  0.00    +0.000 A 
ATOM     23 CL   UNL     1      -0.775  10.465  23.364  0.00  0.00    +0.000 Cl
ENDBRANCH  13  16
BRANCH   1  25
ATOM     24  O   UNL     1       1.795   2.363  22.108  0.00  0.00    +0.000 OA
ATOM     25  C   UNL     1       2.802   2.637  21.485  0.00  0.00    +0.000 C 
BRANCH  25  26
ATOM     26  O   UNL     1       3.954   1.939  21.587  0.00  0.00    +0.000 OA
ATOM     27  H   UNL     1       4.601   2.286  22.227  0.00  0.00    +0.000 HD
ENDBRANCH  25  26
ENDBRANCH   1  25
TORSDOF 3
ENDMDL
MODEL 7
REMARK VINA RESULT:      -7.4      4.612      8.034
REMARK  Name = 
REMARK  3 active torsions:
REMARK  status: ('A' for Active; 'I' for Inactive)
REMARK    1  A    between atoms: C_2  and  O_3
REMARK    2  A    between atoms: C_2  and  C_4
REMARK    3  A    between atoms: C_16  and  C_17
REMARK                            x       y       z     vdW  Elec       q    Type
REMARK                         _______ _______ _______ _____ _____    ______ ____
ROOT
ATOM      1  C   UNL     1       2.096  14.304  18.664  0.00  0.00    +0.000 A 
ATOM      2  C   UNL     1       1.470  14.588  19.886  0.00  0.00    +0.000 A 
ATOM      3  C   UNL     1       0.989  13.548  20.686  0.00  0.00    +0.000 A 
ATOM      4  C   UNL     1       1.168  12.226  20.271  0.00  0.00    +0.000 A 
ATOM      5  C   UNL     1       0.714  11.091  21.107  0.00  0.00    +0.000 A 
ATOM      6  O   UNL     1       0.057  11.276  22.126  0.00  0.00    +0.000 OA
ATOM      7  N   UNL     1       1.086   9.854  20.638  0.00  0.00    +0.000 N 
ATOM      8  C   UNL     1       1.731   9.673  19.436  0.00  0.00    +0.000 A 
ATOM      9  N   UNL     1       2.077  10.621  18.639  0.00  0.00    +0.000 NA
ATOM     10  C   UNL     1       1.821  11.931  19.067  0.00  0.00    +0.000 A 
ATOM     11  C   UNL     1       2.283  12.975  18.265  0.00  0.00    +0.000 A 
ATOM     12  C   UNL     1       1.943   8.220  19.262  0.00  0.00    +0.000 C 
ATOM     13  C   UNL     1       2.548   7.765  18.158  0.00  0.00    +0.000 C 
ATOM     14  C   UNL     1       1.427   7.505  20.471  0.00  0.00    +0.000 C 
ATOM     15  C   UNL     1       0.781   8.611  21.304  0.00  0.00    +0.000 C 
ENDROOT
BRANCH  13  16
ATOM     16  C   UNL     1       2.832   6.357  17.873  0.00  0.00    +0.000 A 
ATOM     17  C   UNL     1       1.776   5.446  18.033  0.00  0.00    +0.000 A 
ATOM     18  C   UNL     1       1.941   4.103  17.699  0.00  0.00    +0.000 A 
ATOM     19  C   UNL     1       3.163   3.658  17.197  0.00  0.00    +0.000 A 
ATOM     20  C   UNL     1       4.230   4.550  17.049  0.00  0.00    +0.000 A 
ATOM     21 CL   UNL     1       5.712   3.912  16.425  0.00  0.00    +0.000 Cl
ATOM     22  C   UNL     1       4.076   5.902  17.394  0.00  0.00    +0.000 A 
ATOM     23 CL   UNL     1       5.399   7.016  17.228  0.00  0.00    +0.000 Cl
ENDBRANCH  13  16
BRANCH   1  25
ATOM     24  O   UNL     1       2.117  16.548  17.896  0.00  0.00    +0.000 OA
ATOM     25  C   UNL     1       2.598  15.432  17.845  0.00  0.00    +0.000 C 
BRANCH  25  26
ATOM     26  O   UNL     1       3.601  15.091  17.007  0.00  0.00    +0.000 OA
ATOM     27  H   UNL     1       3.967  14.197  17.131  0.00  0.00    +0.000 HD
ENDBRANCH  25  26
ENDBRANCH   1  25
TORSDOF 3
ENDMDL
MODEL 8
REMARK VINA RESULT:      -7.3      1.725      1.937
REMARK  Name = 
REMARK  3 active torsions:
REMARK  status: ('A' for Active; 'I' for Inactive)
REMARK    1  A    between atoms: C_2  and  O_3
REMARK    2  A    between atoms: C_2  and  C_4
REMARK    3  A    between atoms: C_16  and  C_17
REMARK                            x       y       z     vdW  Elec       q    Type
REMARK                         _______ _______ _______ _____ _____    ______ ____
ROOT
ATOM      1  C   UNL     1       5.865   4.758  15.696  0.00  0.00    +0.000 A 
ATOM      2  C   UNL     1       5.884   3.533  16.377  0.00  0.00    +0.000 A 
ATOM      3  C   UNL     1       5.162   3.379  17.564  0.00  0.00    +0.000 A 
ATOM      4  C   UNL     1       4.398   4.446  18.044  0.00  0.00    +0.000 A 
ATOM      5  C   UNL     1       3.583   4.315  19.273  0.00  0.00    +0.000 A 
ATOM      6  O   UNL     1       3.650   3.312  19.975  0.00  0.00    +0.000 OA
ATOM      7  N   UNL     1       2.776   5.395  19.539  0.00  0.00    +0.000 N 
ATOM      8  C   UNL     1       2.801   6.549  18.791  0.00  0.00    +0.000 A 
ATOM      9  N   UNL     1       3.547   6.740  17.761  0.00  0.00    +0.000 NA
ATOM     10  C   UNL     1       4.347   5.664  17.352  0.00  0.00    +0.000 A 
ATOM     11  C   UNL     1       5.084   5.815  16.177  0.00  0.00    +0.000 A 
ATOM     12  C   UNL     1       1.824   7.485  19.387  0.00  0.00    +0.000 C 
ATOM     13  C   UNL     1       1.657   8.700  18.851  0.00  0.00    +0.000 C 
ATOM     14  C   UNL     1       1.146   6.811  20.538  0.00  0.00    +0.000 C 
ATOM     15  C   UNL     1       1.876   5.475  20.664  0.00  0.00    +0.000 C 
ENDROOT
BRANCH  13  16
ATOM     16  C   UNL     1       0.712   9.711  19.335  0.00  0.00    +0.000 A 
ATOM     17  C   UNL     1      -0.161  10.274  18.393  0.00  0.00    +0.000 A 
ATOM     18  C   UNL     1      -1.146  11.177  18.790  0.00  0.00    +0.000 A 
ATOM     19  C   UNL     1      -1.271  11.521  20.134  0.00  0.00    +0.000 A 
ATOM     20  C   UNL     1      -0.396  10.981  21.083  0.00  0.00    +0.000 A 
ATOM     21 CL   UNL     1      -0.618  11.468  22.729  0.00  0.00    +0.000 Cl
ATOM     22  C   UNL     1       0.607  10.081  20.691  0.00  0.00    +0.000 A 
ATOM     23 CL   UNL     1       1.708   9.415  21.858  0.00  0.00    +0.000 Cl
ENDBRANCH  13  16
BRANCH   1  25
ATOM     24  O   UNL     1       6.312   4.324  13.407  0.00  0.00    +0.000 OA
ATOM     25  C   UNL     1       6.638   4.882  14.438  0.00  0.00    +0.000 C 
BRANCH  25  26
ATOM     26  O   UNL     1       7.756   5.630  14.558  0.00  0.00    +0.000 OA
ATOM     27  H   UNL     1       8.595   5.161  14.398  0.00  0.00    +0.000 HD
ENDBRANCH  25  26
ENDBRANCH   1  25
TORSDOF 3
ENDMDL
MODEL 9
REMARK VINA RESULT:      -7.2      2.694      4.243
REMARK  Name = 
REMARK  3 active torsions:
REMARK  status: ('A' for Active; 'I' for Inactive)
REMARK    1  A    between atoms: C_2  and  O_3
REMARK    2  A    between atoms: C_2  and  C_4
REMARK    3  A    between atoms: C_16  and  C_17
REMARK                            x       y       z     vdW  Elec       q    Type
REMARK                         _______ _______ _______ _____ _____    ______ ____
ROOT
ATOM      1  C   UNL     1       3.987   3.614  19.874  0.00  0.00    +0.000 A 
ATOM      2  C   UNL     1       4.870   3.759  18.795  0.00  0.00    +0.000 A 
ATOM      3  C   UNL     1       4.804   4.895  17.983  0.00  0.00    +0.000 A 
ATOM      4  C   UNL     1       3.873   5.895  18.278  0.00  0.00    +0.000 A 
ATOM      5  C   UNL     1       3.797   7.135  17.472  0.00  0.00    +0.000 A 
ATOM      6  O   UNL     1       4.459   7.268  16.449  0.00  0.00    +0.000 OA
ATOM      7  N   UNL     1       2.936   8.084  17.969  0.00  0.00    +0.000 N 
ATOM      8  C   UNL     1       2.128   7.863  19.060  0.00  0.00    +0.000 A 
ATOM      9  N   UNL     1       2.102   6.776  19.745  0.00  0.00    +0.000 NA
ATOM     10  C   UNL     1       3.009   5.773  19.374  0.00  0.00    +0.000 A 
ATOM     11  C   UNL     1       3.069   4.628  20.169  0.00  0.00    +0.000 A 
ATOM     12  C   UNL     1       1.333   9.090  19.278  0.00  0.00    +0.000 C 
ATOM     13  C   UNL     1       0.449   9.139  20.282  0.00  0.00    +0.000 C 
ATOM     14  C   UNL     1       1.740  10.118  18.270  0.00  0.00    +0.000 C 
ATOM     15  C   UNL     1       2.724   9.378  17.366  0.00  0.00    +0.000 C 
ENDROOT
BRANCH  13  16
ATOM     16  C   UNL     1      -0.385  10.297  20.614  0.00  0.00    +0.000 A 
ATOM     17  C   UNL     1      -0.895  11.046  19.542  0.00  0.00    +0.000 A 
ATOM     18  C   UNL     1      -1.767  12.109  19.772  0.00  0.00    +0.000 A 
ATOM     19  C   UNL     1      -2.141  12.430  21.075  0.00  0.00    +0.000 A 
ATOM     20  C   UNL     1      -1.627  11.704  22.155  0.00  0.00    +0.000 A 
ATOM     21 CL   UNL     1      -2.140  12.174  23.739  0.00  0.00    +0.000 Cl
ATOM     22  C   UNL     1      -0.740  10.639  21.934  0.00  0.00    +0.000 A 
ATOM     23 CL   UNL     1      -0.083   9.739  23.267  0.00  0.00    +0.000 Cl
ENDBRANCH  13  16
BRANCH   1  25
ATOM     24  O   UNL     1       3.356   2.190  21.663  0.00  0.00    +0.000 OA
ATOM     25  C   UNL     1       4.090   2.399  20.716  0.00  0.00    +0.000 C 
BRANCH  25  26
ATOM     26  O   UNL     1       5.101   1.577  20.362  0.00  0.00    +0.000 OA
ATOM     27  H   UNL     1       4.868   0.634  20.281  0.00  0.00    +0.000 HD
ENDBRANCH  25  26
ENDBRANCH   1  25
TORSDOF 3
ENDMDL
