MODEL 1
REMARK VINA RESULT:      -6.5      0.000      0.000
REMARK  Name = 
REMARK  18 active torsions:
REMARK  status: ('A' for Active; 'I' for Inactive)
REMARK    1  A    between atoms: C_1  and  C_2
REMARK    2  A    between atoms: C_2  and  O_3
REMARK    3  A    between atoms: O_3  and  C_4
REMARK    4  A    between atoms: C_4  and  C_5
REMARK    5  A    between atoms: C_5  and  C_6
REMARK    6  A    between atoms: C_9  and  O_10
REMARK    7  A    between atoms: O_10  and  C_11
REMARK    8  A    between atoms: C_11  and  C_12
REMARK    9  A    between atoms: C_12  and  N_13
REMARK   10  A    between atoms: C_14  and  C_16
REMARK   11  A    between atoms: C_16  and  C_17
REMARK   12  A    between atoms: C_18  and  C_20
REMARK   13  A    between atoms: C_22  and  C_23
REMARK   14  A    between atoms: C_23  and  C_24
REMARK   15  A    between atoms: C_23  and  C_25
REMARK   16  A    between atoms: C_23  and  C_26
REMARK   17  A    between atoms: N_28  and  C_29
REMARK   18  A    between atoms: C_30  and  C_31
REMARK                            x       y       z     vdW  Elec       q    Type
REMARK                         _______ _______ _______ _____ _____    ______ ____
ROOT
ATOM      1  N   UNL     1       7.014   6.452  17.098  0.00  0.00    +0.000 N 
ATOM      2  C   UNL     1       7.803   7.061  18.110  0.00  0.00    +0.000 C 
ATOM      3  O   UNL     1       8.430   6.480  18.976  0.00  0.00    +0.000 OA
ATOM      4  C   UNL     1       7.324   5.096  16.731  0.00  0.00    +0.000 C 
ATOM      5  O   UNL     1       8.154   4.426  17.324  0.00  0.00    +0.000 OA
ENDROOT
BRANCH   4   6
ATOM      6  C   UNL     1       6.662   4.519  15.562  0.00  0.00    +0.000 A 
ATOM      7  C   UNL     1       6.864   4.720  14.211  0.00  0.00    +0.000 A 
ATOM      8  C   UNL     1       6.103   3.766  13.524  0.00  0.00    +0.000 A 
ATOM      9  N   UNL     1       5.324   3.094  14.376  0.00  0.00    +0.000 NA
ATOM     10  N   UNL     1       5.611   3.618  15.589  0.00  0.00    +0.000 N 
ATOM     11  C   UNL     1       4.865   3.127  16.727  0.00  0.00    +0.000 C 
BRANCH   8  12
ATOM     12  C   UNL     1       6.111   3.507  12.032  0.00  0.00    +0.000 C 
ATOM     13  C   UNL     1       6.976   4.552  11.279  0.00  0.00    +0.000 C 
ATOM     14  C   UNL     1       6.684   2.111  11.731  0.00  0.00    +0.000 C 
ATOM     15  C   UNL     1       4.680   3.605  11.488  0.00  0.00    +0.000 C 
ENDBRANCH   8  12
ENDBRANCH   4   6
BRANCH   2  16
ATOM     16  C   UNL     1       7.785   8.600  18.074  0.00  0.00    +0.000 C 
ATOM     17  C   UNL     1       8.900   9.344  18.786  0.00  0.00    +0.000 C 
ENDBRANCH   2  16
BRANCH   1  18
ATOM     18  C   UNL     1       6.039   7.273  16.291  0.00  0.00    +0.000 C 
BRANCH  18  19
ATOM     19  C   UNL     1       4.570   6.921  16.592  0.00  0.00    +0.000 C 
BRANCH  19  20
ATOM     20  O   UNL     1       3.890   7.665  17.641  0.00  0.00    +0.000 OA
BRANCH  20  24
ATOM     21  C   UNL     1       2.598   4.913  20.628  0.00  0.00    +0.000 A 
ATOM     22  C   UNL     1       3.742   4.694  19.884  0.00  0.00    +0.000 A 
ATOM     23  C   UNL     1       4.186   5.636  18.957  0.00  0.00    +0.000 A 
ATOM     24  C   UNL     1       3.490   6.829  18.689  0.00  0.00    +0.000 A 
ATOM     25  C   UNL     1       2.368   7.101  19.486  0.00  0.00    +0.000 A 
ATOM     26  C   UNL     1       1.527   8.346  19.517  0.00  0.00    +0.000 C 
ATOM     27  C   UNL     1       1.914   6.115  20.401  0.00  0.00    +0.000 A 
BRANCH  21  28
ATOM     28  C   UNL     1       2.095   3.979  21.705  0.00  0.00    +0.000 C 
BRANCH  28  29
ATOM     29  C   UNL     1       1.631   2.586  21.263  0.00  0.00    +0.000 C 
BRANCH  29  30
ATOM     30  O   UNL     1       0.702   2.681  20.180  0.00  0.00    +0.000 OA
BRANCH  30  32
ATOM     31  C   UNL     1       1.281   3.184  17.910  0.00  0.00    +0.000 C 
ATOM     32  C   UNL     1       1.236   2.117  18.984  0.00  0.00    +0.000 C 
ENDBRANCH  30  32
ENDBRANCH  29  30
ENDBRANCH  28  29
ENDBRANCH  21  28
ENDBRANCH  20  24
ENDBRANCH  19  20
ENDBRANCH  18  19
ENDBRANCH   1  18
TORSDOF 11
ENDMDL
MODEL 2
REMARK VINA RESULT:      -6.5      5.740      9.803
REMARK  Name = 
REMARK  18 active torsions:
REMARK  status: ('A' for Active; 'I' for Inactive)
REMARK    1  A    between atoms: C_1  and  C_2
REMARK    2  A    between atoms: C_2  and  O_3
REMARK    3  A    between atoms: O_3  and  C_4
REMARK    4  A    between atoms: C_4  and  C_5
REMARK    5  A    between atoms: C_5  and  C_6
REMARK    6  A    between atoms: C_9  and  O_10
REMARK    7  A    between atoms: O_10  and  C_11
REMARK    8  A    between atoms: C_11  and  C_12
REMARK    9  A    between atoms: C_12  and  N_13
REMARK   10  A    between atoms: C_14  and  C_16
REMARK   11  A    between atoms: C_16  and  C_17
REMARK   12  A    between atoms: C_18  and  C_20
REMARK   13  A    between atoms: C_22  and  C_23
REMARK   14  A    between atoms: C_23  and  C_24
REMARK   15  A    between atoms: C_23  and  C_25
REMARK   16  A    between atoms: C_23  and  C_26
REMARK   17  A    between atoms: N_28  and  C_29
REMARK   18  A    between atoms: C_30  and  C_31
REMARK                            x       y       z     vdW  Elec       q    Type
REMARK                         _______ _______ _______ _____ _____    ______ ____
ROOT
ATOM      1  N   UNL     1      -0.246  12.082  19.474  0.00  0.00    +0.000 N 
ATOM      2  C   UNL     1       0.967  12.819  19.520  0.00  0.00    +0.000 C 
ATOM      3  O   UNL     1       1.537  13.321  18.569  0.00  0.00    +0.000 OA
ATOM      4  C   UNL     1      -1.137  12.324  18.370  0.00  0.00    +0.000 C 
ATOM      5  O   UNL     1      -0.842  13.047  17.431  0.00  0.00    +0.000 OA
ENDROOT
BRANCH   4   6
ATOM      6  C   UNL     1      -2.473  11.730  18.405  0.00  0.00    +0.000 A 
ATOM      7  C   UNL     1      -3.609  12.088  19.103  0.00  0.00    +0.000 A 
ATOM      8  C   UNL     1      -4.666  11.308  18.616  0.00  0.00    +0.000 A 
ATOM      9  N   UNL     1      -4.207  10.383  17.770  0.00  0.00    +0.000 NA
ATOM     10  N   UNL     1      -2.872  10.596  17.719  0.00  0.00    +0.000 N 
ATOM     11  C   UNL     1      -2.077   9.693  16.916  0.00  0.00    +0.000 C 
BRANCH   8  12
ATOM     12  C   UNL     1      -6.130  11.443  18.979  0.00  0.00    +0.000 C 
ATOM     13  C   UNL     1      -6.313  12.141  20.353  0.00  0.00    +0.000 C 
ATOM     14  C   UNL     1      -6.873  12.275  17.921  0.00  0.00    +0.000 C 
ATOM     15  C   UNL     1      -6.762  10.048  19.076  0.00  0.00    +0.000 C 
ENDBRANCH   8  12
ENDBRANCH   4   6
BRANCH   2  16
ATOM     16  C   UNL     1       1.586  12.915  20.926  0.00  0.00    +0.000 C 
ATOM     17  C   UNL     1       1.619  14.275  21.600  0.00  0.00    +0.000 C 
ENDBRANCH   2  16
BRANCH   1  18
ATOM     18  C   UNL     1      -0.678  11.245  20.653  0.00  0.00    +0.000 C 
BRANCH  18  19
ATOM     19  C   UNL     1      -0.246   9.771  20.530  0.00  0.00    +0.000 C 
BRANCH  19  20
ATOM     20  O   UNL     1       1.143   9.442  20.804  0.00  0.00    +0.000 OA
BRANCH  20  24
ATOM     21  C   UNL     1       2.672   6.045  18.733  0.00  0.00    +0.000 A 
ATOM     22  C   UNL     1       2.194   5.953  20.026  0.00  0.00    +0.000 A 
ATOM     23  C   UNL     1       1.637   7.060  20.666  0.00  0.00    +0.000 A 
ATOM     24  C   UNL     1       1.566   8.330  20.066  0.00  0.00    +0.000 A 
ATOM     25  C   UNL     1       1.979   8.424  18.728  0.00  0.00    +0.000 A 
ATOM     26  C   UNL     1       1.885   9.606  17.805  0.00  0.00    +0.000 C 
ATOM     27  C   UNL     1       2.572   7.294  18.107  0.00  0.00    +0.000 A 
BRANCH  21  28
ATOM     28  C   UNL     1       3.218   4.875  17.945  0.00  0.00    +0.000 C 
BRANCH  28  29
ATOM     29  C   UNL     1       4.675   4.478  18.203  0.00  0.00    +0.000 C 
BRANCH  29  30
ATOM     30  O   UNL     1       5.288   3.990  17.007  0.00  0.00    +0.000 OA
BRANCH  30  32
ATOM     31  C   UNL     1       7.507   4.635  17.638  0.00  0.00    +0.000 C 
ATOM     32  C   UNL     1       6.397   4.800  16.621  0.00  0.00    +0.000 C 
ENDBRANCH  30  32
ENDBRANCH  29  30
ENDBRANCH  28  29
ENDBRANCH  21  28
ENDBRANCH  20  24
ENDBRANCH  19  20
ENDBRANCH  18  19
ENDBRANCH   1  18
TORSDOF 11
ENDMDL
MODEL 3
REMARK VINA RESULT:      -6.2      3.890      7.297
REMARK  Name = 
REMARK  18 active torsions:
REMARK  status: ('A' for Active; 'I' for Inactive)
REMARK    1  A    between atoms: C_1  and  C_2
REMARK    2  A    between atoms: C_2  and  O_3
REMARK    3  A    between atoms: O_3  and  C_4
REMARK    4  A    between atoms: C_4  and  C_5
REMARK    5  A    between atoms: C_5  and  C_6
REMARK    6  A    between atoms: C_9  and  O_10
REMARK    7  A    between atoms: O_10  and  C_11
REMARK    8  A    between atoms: C_11  and  C_12
REMARK    9  A    between atoms: C_12  and  N_13
REMARK   10  A    between atoms: C_14  and  C_16
REMARK   11  A    between atoms: C_16  and  C_17
REMARK   12  A    between atoms: C_18  and  C_20
REMARK   13  A    between atoms: C_22  and  C_23
REMARK   14  A    between atoms: C_23  and  C_24
REMARK   15  A    between atoms: C_23  and  C_25
REMARK   16  A    between atoms: C_23  and  C_26
REMARK   17  A    between atoms: N_28  and  C_29
REMARK   18  A    between atoms: C_30  and  C_31
REMARK                            x       y       z     vdW  Elec       q    Type
REMARK                         _______ _______ _______ _____ _____    ______ ____
ROOT
ATOM      1  N   UNL     1       1.954   4.372  19.391  0.00  0.00    +0.000 N 
ATOM      2  C   UNL     1       1.004   3.336  19.591  0.00  0.00    +0.000 C 
ATOM      3  O   UNL     1       0.381   2.757  18.721  0.00  0.00    +0.000 OA
ATOM      4  C   UNL     1       2.609   4.444  18.111  0.00  0.00    +0.000 C 
ATOM      5  O   UNL     1       2.302   3.727  17.173  0.00  0.00    +0.000 OA
ENDROOT
BRANCH   4   6
ATOM      6  C   UNL     1       3.728   5.372  17.949  0.00  0.00    +0.000 A 
ATOM      7  C   UNL     1       5.083   5.207  18.158  0.00  0.00    +0.000 A 
ATOM      8  C   UNL     1       5.728   6.344  17.655  0.00  0.00    +0.000 A 
ATOM      9  N   UNL     1       4.830   7.264  17.293  0.00  0.00    +0.000 NA
ATOM     10  N   UNL     1       3.631   6.696  17.556  0.00  0.00    +0.000 N 
ATOM     11  C   UNL     1       2.445   7.489  17.321  0.00  0.00    +0.000 C 
BRANCH   8  12
ATOM     12  C   UNL     1       7.223   6.556  17.535  0.00  0.00    +0.000 C 
ATOM     13  C   UNL     1       7.576   8.062  17.424  0.00  0.00    +0.000 C 
ATOM     14  C   UNL     1       7.948   5.987  18.767  0.00  0.00    +0.000 C 
ATOM     15  C   UNL     1       7.737   5.860  16.267  0.00  0.00    +0.000 C 
ENDBRANCH   8  12
ENDBRANCH   4   6
BRANCH   2  16
ATOM     16  C   UNL     1       0.757   2.993  21.071  0.00  0.00    +0.000 C 
ATOM     17  C   UNL     1       1.876   2.319  21.844  0.00  0.00    +0.000 C 
ENDBRANCH   2  16
BRANCH   1  18
ATOM     18  C   UNL     1       2.414   5.222  20.549  0.00  0.00    +0.000 C 
BRANCH  18  19
ATOM     19  C   UNL     1       1.458   6.391  20.852  0.00  0.00    +0.000 C 
BRANCH  19  20
ATOM     20  O   UNL     1       1.814   7.711  20.357  0.00  0.00    +0.000 OA
BRANCH  20  24
ATOM     21  C   UNL     1      -0.612  10.572  22.381  0.00  0.00    +0.000 A 
ATOM     22  C   UNL     1       0.030   9.553  23.060  0.00  0.00    +0.000 A 
ATOM     23  C   UNL     1       0.872   8.664  22.391  0.00  0.00    +0.000 A 
ATOM     24  C   UNL     1       1.087   8.718  21.002  0.00  0.00    +0.000 A 
ATOM     25  C   UNL     1       0.501   9.789  20.310  0.00  0.00    +0.000 A 
ATOM     26  C   UNL     1       0.673  10.170  18.867  0.00  0.00    +0.000 C 
ATOM     27  C   UNL     1      -0.377  10.662  21.003  0.00  0.00    +0.000 A 
BRANCH  21  28
ATOM     28  C   UNL     1      -1.477  11.619  23.045  0.00  0.00    +0.000 C 
BRANCH  28  29
ATOM     29  C   UNL     1      -2.531  12.310  22.174  0.00  0.00    +0.000 C 
BRANCH  29  30
ATOM     30  O   UNL     1      -2.435  13.732  22.293  0.00  0.00    +0.000 OA
BRANCH  30  32
ATOM     31  C   UNL     1      -4.163  14.074  23.916  0.00  0.00    +0.000 C 
ATOM     32  C   UNL     1      -3.716  14.326  22.491  0.00  0.00    +0.000 C 
ENDBRANCH  30  32
ENDBRANCH  29  30
ENDBRANCH  28  29
ENDBRANCH  21  28
ENDBRANCH  20  24
ENDBRANCH  19  20
ENDBRANCH  18  19
ENDBRANCH   1  18
TORSDOF 11
ENDMDL
MODEL 4
REMARK VINA RESULT:      -6.2      5.047      7.766
REMARK  Name = 
REMARK  18 active torsions:
REMARK  status: ('A' for Active; 'I' for Inactive)
REMARK    1  A    between atoms: C_1  and  C_2
REMARK    2  A    between atoms: C_2  and  O_3
REMARK    3  A    between atoms: O_3  and  C_4
REMARK    4  A    between atoms: C_4  and  C_5
REMARK    5  A    between atoms: C_5  and  C_6
REMARK    6  A    between atoms: C_9  and  O_10
REMARK    7  A    between atoms: O_10  and  C_11
REMARK    8  A    between atoms: C_11  and  C_12
REMARK    9  A    between atoms: C_12  and  N_13
REMARK   10  A    between atoms: C_14  and  C_16
REMARK   11  A    between atoms: C_16  and  C_17
REMARK   12  A    between atoms: C_18  and  C_20
REMARK   13  A    between atoms: C_22  and  C_23
REMARK   14  A    between atoms: C_23  and  C_24
REMARK   15  A    between atoms: C_23  and  C_25
REMARK   16  A    between atoms: C_23  and  C_26
REMARK   17  A    between atoms: N_28  and  C_29
REMARK   18  A    between atoms: C_30  and  C_31
REMARK                            x       y       z     vdW  Elec       q    Type
REMARK                         _______ _______ _______ _____ _____    ______ ____
ROOT
ATOM      1  N   UNL     1       1.627   7.937  19.920  0.00  0.00    +0.000 N 
ATOM      2  C   UNL     1       0.902   8.388  21.055  0.00  0.00    +0.000 C 
ATOM      3  O   UNL     1       0.309   7.686  21.852  0.00  0.00    +0.000 OA
ATOM      4  C   UNL     1       2.130   6.588  19.938  0.00  0.00    +0.000 C 
ATOM      5  O   UNL     1       1.864   5.798  20.830  0.00  0.00    +0.000 OA
ENDROOT
BRANCH   4   6
ATOM      6  C   UNL     1       3.044   6.168  18.876  0.00  0.00    +0.000 A 
ATOM      7  C   UNL     1       4.312   6.601  18.544  0.00  0.00    +0.000 A 
ATOM      8  C   UNL     1       4.817   5.724  17.576  0.00  0.00    +0.000 A 
ATOM      9  N   UNL     1       3.867   4.872  17.183  0.00  0.00    +0.000 NA
ATOM     10  N   UNL     1       2.779   5.208  17.914  0.00  0.00    +0.000 N 
ATOM     11  C   UNL     1       1.551   4.488  17.662  0.00  0.00    +0.000 C 
BRANCH   8  12
ATOM     12  C   UNL     1       6.221   5.714  17.010  0.00  0.00    +0.000 C 
ATOM     13  C   UNL     1       6.222   5.369  15.498  0.00  0.00    +0.000 C 
ATOM     14  C   UNL     1       6.881   7.093  17.183  0.00  0.00    +0.000 C 
ATOM     15  C   UNL     1       7.056   4.649  17.734  0.00  0.00    +0.000 C 
ENDBRANCH   8  12
ENDBRANCH   4   6
BRANCH   2  16
ATOM     16  C   UNL     1       0.868   9.920  21.205  0.00  0.00    +0.000 C 
ATOM     17  C   UNL     1      -0.082  10.517  22.227  0.00  0.00    +0.000 C 
ENDBRANCH   2  16
BRANCH   1  18
ATOM     18  C   UNL     1       2.041   8.907  18.841  0.00  0.00    +0.000 C 
BRANCH  18  19
ATOM     19  C   UNL     1       0.862   9.357  17.957  0.00  0.00    +0.000 C 
BRANCH  19  20
ATOM     20  O   UNL     1       0.342  10.702  18.145  0.00  0.00    +0.000 OA
BRANCH  20  24
ATOM     21  C   UNL     1      -3.898  10.842  17.735  0.00  0.00    +0.000 A 
ATOM     22  C   UNL     1      -3.144   9.842  17.151  0.00  0.00    +0.000 A 
ATOM     23  C   UNL     1      -1.765   9.773  17.349  0.00  0.00    +0.000 A 
ATOM     24  C   UNL     1      -1.056  10.725  18.106  0.00  0.00    +0.000 A 
ATOM     25  C   UNL     1      -1.815  11.704  18.765  0.00  0.00    +0.000 A 
ATOM     26  C   UNL     1      -1.344  12.747  19.738  0.00  0.00    +0.000 C 
ATOM     27  C   UNL     1      -3.212  11.775  18.524  0.00  0.00    +0.000 A 
BRANCH  21  28
ATOM     28  C   UNL     1      -5.403  10.940  17.631  0.00  0.00    +0.000 C 
BRANCH  28  29
ATOM     29  C   UNL     1      -6.022  12.338  17.734  0.00  0.00    +0.000 C 
BRANCH  29  30
ATOM     30  O   UNL     1      -7.259  12.295  18.452  0.00  0.00    +0.000 OA
BRANCH  30  32
ATOM     31  C   UNL     1      -7.237  11.713  20.775  0.00  0.00    +0.000 C 
ATOM     32  C   UNL     1      -7.119  12.835  19.764  0.00  0.00    +0.000 C 
ENDBRANCH  30  32
ENDBRANCH  29  30
ENDBRANCH  28  29
ENDBRANCH  21  28
ENDBRANCH  20  24
ENDBRANCH  19  20
ENDBRANCH  18  19
ENDBRANCH   1  18
TORSDOF 11
ENDMDL
MODEL 5
REMARK VINA RESULT:      -6.2      5.862     10.473
REMARK  Name = 
REMARK  18 active torsions:
REMARK  status: ('A' for Active; 'I' for Inactive)
REMARK    1  A    between atoms: C_1  and  C_2
REMARK    2  A    between atoms: C_2  and  O_3
REMARK    3  A    between atoms: O_3  and  C_4
REMARK    4  A    between atoms: C_4  and  C_5
REMARK    5  A    between atoms: C_5  and  C_6
REMARK    6  A    between atoms: C_9  and  O_10
REMARK    7  A    between atoms: O_10  and  C_11
REMARK    8  A    between atoms: C_11  and  C_12
REMARK    9  A    between atoms: C_12  and  N_13
REMARK   10  A    between atoms: C_14  and  C_16
REMARK   11  A    between atoms: C_16  and  C_17
REMARK   12  A    between atoms: C_18  and  C_20
REMARK   13  A    between atoms: C_22  and  C_23
REMARK   14  A    between atoms: C_23  and  C_24
REMARK   15  A    between atoms: C_23  and  C_25
REMARK   16  A    between atoms: C_23  and  C_26
REMARK   17  A    between atoms: N_28  and  C_29
REMARK   18  A    between atoms: C_30  and  C_31
REMARK                            x       y       z     vdW  Elec       q    Type
REMARK                         _______ _______ _______ _____ _____    ______ ____
ROOT
ATOM      1  N   UNL     1      -2.138  11.238  18.475  0.00  0.00    +0.000 N 
ATOM      2  C   UNL     1      -3.192  10.654  17.724  0.00  0.00    +0.000 C 
ATOM      3  O   UNL     1      -4.344  10.521  18.091  0.00  0.00    +0.000 OA
ATOM      4  C   UNL     1      -2.490  12.168  19.516  0.00  0.00    +0.000 C 
ATOM      5  O   UNL     1      -3.646  12.384  19.842  0.00  0.00    +0.000 OA
ENDROOT
BRANCH   4   6
ATOM      6  C   UNL     1      -1.423  12.929  20.165  0.00  0.00    +0.000 A 
ATOM      7  C   UNL     1      -0.824  14.126  19.826  0.00  0.00    +0.000 A 
ATOM      8  C   UNL     1      -0.005  14.506  20.897  0.00  0.00    +0.000 A 
ATOM      9  N   UNL     1       0.052  13.528  21.805  0.00  0.00    +0.000 NA
ATOM     10  N   UNL     1      -0.740  12.551  21.308  0.00  0.00    +0.000 N 
ATOM     11  C   UNL     1      -0.831  11.315  22.054  0.00  0.00    +0.000 C 
BRANCH   8  12
ATOM     12  C   UNL     1       0.743  15.814  21.043  0.00  0.00    +0.000 C 
ATOM     13  C   UNL     1      -0.103  16.870  21.803  0.00  0.00    +0.000 C 
ATOM     14  C   UNL     1       2.051  15.602  21.823  0.00  0.00    +0.000 C 
ATOM     15  C   UNL     1       1.058  16.380  19.651  0.00  0.00    +0.000 C 
ENDBRANCH   8  12
ENDBRANCH   4   6
BRANCH   2  16
ATOM     16  C   UNL     1      -2.757  10.124  16.346  0.00  0.00    +0.000 C 
ATOM     17  C   UNL     1      -3.361  10.766  15.110  0.00  0.00    +0.000 C 
ENDBRANCH   2  16
BRANCH   1  18
ATOM     18  C   UNL     1      -0.702  11.056  18.048  0.00  0.00    +0.000 C 
BRANCH  18  19
ATOM     19  C   UNL     1      -0.031   9.837  18.707  0.00  0.00    +0.000 C 
BRANCH  19  20
ATOM     20  O   UNL     1       1.395   9.907  18.983  0.00  0.00    +0.000 OA
BRANCH  20  24
ATOM     21  C   UNL     1       2.980   5.953  18.854  0.00  0.00    +0.000 A 
ATOM     22  C   UNL     1       3.166   6.845  17.815  0.00  0.00    +0.000 A 
ATOM     23  C   UNL     1       2.697   8.155  17.901  0.00  0.00    +0.000 A 
ATOM     24  C   UNL     1       1.979   8.636  19.011  0.00  0.00    +0.000 A 
ATOM     25  C   UNL     1       1.844   7.767  20.105  0.00  0.00    +0.000 A 
ATOM     26  C   UNL     1       1.256   8.055  21.457  0.00  0.00    +0.000 C 
ATOM     27  C   UNL     1       2.300   6.428  19.983  0.00  0.00    +0.000 A 
BRANCH  21  28
ATOM     28  C   UNL     1       3.524   4.542  18.869  0.00  0.00    +0.000 C 
BRANCH  28  29
ATOM     29  C   UNL     1       4.793   4.274  18.051  0.00  0.00    +0.000 C 
BRANCH  29  30
ATOM     30  O   UNL     1       5.961   4.417  18.864  0.00  0.00    +0.000 OA
BRANCH  30  32
ATOM     31  C   UNL     1       7.720   6.043  18.906  0.00  0.00    +0.000 C 
ATOM     32  C   UNL     1       7.058   4.935  18.114  0.00  0.00    +0.000 C 
ENDBRANCH  30  32
ENDBRANCH  29  30
ENDBRANCH  28  29
ENDBRANCH  21  28
ENDBRANCH  20  24
ENDBRANCH  19  20
ENDBRANCH  18  19
ENDBRANCH   1  18
TORSDOF 11
ENDMDL
MODEL 6
REMARK VINA RESULT:      -6.1      6.032     10.457
REMARK  Name = 
REMARK  18 active torsions:
REMARK  status: ('A' for Active; 'I' for Inactive)
REMARK    1  A    between atoms: C_1  and  C_2
REMARK    2  A    between atoms: C_2  and  O_3
REMARK    3  A    between atoms: O_3  and  C_4
REMARK    4  A    between atoms: C_4  and  C_5
REMARK    5  A    between atoms: C_5  and  C_6
REMARK    6  A    between atoms: C_9  and  O_10
REMARK    7  A    between atoms: O_10  and  C_11
REMARK    8  A    between atoms: C_11  and  C_12
REMARK    9  A    between atoms: C_12  and  N_13
REMARK   10  A    between atoms: C_14  and  C_16
REMARK   11  A    between atoms: C_16  and  C_17
REMARK   12  A    between atoms: C_18  and  C_20
REMARK   13  A    between atoms: C_22  and  C_23
REMARK   14  A    between atoms: C_23  and  C_24
REMARK   15  A    between atoms: C_23  and  C_25
REMARK   16  A    between atoms: C_23  and  C_26
REMARK   17  A    between atoms: N_28  and  C_29
REMARK   18  A    between atoms: C_30  and  C_31
REMARK                            x       y       z     vdW  Elec       q    Type
REMARK                         _______ _______ _______ _____ _____    ______ ____
ROOT
ATOM      1  N   UNL     1      -2.637  11.841  18.623  0.00  0.00    +0.000 N 
ATOM      2  C   UNL     1      -3.870  11.481  18.018  0.00  0.00    +0.000 C 
ATOM      3  O   UNL     1      -4.939  11.360  18.587  0.00  0.00    +0.000 OA
ATOM      4  C   UNL     1      -2.686  12.583  19.856  0.00  0.00    +0.000 C 
ATOM      5  O   UNL     1      -3.730  12.812  20.446  0.00  0.00    +0.000 OA
ENDROOT
BRANCH   4   6
ATOM      6  C   UNL     1      -1.442  13.135  20.390  0.00  0.00    +0.000 A 
ATOM      7  C   UNL     1      -0.648  14.177  19.953  0.00  0.00    +0.000 A 
ATOM      8  C   UNL     1       0.313  14.420  20.943  0.00  0.00    +0.000 A 
ATOM      9  N   UNL     1       0.248  13.480  21.890  0.00  0.00    +0.000 NA
ATOM     10  N   UNL     1      -0.758  12.665  21.498  0.00  0.00    +0.000 N 
ATOM     11  C   UNL     1      -1.031  11.497  22.307  0.00  0.00    +0.000 C 
BRANCH   8  12
ATOM     12  C   UNL     1       1.313  15.556  20.972  0.00  0.00    +0.000 C 
ATOM     13  C   UNL     1       2.393  15.334  22.064  0.00  0.00    +0.000 C 
ATOM     14  C   UNL     1       2.028  15.679  19.616  0.00  0.00    +0.000 C 
ATOM     15  C   UNL     1       0.586  16.869  21.293  0.00  0.00    +0.000 C 
ENDBRANCH   8  12
ENDBRANCH   4   6
BRANCH   2  16
ATOM     16  C   UNL     1      -3.764  11.189  16.511  0.00  0.00    +0.000 C 
ATOM     17  C   UNL     1      -3.350   9.793  16.081  0.00  0.00    +0.000 C 
ENDBRANCH   2  16
BRANCH   1  18
ATOM     18  C   UNL     1      -1.336  11.646  17.884  0.00  0.00    +0.000 C 
BRANCH  18  19
ATOM     19  C   UNL     1      -0.606  10.352  18.291  0.00  0.00    +0.000 C 
BRANCH  19  20
ATOM     20  O   UNL     1       0.573  10.470  19.134  0.00  0.00    +0.000 OA
BRANCH  20  24
ATOM     21  C   UNL     1       2.850   6.896  18.675  0.00  0.00    +0.000 A 
ATOM     22  C   UNL     1       2.813   7.866  17.691  0.00  0.00    +0.000 A 
ATOM     23  C   UNL     1       2.117   9.059  17.884  0.00  0.00    +0.000 A 
ATOM     24  C   UNL     1       1.382   9.331  19.053  0.00  0.00    +0.000 A 
ATOM     25  C   UNL     1       1.468   8.390  20.090  0.00  0.00    +0.000 A 
ATOM     26  C   UNL     1       0.909   8.484  21.482  0.00  0.00    +0.000 C 
ATOM     27  C   UNL     1       2.155   7.169  19.861  0.00  0.00    +0.000 A 
BRANCH  21  28
ATOM     28  C   UNL     1       3.644   5.614  18.573  0.00  0.00    +0.000 C 
BRANCH  28  29
ATOM     29  C   UNL     1       2.987   4.441  17.837  0.00  0.00    +0.000 C 
BRANCH  29  30
ATOM     30  O   UNL     1       2.078   3.747  18.695  0.00  0.00    +0.000 OA
BRANCH  30  32
ATOM     31  C   UNL     1       3.334   1.805  18.069  0.00  0.00    +0.000 C 
ATOM     32  C   UNL     1       1.954   2.376  18.323  0.00  0.00    +0.000 C 
ENDBRANCH  30  32
ENDBRANCH  29  30
ENDBRANCH  28  29
ENDBRANCH  21  28
ENDBRANCH  20  24
ENDBRANCH  19  20
ENDBRANCH  18  19
ENDBRANCH   1  18
TORSDOF 11
ENDMDL
MODEL 7
REMARK VINA RESULT:      -6.1      2.086      3.992
REMARK  Name = 
REMARK  18 active torsions:
REMARK  status: ('A' for Active; 'I' for Inactive)
REMARK    1  A    between atoms: C_1  and  C_2
REMARK    2  A    between atoms: C_2  and  O_3
REMARK    3  A    between atoms: O_3  and  C_4
REMARK    4  A    between atoms: C_4  and  C_5
REMARK    5  A    between atoms: C_5  and  C_6
REMARK    6  A    between atoms: C_9  and  O_10
REMARK    7  A    between atoms: O_10  and  C_11
REMARK    8  A    between atoms: C_11  and  C_12
REMARK    9  A    between atoms: C_12  and  N_13
REMARK   10  A    between atoms: C_14  and  C_16
REMARK   11  A    between atoms: C_16  and  C_17
REMARK   12  A    between atoms: C_18  and  C_20
REMARK   13  A    between atoms: C_22  and  C_23
REMARK   14  A    between atoms: C_23  and  C_24
REMARK   15  A    between atoms: C_23  and  C_25
REMARK   16  A    between atoms: C_23  and  C_26
REMARK   17  A    between atoms: N_28  and  C_29
REMARK   18  A    between atoms: C_30  and  C_31
REMARK                            x       y       z     vdW  Elec       q    Type
REMARK                         _______ _______ _______ _____ _____    ______ ____
ROOT
ATOM      1  N   UNL     1       6.931   6.526  17.112  0.00  0.00    +0.000 N 
ATOM      2  C   UNL     1       7.725   7.161  18.103  0.00  0.00    +0.000 C 
ATOM      3  O   UNL     1       8.373   6.602  18.968  0.00  0.00    +0.000 OA
ATOM      4  C   UNL     1       7.256   5.169  16.759  0.00  0.00    +0.000 C 
ATOM      5  O   UNL     1       8.105   4.520  17.349  0.00  0.00    +0.000 OA
ENDROOT
BRANCH   4   6
ATOM      6  C   UNL     1       6.585   4.565  15.608  0.00  0.00    +0.000 A 
ATOM      7  C   UNL     1       6.814   4.693  14.252  0.00  0.00    +0.000 A 
ATOM      8  C   UNL     1       6.022   3.740  13.599  0.00  0.00    +0.000 A 
ATOM      9  N   UNL     1       5.203   3.144  14.470  0.00  0.00    +0.000 NA
ATOM     10  N   UNL     1       5.495   3.713  15.662  0.00  0.00    +0.000 N 
ATOM     11  C   UNL     1       4.714   3.309  16.810  0.00  0.00    +0.000 C 
BRANCH   8  12
ATOM     12  C   UNL     1       6.039   3.410  12.122  0.00  0.00    +0.000 C 
ATOM     13  C   UNL     1       6.982   4.361  11.338  0.00  0.00    +0.000 C 
ATOM     14  C   UNL     1       6.527   1.968  11.898  0.00  0.00    +0.000 C 
ATOM     15  C   UNL     1       4.626   3.573  11.545  0.00  0.00    +0.000 C 
ENDBRANCH   8  12
ENDBRANCH   4   6
BRANCH   2  16
ATOM     16  C   UNL     1       7.683   8.698  18.046  0.00  0.00    +0.000 C 
ATOM     17  C   UNL     1       8.860   9.467  18.617  0.00  0.00    +0.000 C 
ENDBRANCH   2  16
BRANCH   1  18
ATOM     18  C   UNL     1       5.931   7.320  16.308  0.00  0.00    +0.000 C 
BRANCH  18  19
ATOM     19  C   UNL     1       4.474   6.910  16.593  0.00  0.00    +0.000 C 
BRANCH  19  20
ATOM     20  O   UNL     1       4.130   6.506  17.947  0.00  0.00    +0.000 OA
BRANCH  20  24
ATOM     21  C   UNL     1       1.105   9.031  19.573  0.00  0.00    +0.000 A 
ATOM     22  C   UNL     1       1.744   9.333  18.385  0.00  0.00    +0.000 A 
ATOM     23  C   UNL     1       2.684   8.464  17.833  0.00  0.00    +0.000 A 
ATOM     24  C   UNL     1       3.071   7.265  18.459  0.00  0.00    +0.000 A 
ATOM     25  C   UNL     1       2.381   6.907  19.627  0.00  0.00    +0.000 A 
ATOM     26  C   UNL     1       2.486   5.633  20.417  0.00  0.00    +0.000 C 
ATOM     27  C   UNL     1       1.452   7.821  20.188  0.00  0.00    +0.000 A 
BRANCH  21  28
ATOM     28  C   UNL     1       0.021   9.883  20.193  0.00  0.00    +0.000 C 
BRANCH  28  29
ATOM     29  C   UNL     1      -1.016  10.494  19.245  0.00  0.00    +0.000 C 
BRANCH  29  30
ATOM     30  O   UNL     1      -1.012  11.921  19.341  0.00  0.00    +0.000 OA
BRANCH  30  32
ATOM     31  C   UNL     1      -2.386  12.567  21.194  0.00  0.00    +0.000 C 
ATOM     32  C   UNL     1      -2.301  12.424  19.688  0.00  0.00    +0.000 C 
ENDBRANCH  30  32
ENDBRANCH  29  30
ENDBRANCH  28  29
ENDBRANCH  21  28
ENDBRANCH  20  24
ENDBRANCH  19  20
ENDBRANCH  18  19
ENDBRANCH   1  18
TORSDOF 11
ENDMDL
MODEL 8
REMARK VINA RESULT:      -6.1      2.806      6.007
REMARK  Name = 
REMARK  18 active torsions:
REMARK  status: ('A' for Active; 'I' for Inactive)
REMARK    1  A    between atoms: C_1  and  C_2
REMARK    2  A    between atoms: C_2  and  O_3
REMARK    3  A    between atoms: O_3  and  C_4
REMARK    4  A    between atoms: C_4  and  C_5
REMARK    5  A    between atoms: C_5  and  C_6
REMARK    6  A    between atoms: C_9  and  O_10
REMARK    7  A    between atoms: O_10  and  C_11
REMARK    8  A    between atoms: C_11  and  C_12
REMARK    9  A    between atoms: C_12  and  N_13
REMARK   10  A    between atoms: C_14  and  C_16
REMARK   11  A    between atoms: C_16  and  C_17
REMARK   12  A    between atoms: C_18  and  C_20
REMARK   13  A    between atoms: C_22  and  C_23
REMARK   14  A    between atoms: C_23  and  C_24
REMARK   15  A    between atoms: C_23  and  C_25
REMARK   16  A    between atoms: C_23  and  C_26
REMARK   17  A    between atoms: N_28  and  C_29
REMARK   18  A    between atoms: C_30  and  C_31
REMARK                            x       y       z     vdW  Elec       q    Type
REMARK                         _______ _______ _______ _____ _____    ______ ____
ROOT
ATOM      1  N   UNL     1       6.212   6.290  18.290  0.00  0.00    +0.000 N 
ATOM      2  C   UNL     1       7.485   6.914  18.226  0.00  0.00    +0.000 C 
ATOM      3  O   UNL     1       8.431   6.689  18.958  0.00  0.00    +0.000 OA
ATOM      4  C   UNL     1       6.131   4.989  18.900  0.00  0.00    +0.000 C 
ATOM      5  O   UNL     1       7.083   4.461  19.453  0.00  0.00    +0.000 OA
ENDROOT
BRANCH   4   6
ATOM      6  C   UNL     1       4.877   4.244  18.800  0.00  0.00    +0.000 A 
ATOM      7  C   UNL     1       3.932   3.923  19.753  0.00  0.00    +0.000 A 
ATOM      8  C   UNL     1       2.827   3.378  19.086  0.00  0.00    +0.000 A 
ATOM      9  N   UNL     1       3.109   3.204  17.792  0.00  0.00    +0.000 NA
ATOM     10  N   UNL     1       4.378   3.651  17.653  0.00  0.00    +0.000 N 
ATOM     11  C   UNL     1       4.994   3.532  16.350  0.00  0.00    +0.000 C 
BRANCH   8  12
ATOM     12  C   UNL     1       1.493   3.008  19.699  0.00  0.00    +0.000 C 
ATOM     13  C   UNL     1       0.663   2.105  18.748  0.00  0.00    +0.000 C 
ATOM     14  C   UNL     1       1.701   2.244  21.018  0.00  0.00    +0.000 C 
ATOM     15  C   UNL     1       0.680   4.282  19.962  0.00  0.00    +0.000 C 
ENDBRANCH   8  12
ENDBRANCH   4   6
BRANCH   2  16
ATOM     16  C   UNL     1       7.596   7.994  17.135  0.00  0.00    +0.000 C 
ATOM     17  C   UNL     1       8.122   9.361  17.534  0.00  0.00    +0.000 C 
ENDBRANCH   2  16
BRANCH   1  18
ATOM     18  C   UNL     1       5.034   6.875  17.549  0.00  0.00    +0.000 C 
BRANCH  18  19
ATOM     19  C   UNL     1       4.025   7.569  18.482  0.00  0.00    +0.000 C 
BRANCH  19  20
ATOM     20  O   UNL     1       2.611   7.295  18.283  0.00  0.00    +0.000 OA
BRANCH  20  24
ATOM     21  C   UNL     1       0.428  10.773  19.424  0.00  0.00    +0.000 A 
ATOM     22  C   UNL     1       0.835  10.566  18.119  0.00  0.00    +0.000 A 
ATOM     23  C   UNL     1       1.491   9.392  17.750  0.00  0.00    +0.000 A 
ATOM     24  C   UNL     1       1.815   8.379  18.671  0.00  0.00    +0.000 A 
ATOM     25  C   UNL     1       1.345   8.540  19.983  0.00  0.00    +0.000 A 
ATOM     26  C   UNL     1       1.421   7.567  21.125  0.00  0.00    +0.000 C 
ATOM     27  C   UNL     1       0.708   9.755  20.345  0.00  0.00    +0.000 A 
BRANCH  21  28
ATOM     28  C   UNL     1      -0.355  11.982  19.886  0.00  0.00    +0.000 C 
BRANCH  28  29
ATOM     29  C   UNL     1      -0.386  12.260  21.392  0.00  0.00    +0.000 C 
BRANCH  29  30
ATOM     30  O   UNL     1      -1.711  12.590  21.821  0.00  0.00    +0.000 OA
BRANCH  30  32
ATOM     31  C   UNL     1      -1.189  10.703  23.203  0.00  0.00    +0.000 C 
ATOM     32  C   UNL     1      -2.032  11.953  23.056  0.00  0.00    +0.000 C 
ENDBRANCH  30  32
ENDBRANCH  29  30
ENDBRANCH  28  29
ENDBRANCH  21  28
ENDBRANCH  20  24
ENDBRANCH  19  20
ENDBRANCH  18  19
ENDBRANCH   1  18
TORSDOF 11
ENDMDL
MODEL 9
REMARK VINA RESULT:      -6.1      7.360     12.171
REMARK  Name = 
REMARK  18 active torsions:
REMARK  status: ('A' for Active; 'I' for Inactive)
REMARK    1  A    between atoms: C_1  and  C_2
REMARK    2  A    between atoms: C_2  and  O_3
REMARK    3  A    between atoms: O_3  and  C_4
REMARK    4  A    between atoms: C_4  and  C_5
REMARK    5  A    between atoms: C_5  and  C_6
REMARK    6  A    between atoms: C_9  and  O_10
REMARK    7  A    between atoms: O_10  and  C_11
REMARK    8  A    between atoms: C_11  and  C_12
REMARK    9  A    between atoms: C_12  and  N_13
REMARK   10  A    between atoms: C_14  and  C_16
REMARK   11  A    between atoms: C_16  and  C_17
REMARK   12  A    between atoms: C_18  and  C_20
REMARK   13  A    between atoms: C_22  and  C_23
REMARK   14  A    between atoms: C_23  and  C_24
REMARK   15  A    between atoms: C_23  and  C_25
REMARK   16  A    between atoms: C_23  and  C_26
REMARK   17  A    between atoms: N_28  and  C_29
REMARK   18  A    between atoms: C_30  and  C_31
REMARK                            x       y       z     vdW  Elec       q    Type
REMARK                         _______ _______ _______ _____ _____    ______ ____
ROOT
ATOM      1  N   UNL     1      -3.531  12.035  19.235  0.00  0.00    +0.000 N 
ATOM      2  C   UNL     1      -3.822  11.293  18.060  0.00  0.00    +0.000 C 
ATOM      3  O   UNL     1      -4.858  10.700  17.825  0.00  0.00    +0.000 OA
ATOM      4  C   UNL     1      -4.639  12.551  19.995  0.00  0.00    +0.000 C 
ATOM      5  O   UNL     1      -5.801  12.285  19.730  0.00  0.00    +0.000 OA
ENDROOT
BRANCH   4   6
ATOM      6  C   UNL     1      -4.364  13.480  21.090  0.00  0.00    +0.000 A 
ATOM      7  C   UNL     1      -3.865  13.268  22.359  0.00  0.00    +0.000 A 
ATOM      8  C   UNL     1      -3.606  14.522  22.927  0.00  0.00    +0.000 A 
ATOM      9  N   UNL     1      -4.069  15.492  22.134  0.00  0.00    +0.000 NA
ATOM     10  N   UNL     1      -4.599  14.845  21.071  0.00  0.00    +0.000 N 
ATOM     11  C   UNL     1      -5.244  15.642  20.052  0.00  0.00    +0.000 C 
BRANCH   8  12
ATOM     12  C   UNL     1      -2.923  14.792  24.251  0.00  0.00    +0.000 C 
ATOM     13  C   UNL     1      -1.383  14.644  24.135  0.00  0.00    +0.000 C 
ATOM     14  C   UNL     1      -3.228  16.220  24.733  0.00  0.00    +0.000 C 
ATOM     15  C   UNL     1      -3.413  13.779  25.294  0.00  0.00    +0.000 C 
ENDBRANCH   8  12
ENDBRANCH   4   6
BRANCH   2  16
ATOM     16  C   UNL     1      -2.661  11.242  17.050  0.00  0.00    +0.000 C 
ATOM     17  C   UNL     1      -1.974   9.908  16.819  0.00  0.00    +0.000 C 
ENDBRANCH   2  16
BRANCH   1  18
ATOM     18  C   UNL     1      -2.114  12.450  19.547  0.00  0.00    +0.000 C 
BRANCH  18  19
ATOM     19  C   UNL     1      -1.318  11.354  20.281  0.00  0.00    +0.000 C 
BRANCH  19  20
ATOM     20  O   UNL     1       0.117  11.537  20.431  0.00  0.00    +0.000 OA
BRANCH  20  24
ATOM     21  C   UNL     1       2.062   8.174  18.678  0.00  0.00    +0.000 A 
ATOM     22  C   UNL     1       1.856   9.344  17.972  0.00  0.00    +0.000 A 
ATOM     23  C   UNL     1       1.277  10.457  18.580  0.00  0.00    +0.000 A 
ATOM     24  C   UNL     1       0.832  10.450  19.915  0.00  0.00    +0.000 A 
ATOM     25  C   UNL     1       1.100   9.297  20.668  0.00  0.00    +0.000 A 
ATOM     26  C   UNL     1       0.868   9.066  22.134  0.00  0.00    +0.000 C 
ATOM     27  C   UNL     1       1.661   8.165  20.020  0.00  0.00    +0.000 A 
BRANCH  21  28
ATOM     28  C   UNL     1       2.752   6.953  18.113  0.00  0.00    +0.000 C 
BRANCH  28  29
ATOM     29  C   UNL     1       2.178   5.585  18.497  0.00  0.00    +0.000 C 
BRANCH  29  30
ATOM     30  O   UNL     1       3.193   4.746  19.054  0.00  0.00    +0.000 OA
BRANCH  30  32
ATOM     31  C   UNL     1       1.330   4.528  20.545  0.00  0.00    +0.000 C 
ATOM     32  C   UNL     1       2.794   4.212  20.315  0.00  0.00    +0.000 C 
ENDBRANCH  30  32
ENDBRANCH  29  30
ENDBRANCH  28  29
ENDBRANCH  21  28
ENDBRANCH  20  24
ENDBRANCH  19  20
ENDBRANCH  18  19
ENDBRANCH   1  18
TORSDOF 11
ENDMDL
