MODEL 1
REMARK VINA RESULT:      -6.9      0.000      0.000
REMARK  Name = 
REMARK  8 active torsions:
REMARK  status: ('A' for Active; 'I' for Inactive)
REMARK    1  A    between atoms: C_1  and  C_2
REMARK    2  A    between atoms: C_2  and  C_3
REMARK    3  A    between atoms: C_7  and  C_8
REMARK    4  A    between atoms: C_9  and  O_10
REMARK    5  A    between atoms: O_10  and  C_11
REMARK    6  A    between atoms: C_11  and  C_13
REMARK    7  A    between atoms: C_13  and  C_14
REMARK    8  A    between atoms: C_14  and  N_15
REMARK                            x       y       z     vdW  Elec       q    Type
REMARK                         _______ _______ _______ _____ _____    ______ ____
ROOT
ATOM      1  O   UNL     1       3.112   6.153  18.220  0.00  0.00    +0.000 OA
ENDROOT
BRANCH   1  10
ATOM      2  C   UNL     1       7.674   4.606  16.776  0.00  0.00    +0.000 C 
ATOM      3  C   UNL     1       6.576   5.661  17.019  0.00  0.00    +0.000 C 
ATOM      4  C   UNL     1       7.318   6.975  17.354  0.00  0.00    +0.000 C 
ATOM      5  C   UNL     1       5.560   5.785  15.859  0.00  0.00    +0.000 C 
ATOM      6  C   UNL     1       4.856   4.406  15.839  0.00  0.00    +0.000 C 
ATOM      7  C   UNL     1       4.805   4.022  17.327  0.00  0.00    +0.000 C 
ATOM      8  C   UNL     1       5.450   5.251  18.021  0.00  0.00    +0.000 C 
ATOM      9  C   UNL     1       5.871   4.959  19.449  0.00  0.00    +0.000 C 
ATOM     10  C   UNL     1       4.470   6.456  17.902  0.00  0.00    +0.000 C 
ATOM     11  C   UNL     1       4.523   6.792  16.397  0.00  0.00    +0.000 C 
ENDBRANCH   1  10
BRANCH   1  12
ATOM     12  C   UNL     1       2.470   7.070  18.996  0.00  0.00    +0.000 C 
ATOM     13  O   UNL     1       2.278   8.238  18.691  0.00  0.00    +0.000 OA
BRANCH  12  14
ATOM     14  C   UNL     1       1.826   6.372  20.168  0.00  0.00    +0.000 C 
BRANCH  14  15
ATOM     15  C   UNL     1       2.574   5.090  20.522  0.00  0.00    +0.000 C 
BRANCH  15  16
ATOM     16  N   UNL     1       1.721   3.962  20.948  0.00  0.00    +0.000 NA
ATOM     17  C   UNL     1       0.713   3.563  19.938  0.00  0.00    +0.000 C 
ATOM     18  C   UNL     1       1.309   2.994  18.632  0.00  0.00    +0.000 C 
ATOM     19  N   UNL     1       2.222   1.864  18.855  0.00  0.00    +0.000 NA
ATOM     20  C   UNL     1       3.196   2.150  19.919  0.00  0.00    +0.000 C 
ATOM     21  C   UNL     1       2.567   2.767  21.196  0.00  0.00    +0.000 C 
ATOM     22  H   UNL     1       2.717   1.652  17.990  0.00  0.00    +0.000 HD
ENDBRANCH  15  16
ENDBRANCH  14  15
ENDBRANCH  12  14
ENDBRANCH   1  12
TORSDOF 5
ENDMDL
MODEL 2
REMARK VINA RESULT:      -6.7      2.382      5.376
REMARK  Name = 
REMARK  8 active torsions:
REMARK  status: ('A' for Active; 'I' for Inactive)
REMARK    1  A    between atoms: C_1  and  C_2
REMARK    2  A    between atoms: C_2  and  C_3
REMARK    3  A    between atoms: C_7  and  C_8
REMARK    4  A    between atoms: C_9  and  O_10
REMARK    5  A    between atoms: O_10  and  C_11
REMARK    6  A    between atoms: C_11  and  C_13
REMARK    7  A    between atoms: C_13  and  C_14
REMARK    8  A    between atoms: C_14  and  N_15
REMARK                            x       y       z     vdW  Elec       q    Type
REMARK                         _______ _______ _______ _____ _____    ______ ____
ROOT
ATOM      1  O   UNL     1       2.269   5.369  17.862  0.00  0.00    +0.000 OA
ENDROOT
BRANCH   1  10
ATOM      2  C   UNL     1       2.030   2.022  21.607  0.00  0.00    +0.000 C 
ATOM      3  C   UNL     1       2.675   2.683  20.374  0.00  0.00    +0.000 C 
ATOM      4  C   UNL     1       4.201   2.514  20.551  0.00  0.00    +0.000 C 
ATOM      5  C   UNL     1       2.132   2.155  19.025  0.00  0.00    +0.000 C 
ATOM      6  C   UNL     1       0.645   2.585  19.034  0.00  0.00    +0.000 C 
ATOM      7  C   UNL     1       0.680   3.936  19.767  0.00  0.00    +0.000 C 
ATOM      8  C   UNL     1       2.193   4.134  20.050  0.00  0.00    +0.000 C 
ATOM      9  C   UNL     1       2.455   5.198  21.099  0.00  0.00    +0.000 C 
ATOM     10  C   UNL     1       2.917   4.411  18.698  0.00  0.00    +0.000 C 
ATOM     11  C   UNL     1       2.834   3.047  17.981  0.00  0.00    +0.000 C 
ENDBRANCH   1  10
BRANCH   1  12
ATOM     12  C   UNL     1       2.822   6.613  17.855  0.00  0.00    +0.000 C 
ATOM     13  O   UNL     1       2.209   7.656  18.033  0.00  0.00    +0.000 OA
BRANCH  12  14
ATOM     14  C   UNL     1       4.325   6.495  17.839  0.00  0.00    +0.000 C 
BRANCH  14  15
ATOM     15  C   UNL     1       4.827   6.071  16.461  0.00  0.00    +0.000 C 
BRANCH  15  16
ATOM     16  N   UNL     1       6.205   6.491  16.138  0.00  0.00    +0.000 NA
ATOM     17  C   UNL     1       7.089   6.600  17.322  0.00  0.00    +0.000 C 
ATOM     18  C   UNL     1       7.360   5.260  18.041  0.00  0.00    +0.000 C 
ATOM     19  N   UNL     1       7.896   4.222  17.150  0.00  0.00    +0.000 NA
ATOM     20  C   UNL     1       7.125   4.121  15.902  0.00  0.00    +0.000 C 
ATOM     21  C   UNL     1       6.829   5.490  15.235  0.00  0.00    +0.000 C 
ATOM     22  H   UNL     1       7.883   3.323  17.630  0.00  0.00    +0.000 HD
ENDBRANCH  15  16
ENDBRANCH  14  15
ENDBRANCH  12  14
ENDBRANCH   1  12
TORSDOF 5
ENDMDL
MODEL 3
REMARK VINA RESULT:      -6.7      5.053      7.730
REMARK  Name = 
REMARK  8 active torsions:
REMARK  status: ('A' for Active; 'I' for Inactive)
REMARK    1  A    between atoms: C_1  and  C_2
REMARK    2  A    between atoms: C_2  and  C_3
REMARK    3  A    between atoms: C_7  and  C_8
REMARK    4  A    between atoms: C_9  and  O_10
REMARK    5  A    between atoms: O_10  and  C_11
REMARK    6  A    between atoms: C_11  and  C_13
REMARK    7  A    between atoms: C_13  and  C_14
REMARK    8  A    between atoms: C_14  and  N_15
REMARK                            x       y       z     vdW  Elec       q    Type
REMARK                         _______ _______ _______ _____ _____    ______ ____
ROOT
ATOM      1  O   UNL     1       7.167   7.329  17.218  0.00  0.00    +0.000 OA
ENDROOT
BRANCH   1  10
ATOM      2  C   UNL     1       3.588   3.854  16.586  0.00  0.00    +0.000 C 
ATOM      3  C   UNL     1       4.859   4.438  17.232  0.00  0.00    +0.000 C 
ATOM      4  C   UNL     1       4.884   3.900  18.681  0.00  0.00    +0.000 C 
ATOM      5  C   UNL     1       6.154   4.158  16.431  0.00  0.00    +0.000 C 
ATOM      6  C   UNL     1       5.936   4.925  15.104  0.00  0.00    +0.000 C 
ATOM      7  C   UNL     1       5.149   6.169  15.548  0.00  0.00    +0.000 C 
ATOM      8  C   UNL     1       5.049   5.981  17.085  0.00  0.00    +0.000 C 
ATOM      9  C   UNL     1       3.991   6.869  17.712  0.00  0.00    +0.000 C 
ATOM     10  C   UNL     1       6.466   6.184  17.701  0.00  0.00    +0.000 C 
ATOM     11  C   UNL     1       7.233   4.937  17.210  0.00  0.00    +0.000 C 
ENDBRANCH   1  10
BRANCH   1  12
ATOM     12  C   UNL     1       7.997   7.932  18.113  0.00  0.00    +0.000 C 
ATOM     13  O   UNL     1       8.650   7.353  18.969  0.00  0.00    +0.000 OA
BRANCH  12  14
ATOM     14  C   UNL     1       8.173   9.382  17.736  0.00  0.00    +0.000 C 
BRANCH  14  15
ATOM     15  C   UNL     1       9.012  10.121  18.774  0.00  0.00    +0.000 C 
BRANCH  15  16
ATOM     16  N   UNL     1       9.232  11.556  18.499  0.00  0.00    +0.000 NA
ATOM     17  C   UNL     1       9.274  12.397  19.719  0.00  0.00    +0.000 C 
ATOM     18  C   UNL     1      10.465  12.100  20.657  0.00  0.00    +0.000 C 
ATOM     19  N   UNL     1      11.768  12.183  19.984  0.00  0.00    +0.000 NA
ATOM     20  C   UNL     1      11.774  11.450  18.710  0.00  0.00    +0.000 C 
ATOM     21  C   UNL     1      10.538  11.735  17.816  0.00  0.00    +0.000 C 
ATOM     22  H   UNL     1      12.491  11.805  20.595  0.00  0.00    +0.000 HD
ENDBRANCH  15  16
ENDBRANCH  14  15
ENDBRANCH  12  14
ENDBRANCH   1  12
TORSDOF 5
ENDMDL
MODEL 4
REMARK VINA RESULT:      -6.7      2.904      5.867
REMARK  Name = 
REMARK  8 active torsions:
REMARK  status: ('A' for Active; 'I' for Inactive)
REMARK    1  A    between atoms: C_1  and  C_2
REMARK    2  A    between atoms: C_2  and  C_3
REMARK    3  A    between atoms: C_7  and  C_8
REMARK    4  A    between atoms: C_9  and  O_10
REMARK    5  A    between atoms: O_10  and  C_11
REMARK    6  A    between atoms: C_11  and  C_13
REMARK    7  A    between atoms: C_13  and  C_14
REMARK    8  A    between atoms: C_14  and  N_15
REMARK                            x       y       z     vdW  Elec       q    Type
REMARK                         _______ _______ _______ _____ _____    ______ ____
ROOT
ATOM      1  O   UNL     1       5.649   3.894  18.572  0.00  0.00    +0.000 OA
ENDROOT
BRANCH   1  10
ATOM      2  C   UNL     1       0.715   3.209  19.262  0.00  0.00    +0.000 C 
ATOM      3  C   UNL     1       2.182   3.304  19.723  0.00  0.00    +0.000 C 
ATOM      4  C   UNL     1       2.137   3.829  21.176  0.00  0.00    +0.000 C 
ATOM      5  C   UNL     1       2.980   1.989  19.549  0.00  0.00    +0.000 C 
ATOM      6  C   UNL     1       3.008   1.777  18.016  0.00  0.00    +0.000 C 
ATOM      7  C   UNL     1       3.094   3.212  17.469  0.00  0.00    +0.000 C 
ATOM      8  C   UNL     1       3.148   4.069  18.762  0.00  0.00    +0.000 C 
ATOM      9  C   UNL     1       2.847   5.533  18.503  0.00  0.00    +0.000 C 
ATOM     10  C   UNL     1       4.527   3.837  19.451  0.00  0.00    +0.000 C 
ATOM     11  C   UNL     1       4.414   2.383  19.958  0.00  0.00    +0.000 C 
ENDBRANCH   1  10
BRANCH   1  12
ATOM     12  C   UNL     1       6.530   4.904  18.808  0.00  0.00    +0.000 C 
ATOM     13  O   UNL     1       6.482   5.673  19.757  0.00  0.00    +0.000 OA
BRANCH  12  14
ATOM     14  C   UNL     1       7.701   4.779  17.865  0.00  0.00    +0.000 C 
BRANCH  14  15
ATOM     15  C   UNL     1       7.243   4.332  16.479  0.00  0.00    +0.000 C 
BRANCH  15  16
ATOM     16  N   UNL     1       6.986   5.425  15.519  0.00  0.00    +0.000 NA
ATOM     17  C   UNL     1       7.504   5.156  14.157  0.00  0.00    +0.000 C 
ATOM     18  C   UNL     1       6.819   3.975  13.436  0.00  0.00    +0.000 C 
ATOM     19  N   UNL     1       5.357   4.109  13.364  0.00  0.00    +0.000 NA
ATOM     20  C   UNL     1       4.777   4.473  14.664  0.00  0.00    +0.000 C 
ATOM     21  C   UNL     1       5.522   5.630  15.382  0.00  0.00    +0.000 C 
ATOM     22  H   UNL     1       4.951   3.230  13.046  0.00  0.00    +0.000 HD
ENDBRANCH  15  16
ENDBRANCH  14  15
ENDBRANCH  12  14
ENDBRANCH   1  12
TORSDOF 5
ENDMDL
MODEL 5
REMARK VINA RESULT:      -6.6      3.090      5.190
REMARK  Name = 
REMARK  8 active torsions:
REMARK  status: ('A' for Active; 'I' for Inactive)
REMARK    1  A    between atoms: C_1  and  C_2
REMARK    2  A    between atoms: C_2  and  C_3
REMARK    3  A    between atoms: C_7  and  C_8
REMARK    4  A    between atoms: C_9  and  O_10
REMARK    5  A    between atoms: O_10  and  C_11
REMARK    6  A    between atoms: C_11  and  C_13
REMARK    7  A    between atoms: C_13  and  C_14
REMARK    8  A    between atoms: C_14  and  N_15
REMARK                            x       y       z     vdW  Elec       q    Type
REMARK                         _______ _______ _______ _____ _____    ______ ____
ROOT
ATOM      1  O   UNL     1       3.189   6.739  18.115  0.00  0.00    +0.000 OA
ENDROOT
BRANCH   1  10
ATOM      2  C   UNL     1       3.562   1.739  18.485  0.00  0.00    +0.000 C 
ATOM      3  C   UNL     1       3.558   3.176  19.039  0.00  0.00    +0.000 C 
ATOM      4  C   UNL     1       3.031   3.071  20.489  0.00  0.00    +0.000 C 
ATOM      5  C   UNL     1       4.921   3.899  18.912  0.00  0.00    +0.000 C 
ATOM      6  C   UNL     1       5.135   4.011  17.383  0.00  0.00    +0.000 C 
ATOM      7  C   UNL     1       3.709   4.222  16.849  0.00  0.00    +0.000 C 
ATOM      8  C   UNL     1       2.856   4.248  18.145  0.00  0.00    +0.000 C 
ATOM      9  C   UNL     1       1.376   4.056  17.872  0.00  0.00    +0.000 C 
ATOM     10  C   UNL     1       3.174   5.562  18.920  0.00  0.00    +0.000 C 
ATOM     11  C   UNL     1       4.618   5.326  19.413  0.00  0.00    +0.000 C 
ENDBRANCH   1  10
BRANCH   1  12
ATOM     12  C   UNL     1       2.437   7.776  18.575  0.00  0.00    +0.000 C 
ATOM     13  O   UNL     1       2.048   8.719  17.900  0.00  0.00    +0.000 OA
BRANCH  12  14
ATOM     14  C   UNL     1       1.956   7.466  19.971  0.00  0.00    +0.000 C 
BRANCH  14  15
ATOM     15  C   UNL     1       1.491   8.733  20.685  0.00  0.00    +0.000 C 
BRANCH  15  16
ATOM     16  N   UNL     1       0.027   8.912  20.758  0.00  0.00    +0.000 NA
ATOM     17  C   UNL     1      -0.545   8.612  22.091  0.00  0.00    +0.000 C 
ATOM     18  C   UNL     1      -0.084   9.569  23.213  0.00  0.00    +0.000 C 
ATOM     19  N   UNL     1      -0.329  10.984  22.904  0.00  0.00    +0.000 NA
ATOM     20  C   UNL     1       0.125  11.336  21.551  0.00  0.00    +0.000 C 
ATOM     21  C   UNL     1      -0.315  10.326  20.459  0.00  0.00    +0.000 C 
ATOM     22  H   UNL     1       0.152  11.569  23.586  0.00  0.00    +0.000 HD
ENDBRANCH  15  16
ENDBRANCH  14  15
ENDBRANCH  12  14
ENDBRANCH   1  12
TORSDOF 5
ENDMDL
MODEL 6
REMARK VINA RESULT:      -6.6      2.362      5.354
REMARK  Name = 
REMARK  8 active torsions:
REMARK  status: ('A' for Active; 'I' for Inactive)
REMARK    1  A    between atoms: C_1  and  C_2
REMARK    2  A    between atoms: C_2  and  C_3
REMARK    3  A    between atoms: C_7  and  C_8
REMARK    4  A    between atoms: C_9  and  O_10
REMARK    5  A    between atoms: O_10  and  C_11
REMARK    6  A    between atoms: C_11  and  C_13
REMARK    7  A    between atoms: C_13  and  C_14
REMARK    8  A    between atoms: C_14  and  N_15
REMARK                            x       y       z     vdW  Elec       q    Type
REMARK                         _______ _______ _______ _____ _____    ______ ____
ROOT
ATOM      1  O   UNL     1       3.811   5.953  18.634  0.00  0.00    +0.000 OA
ENDROOT
BRANCH   1  10
ATOM      2  C   UNL     1       1.396   1.563  19.056  0.00  0.00    +0.000 C 
ATOM      3  C   UNL     1       1.839   2.957  19.540  0.00  0.00    +0.000 C 
ATOM      4  C   UNL     1       0.697   3.476  20.443  0.00  0.00    +0.000 C 
ATOM      5  C   UNL     1       3.234   2.973  20.211  0.00  0.00    +0.000 C 
ATOM      6  C   UNL     1       4.196   2.573  19.066  0.00  0.00    +0.000 C 
ATOM      7  C   UNL     1       3.549   3.217  17.829  0.00  0.00    +0.000 C 
ATOM      8  C   UNL     1       2.315   3.944  18.426  0.00  0.00    +0.000 C 
ATOM      9  C   UNL     1       1.299   4.332  17.368  0.00  0.00    +0.000 C 
ATOM     10  C   UNL     1       2.816   5.154  19.271  0.00  0.00    +0.000 C 
ATOM     11  C   UNL     1       3.484   4.471  20.483  0.00  0.00    +0.000 C 
ENDBRANCH   1  10
BRANCH   1  12
ATOM     12  C   UNL     1       3.373   7.128  18.104  0.00  0.00    +0.000 C 
ATOM     13  O   UNL     1       2.484   7.824  18.574  0.00  0.00    +0.000 OA
BRANCH  12  14
ATOM     14  C   UNL     1       4.304   7.559  16.999  0.00  0.00    +0.000 C 
BRANCH  14  15
ATOM     15  C   UNL     1       5.030   6.360  16.395  0.00  0.00    +0.000 C 
BRANCH  15  16
ATOM     16  N   UNL     1       6.467   6.567  16.123  0.00  0.00    +0.000 NA
ATOM     17  C   UNL     1       7.269   6.846  17.338  0.00  0.00    +0.000 C 
ATOM     18  C   UNL     1       7.333   5.675  18.343  0.00  0.00    +0.000 C 
ATOM     19  N   UNL     1       7.810   4.422  17.744  0.00  0.00    +0.000 NA
ATOM     20  C   UNL     1       7.126   4.126  16.476  0.00  0.00    +0.000 C 
ATOM     21  C   UNL     1       7.037   5.339  15.513  0.00  0.00    +0.000 C 
ATOM     22  H   UNL     1       7.660   3.654  18.397  0.00  0.00    +0.000 HD
ENDBRANCH  15  16
ENDBRANCH  14  15
ENDBRANCH  12  14
ENDBRANCH   1  12
TORSDOF 5
ENDMDL
MODEL 7
REMARK VINA RESULT:      -6.5      6.052      8.187
REMARK  Name = 
REMARK  8 active torsions:
REMARK  status: ('A' for Active; 'I' for Inactive)
REMARK    1  A    between atoms: C_1  and  C_2
REMARK    2  A    between atoms: C_2  and  C_3
REMARK    3  A    between atoms: C_7  and  C_8
REMARK    4  A    between atoms: C_9  and  O_10
REMARK    5  A    between atoms: O_10  and  C_11
REMARK    6  A    between atoms: C_11  and  C_13
REMARK    7  A    between atoms: C_13  and  C_14
REMARK    8  A    between atoms: C_14  and  N_15
REMARK                            x       y       z     vdW  Elec       q    Type
REMARK                         _______ _______ _______ _____ _____    ______ ____
ROOT
ATOM      1  O   UNL     1       9.472  10.852  17.873  0.00  0.00    +0.000 OA
ENDROOT
BRANCH   1  10
ATOM      2  C   UNL     1      12.092  14.890  19.327  0.00  0.00    +0.000 C 
ATOM      3  C   UNL     1      10.814  14.041  19.182  0.00  0.00    +0.000 C 
ATOM      4  C   UNL     1       9.936  14.384  20.407  0.00  0.00    +0.000 C 
ATOM      5  C   UNL     1      10.098  14.215  17.821  0.00  0.00    +0.000 C 
ATOM      6  C   UNL     1      11.118  13.662  16.797  0.00  0.00    +0.000 C 
ATOM      7  C   UNL     1      11.788  12.510  17.563  0.00  0.00    +0.000 C 
ATOM      8  C   UNL     1      11.037  12.517  18.921  0.00  0.00    +0.000 C 
ATOM      9  C   UNL     1      11.767  11.733  19.995  0.00  0.00    +0.000 C 
ATOM     10  C   UNL     1       9.579  12.023  18.682  0.00  0.00    +0.000 C 
ATOM     11  C   UNL     1       8.950  13.187  17.887  0.00  0.00    +0.000 C 
ENDBRANCH   1  10
BRANCH   1  12
ATOM     12  C   UNL     1       8.927   9.764  18.482  0.00  0.00    +0.000 C 
ATOM     13  O   UNL     1       9.087   9.461  19.656  0.00  0.00    +0.000 OA
BRANCH  12  14
ATOM     14  C   UNL     1       7.912   9.131  17.564  0.00  0.00    +0.000 C 
BRANCH  14  15
ATOM     15  C   UNL     1       7.752   7.643  17.865  0.00  0.00    +0.000 C 
BRANCH  15  16
ATOM     16  N   UNL     1       6.762   6.935  17.028  0.00  0.00    +0.000 NA
ATOM     17  C   UNL     1       7.274   5.679  16.433  0.00  0.00    +0.000 C 
ATOM     18  C   UNL     1       7.617   4.579  17.462  0.00  0.00    +0.000 C 
ATOM     19  N   UNL     1       6.498   4.252  18.357  0.00  0.00    +0.000 NA
ATOM     20  C   UNL     1       5.871   5.461  18.912  0.00  0.00    +0.000 C 
ATOM     21  C   UNL     1       5.588   6.563  17.858  0.00  0.00    +0.000 C 
ATOM     22  H   UNL     1       6.832   3.663  19.118  0.00  0.00    +0.000 HD
ENDBRANCH  15  16
ENDBRANCH  14  15
ENDBRANCH  12  14
ENDBRANCH   1  12
TORSDOF 5
ENDMDL
MODEL 8
REMARK VINA RESULT:      -6.5      2.754      5.798
REMARK  Name = 
REMARK  8 active torsions:
REMARK  status: ('A' for Active; 'I' for Inactive)
REMARK    1  A    between atoms: C_1  and  C_2
REMARK    2  A    between atoms: C_2  and  C_3
REMARK    3  A    between atoms: C_7  and  C_8
REMARK    4  A    between atoms: C_9  and  O_10
REMARK    5  A    between atoms: O_10  and  C_11
REMARK    6  A    between atoms: C_11  and  C_13
REMARK    7  A    between atoms: C_13  and  C_14
REMARK    8  A    between atoms: C_14  and  N_15
REMARK                            x       y       z     vdW  Elec       q    Type
REMARK                         _______ _______ _______ _____ _____    ______ ____
ROOT
ATOM      1  O   UNL     1       5.209   4.216  19.867  0.00  0.00    +0.000 OA
ENDROOT
BRANCH   1  10
ATOM      2  C   UNL     1       0.474   2.633  19.268  0.00  0.00    +0.000 C 
ATOM      3  C   UNL     1       1.652   3.604  19.057  0.00  0.00    +0.000 C 
ATOM      4  C   UNL     1       1.432   4.241  17.666  0.00  0.00    +0.000 C 
ATOM      5  C   UNL     1       1.830   4.630  20.202  0.00  0.00    +0.000 C 
ATOM      6  C   UNL     1       2.190   3.753  21.426  0.00  0.00    +0.000 C 
ATOM      7  C   UNL     1       3.024   2.619  20.808  0.00  0.00    +0.000 C 
ATOM      8  C   UNL     1       3.075   3.011  19.307  0.00  0.00    +0.000 C 
ATOM      9  C   UNL     1       3.508   1.859  18.419  0.00  0.00    +0.000 C 
ATOM     10  C   UNL     1       3.974   4.275  19.156  0.00  0.00    +0.000 C 
ATOM     11  C   UNL     1       3.120   5.381  19.814  0.00  0.00    +0.000 C 
ENDBRANCH   1  10
BRANCH   1  12
ATOM     12  C   UNL     1       6.277   4.780  19.239  0.00  0.00    +0.000 C 
ATOM     13  O   UNL     1       7.190   5.372  19.797  0.00  0.00    +0.000 OA
BRANCH  12  14
ATOM     14  C   UNL     1       6.289   4.357  17.791  0.00  0.00    +0.000 C 
BRANCH  14  15
ATOM     15  C   UNL     1       7.457   4.992  17.043  0.00  0.00    +0.000 C 
BRANCH  15  16
ATOM     16  N   UNL     1       7.079   5.880  15.924  0.00  0.00    +0.000 NA
ATOM     17  C   UNL     1       7.467   5.358  14.593  0.00  0.00    +0.000 C 
ATOM     18  C   UNL     1       6.744   4.057  14.182  0.00  0.00    +0.000 C 
ATOM     19  N   UNL     1       5.279   4.165  14.235  0.00  0.00    +0.000 NA
ATOM     20  C   UNL     1       4.821   4.769  15.495  0.00  0.00    +0.000 C 
ATOM     21  C   UNL     1       5.604   6.046  15.901  0.00  0.00    +0.000 C 
ATOM     22  H   UNL     1       4.866   3.240  14.133  0.00  0.00    +0.000 HD
ENDBRANCH  15  16
ENDBRANCH  14  15
ENDBRANCH  12  14
ENDBRANCH   1  12
TORSDOF 5
ENDMDL
MODEL 9
REMARK VINA RESULT:      -6.4      2.609      5.594
REMARK  Name = 
REMARK  8 active torsions:
REMARK  status: ('A' for Active; 'I' for Inactive)
REMARK    1  A    between atoms: C_1  and  C_2
REMARK    2  A    between atoms: C_2  and  C_3
REMARK    3  A    between atoms: C_7  and  C_8
REMARK    4  A    between atoms: C_9  and  O_10
REMARK    5  A    between atoms: O_10  and  C_11
REMARK    6  A    between atoms: C_11  and  C_13
REMARK    7  A    between atoms: C_13  and  C_14
REMARK    8  A    between atoms: C_14  and  N_15
REMARK                            x       y       z     vdW  Elec       q    Type
REMARK                         _______ _______ _______ _____ _____    ______ ____
ROOT
ATOM      1  O   UNL     1       5.266   4.418  18.705  0.00  0.00    +0.000 OA
ENDROOT
BRANCH   1  10
ATOM      2  C   UNL     1       0.517   3.150  19.764  0.00  0.00    +0.000 C 
ATOM      3  C   UNL     1       2.039   3.163  20.006  0.00  0.00    +0.000 C 
ATOM      4  C   UNL     1       2.226   3.059  21.537  0.00  0.00    +0.000 C 
ATOM      5  C   UNL     1       2.810   2.089  19.200  0.00  0.00    +0.000 C 
ATOM      6  C   UNL     1       2.590   2.510  17.727  0.00  0.00    +0.000 C 
ATOM      7  C   UNL     1       2.573   4.045  17.803  0.00  0.00    +0.000 C 
ATOM      8  C   UNL     1       2.829   4.317  19.310  0.00  0.00    +0.000 C 
ATOM      9  C   UNL     1       2.476   5.735  19.714  0.00  0.00    +0.000 C 
ATOM     10  C   UNL     1       4.303   3.932  19.638  0.00  0.00    +0.000 C 
ATOM     11  C   UNL     1       4.288   2.393  19.521  0.00  0.00    +0.000 C 
ENDBRANCH   1  10
BRANCH   1  12
ATOM     12  C   UNL     1       6.190   5.281  19.209  0.00  0.00    +0.000 C 
ATOM     13  O   UNL     1       6.968   5.028  20.118  0.00  0.00    +0.000 OA
BRANCH  12  14
ATOM     14  C   UNL     1       6.275   6.499  18.324  0.00  0.00    +0.000 C 
BRANCH  14  15
ATOM     15  C   UNL     1       5.389   6.344  17.091  0.00  0.00    +0.000 C 
BRANCH  15  16
ATOM     16  N   UNL     1       6.098   6.397  15.796  0.00  0.00    +0.000 NA
ATOM     17  C   UNL     1       7.367   5.634  15.780  0.00  0.00    +0.000 C 
ATOM     18  C   UNL     1       7.196   4.108  15.949  0.00  0.00    +0.000 C 
ATOM     19  N   UNL     1       6.279   3.515  14.966  0.00  0.00    +0.000 NA
ATOM     20  C   UNL     1       5.028   4.280  14.853  0.00  0.00    +0.000 C 
ATOM     21  C   UNL     1       5.238   5.813  14.736  0.00  0.00    +0.000 C 
ATOM     22  H   UNL     1       6.066   2.555  15.235  0.00  0.00    +0.000 HD
ENDBRANCH  15  16
ENDBRANCH  14  15
ENDBRANCH  12  14
ENDBRANCH   1  12
TORSDOF 5
ENDMDL
