MODEL 1
REMARK VINA RESULT:      -7.1      0.000      0.000
REMARK  Name = 
REMARK  4 active torsions:
REMARK  status: ('A' for Active; 'I' for Inactive)
REMARK    1  A    between atoms: C_1  and  N_2
REMARK    2  A    between atoms: N_6  and  C_7
REMARK    3  A    between atoms: C_10  and  S_11
REMARK    4  A    between atoms: S_11  and  N_12
REMARK                            x       y       z     vdW  Elec       q    Type
REMARK                         _______ _______ _______ _____ _____    ______ ____
ROOT
ATOM      1  C   UNL     1       2.479   5.009  20.777  0.00  0.00    +0.000 C 
ATOM      2  N   UNL     1       2.755   5.912  19.692  0.00  0.00    +0.000 N 
ATOM      3  C   UNL     1       2.196   7.175  19.571  0.00  0.00    +0.000 C 
ATOM      4  O   UNL     1       1.465   7.735  20.359  0.00  0.00    +0.000 OA
ATOM      5  C   UNL     1       2.707   7.718  18.213  0.00  0.00    +0.000 C 
ATOM      6  N   UNL     1       2.398   8.780  17.532  0.00  0.00    +0.000 NA
ATOM      7  C   UNL     1       3.661   6.717  17.737  0.00  0.00    +0.000 A 
ATOM      8  C   UNL     1       4.459   6.727  16.611  0.00  0.00    +0.000 A 
ATOM      9  C   UNL     1       5.266   5.613  16.414  0.00  0.00    +0.000 A 
ATOM     10  F   UNL     1       6.071   5.569  15.346  0.00  0.00    +0.000 F 
ATOM     11  C   UNL     1       5.263   4.529  17.309  0.00  0.00    +0.000 A 
ATOM     12  C   UNL     1       4.438   4.538  18.441  0.00  0.00    +0.000 A 
ATOM     13  C   UNL     1       3.641   5.652  18.639  0.00  0.00    +0.000 A 
ENDROOT
BRANCH   6  14
ATOM     14  C   UNL     1       1.455   9.710  17.990  0.00  0.00    +0.000 A 
ATOM     15  C   UNL     1       1.911  10.875  18.620  0.00  0.00    +0.000 A 
ATOM     16  C   UNL     1       1.010  11.805  19.153  0.00  0.00    +0.000 A 
ATOM     17  C   UNL     1      -0.361  11.556  19.057  0.00  0.00    +0.000 A 
ATOM     18  C   UNL     1      -0.831  10.437  18.374  0.00  0.00    +0.000 A 
ATOM     19  C   UNL     1       0.080   9.555  17.794  0.00  0.00    +0.000 A 
BRANCH  17  20
ATOM     20  S   UNL     1      -1.527  12.626  19.851  0.00  0.00    +0.000 S 
ATOM     21  O   UNL     1      -1.843  12.084  21.155  0.00  0.00    +0.000 OA
ATOM     22  O   UNL     1      -1.102  13.992  19.658  0.00  0.00    +0.000 OA
BRANCH  20  23
ATOM     23  N   UNL     1      -2.875  12.392  18.891  0.00  0.00    +0.000 NA
ATOM     24  H   UNL     1      -3.656  12.998  19.118  0.00  0.00    +0.000 HD
ATOM     25  H   UNL     1      -3.061  11.420  18.655  0.00  0.00    +0.000 HD
ENDBRANCH  20  23
ENDBRANCH  17  20
ENDBRANCH   6  14
TORSDOF 3
ENDMDL
MODEL 2
REMARK VINA RESULT:      -6.9      0.627      1.184
REMARK  Name = 
REMARK  4 active torsions:
REMARK  status: ('A' for Active; 'I' for Inactive)
REMARK    1  A    between atoms: C_1  and  N_2
REMARK    2  A    between atoms: N_6  and  C_7
REMARK    3  A    between atoms: C_10  and  S_11
REMARK    4  A    between atoms: S_11  and  N_12
REMARK                            x       y       z     vdW  Elec       q    Type
REMARK                         _______ _______ _______ _____ _____    ______ ____
ROOT
ATOM      1  C   UNL     1       2.853   4.579  20.351  0.00  0.00    +0.000 C 
ATOM      2  N   UNL     1       3.121   5.547  19.322  0.00  0.00    +0.000 N 
ATOM      3  C   UNL     1       2.551   6.810  19.275  0.00  0.00    +0.000 C 
ATOM      4  O   UNL     1       1.813   7.316  20.092  0.00  0.00    +0.000 OA
ATOM      5  C   UNL     1       3.058   7.437  17.951  0.00  0.00    +0.000 C 
ATOM      6  N   UNL     1       2.740   8.533  17.334  0.00  0.00    +0.000 NA
ATOM      7  C   UNL     1       4.023   6.474  17.419  0.00  0.00    +0.000 A 
ATOM      8  C   UNL     1       4.822   6.558  16.297  0.00  0.00    +0.000 A 
ATOM      9  C   UNL     1       5.640   5.465  16.037  0.00  0.00    +0.000 A 
ATOM     10  F   UNL     1       6.447   5.491  14.969  0.00  0.00    +0.000 F 
ATOM     11  C   UNL     1       5.646   4.330  16.868  0.00  0.00    +0.000 A 
ATOM     12  C   UNL     1       4.819   4.265  17.996  0.00  0.00    +0.000 A 
ATOM     13  C   UNL     1       4.012   5.357  18.257  0.00  0.00    +0.000 A 
ENDROOT
BRANCH   6  14
ATOM     14  C   UNL     1       1.787   9.426  17.843  0.00  0.00    +0.000 A 
ATOM     15  C   UNL     1       0.429   9.110  17.702  0.00  0.00    +0.000 A 
ATOM     16  C   UNL     1      -0.564   9.997  18.135  0.00  0.00    +0.000 A 
ATOM     17  C   UNL     1      -0.187  11.215  18.707  0.00  0.00    +0.000 A 
ATOM     18  C   UNL     1       1.157  11.512  18.915  0.00  0.00    +0.000 A 
ATOM     19  C   UNL     1       2.130  10.589  18.536  0.00  0.00    +0.000 A 
BRANCH  17  20
ATOM     20  S   UNL     1      -1.407  12.429  19.124  0.00  0.00    +0.000 S 
ATOM     21  O   UNL     1      -2.103  11.997  20.317  0.00  0.00    +0.000 OA
ATOM     22  O   UNL     1      -0.812  13.738  19.001  0.00  0.00    +0.000 OA
BRANCH  20  23
ATOM     23  N   UNL     1      -2.475  12.253  17.851  0.00  0.00    +0.000 NA
ATOM     24  H   UNL     1      -2.981  13.100  17.614  0.00  0.00    +0.000 HD
ATOM     25  H   UNL     1      -2.970  11.365  17.835  0.00  0.00    +0.000 HD
ENDBRANCH  20  23
ENDBRANCH  17  20
ENDBRANCH   6  14
TORSDOF 3
ENDMDL
MODEL 3
REMARK VINA RESULT:      -6.7      0.568      1.137
REMARK  Name = 
REMARK  4 active torsions:
REMARK  status: ('A' for Active; 'I' for Inactive)
REMARK    1  A    between atoms: C_1  and  N_2
REMARK    2  A    between atoms: N_6  and  C_7
REMARK    3  A    between atoms: C_10  and  S_11
REMARK    4  A    between atoms: S_11  and  N_12
REMARK                            x       y       z     vdW  Elec       q    Type
REMARK                         _______ _______ _______ _____ _____    ______ ____
ROOT
ATOM      1  C   UNL     1       2.266   4.847  20.888  0.00  0.00    +0.000 C 
ATOM      2  N   UNL     1       2.510   5.858  19.894  0.00  0.00    +0.000 N 
ATOM      3  C   UNL     1       1.938   7.121  19.914  0.00  0.00    +0.000 C 
ATOM      4  O   UNL     1       1.220   7.591  20.769  0.00  0.00    +0.000 OA
ATOM      5  C   UNL     1       2.413   7.804  18.607  0.00  0.00    +0.000 C 
ATOM      6  N   UNL     1       2.081   8.925  18.044  0.00  0.00    +0.000 NA
ATOM      7  C   UNL     1       3.365   6.865  18.011  0.00  0.00    +0.000 A 
ATOM      8  C   UNL     1       4.137   6.997  16.875  0.00  0.00    +0.000 A 
ATOM      9  C   UNL     1       4.949   5.918  16.550  0.00  0.00    +0.000 A 
ATOM     10  F   UNL     1       5.730   5.990  15.465  0.00  0.00    +0.000 F 
ATOM     11  C   UNL     1       4.975   4.749  17.331  0.00  0.00    +0.000 A 
ATOM     12  C   UNL     1       4.176   4.635  18.475  0.00  0.00    +0.000 A 
ATOM     13  C   UNL     1       3.374   5.714  18.801  0.00  0.00    +0.000 A 
ENDROOT
BRANCH   6  14
ATOM     14  C   UNL     1       1.140   9.794  18.613  0.00  0.00    +0.000 A 
ATOM     15  C   UNL     1      -0.195   9.706  18.196  0.00  0.00    +0.000 A 
ATOM     16  C   UNL     1      -1.162  10.593  18.684  0.00  0.00    +0.000 A 
ATOM     17  C   UNL     1      -0.780  11.582  19.594  0.00  0.00    +0.000 A 
ATOM     18  C   UNL     1       0.527  11.638  20.070  0.00  0.00    +0.000 A 
ATOM     19  C   UNL     1       1.462  10.706  19.620  0.00  0.00    +0.000 A 
BRANCH  17  20
ATOM     20  S   UNL     1      -1.936  12.817  20.117  0.00  0.00    +0.000 S 
ATOM     21  O   UNL     1      -2.421  12.472  21.435  0.00  0.00    +0.000 OA
ATOM     22  O   UNL     1      -1.391  14.116  19.804  0.00  0.00    +0.000 OA
BRANCH  20  23
ATOM     23  N   UNL     1      -3.193  12.543  19.051  0.00  0.00    +0.000 NA
ATOM     24  H   UNL     1      -3.452  11.566  18.957  0.00  0.00    +0.000 HD
ATOM     25  H   UNL     1      -3.176  13.128  18.219  0.00  0.00    +0.000 HD
ENDBRANCH  20  23
ENDBRANCH  17  20
ENDBRANCH   6  14
TORSDOF 3
ENDMDL
MODEL 4
REMARK VINA RESULT:      -6.7      4.177      7.589
REMARK  Name = 
REMARK  4 active torsions:
REMARK  status: ('A' for Active; 'I' for Inactive)
REMARK    1  A    between atoms: C_1  and  N_2
REMARK    2  A    between atoms: N_6  and  C_7
REMARK    3  A    between atoms: C_10  and  S_11
REMARK    4  A    between atoms: S_11  and  N_12
REMARK                            x       y       z     vdW  Elec       q    Type
REMARK                         _______ _______ _______ _____ _____    ______ ____
ROOT
ATOM      1  C   UNL     1       0.041   9.282  22.898  0.00  0.00    +0.000 C 
ATOM      2  N   UNL     1       0.564   9.311  21.558  0.00  0.00    +0.000 N 
ATOM      3  C   UNL     1       1.053   8.198  20.891  0.00  0.00    +0.000 C 
ATOM      4  O   UNL     1       1.061   7.051  21.281  0.00  0.00    +0.000 OA
ATOM      5  C   UNL     1       1.589   8.735  19.540  0.00  0.00    +0.000 C 
ATOM      6  N   UNL     1       2.271   8.170  18.591  0.00  0.00    +0.000 NA
ATOM      7  C   UNL     1       1.208  10.148  19.514  0.00  0.00    +0.000 A 
ATOM      8  C   UNL     1       1.377  11.086  18.517  0.00  0.00    +0.000 A 
ATOM      9  C   UNL     1       0.917  12.369  18.790  0.00  0.00    +0.000 A 
ATOM     10  F   UNL     1       1.042  13.322  17.858  0.00  0.00    +0.000 F 
ATOM     11  C   UNL     1       0.321  12.695  20.021  0.00  0.00    +0.000 A 
ATOM     12  C   UNL     1       0.169  11.727  21.021  0.00  0.00    +0.000 A 
ATOM     13  C   UNL     1       0.620  10.449  20.744  0.00  0.00    +0.000 A 
ENDROOT
BRANCH   6  14
ATOM     14  C   UNL     1       2.656   6.824  18.651  0.00  0.00    +0.000 A 
ATOM     15  C   UNL     1       1.867   5.870  17.995  0.00  0.00    +0.000 A 
ATOM     16  C   UNL     1       2.170   4.505  18.078  0.00  0.00    +0.000 A 
ATOM     17  C   UNL     1       3.274   4.098  18.832  0.00  0.00    +0.000 A 
ATOM     18  C   UNL     1       4.106   5.039  19.432  0.00  0.00    +0.000 A 
ATOM     19  C   UNL     1       3.824   6.397  19.286  0.00  0.00    +0.000 A 
BRANCH  17  20
ATOM     20  S   UNL     1       3.602   2.377  19.089  0.00  0.00    +0.000 S 
ATOM     21  O   UNL     1       4.675   2.246  20.049  0.00  0.00    +0.000 OA
ATOM     22  O   UNL     1       2.342   1.687  19.230  0.00  0.00    +0.000 OA
BRANCH  20  23
ATOM     23  N   UNL     1       4.230   1.951  17.600  0.00  0.00    +0.000 NA
ATOM     24  H   UNL     1       5.165   2.306  17.428  0.00  0.00    +0.000 HD
ATOM     25  H   UNL     1       3.555   1.958  16.839  0.00  0.00    +0.000 HD
ENDBRANCH  20  23
ENDBRANCH  17  20
ENDBRANCH   6  14
TORSDOF 3
ENDMDL
MODEL 5
REMARK VINA RESULT:      -6.7      0.857      1.458
REMARK  Name = 
REMARK  4 active torsions:
REMARK  status: ('A' for Active; 'I' for Inactive)
REMARK    1  A    between atoms: C_1  and  N_2
REMARK    2  A    between atoms: N_6  and  C_7
REMARK    3  A    between atoms: C_10  and  S_11
REMARK    4  A    between atoms: S_11  and  N_12
REMARK                            x       y       z     vdW  Elec       q    Type
REMARK                         _______ _______ _______ _____ _____    ______ ____
ROOT
ATOM      1  C   UNL     1       2.857   4.664  20.463  0.00  0.00    +0.000 C 
ATOM      2  N   UNL     1       3.086   5.623  19.416  0.00  0.00    +0.000 N 
ATOM      3  C   UNL     1       2.516   6.886  19.380  0.00  0.00    +0.000 C 
ATOM      4  O   UNL     1       1.811   7.400  20.222  0.00  0.00    +0.000 OA
ATOM      5  C   UNL     1       2.971   7.501  18.033  0.00  0.00    +0.000 C 
ATOM      6  N   UNL     1       2.631   8.593  17.419  0.00  0.00    +0.000 NA
ATOM      7  C   UNL     1       3.914   6.533  17.472  0.00  0.00    +0.000 A 
ATOM      8  C   UNL     1       4.668   6.607  16.319  0.00  0.00    +0.000 A 
ATOM      9  C   UNL     1       5.475   5.511  16.036  0.00  0.00    +0.000 A 
ATOM     10  F   UNL     1       6.239   5.527  14.937  0.00  0.00    +0.000 F 
ATOM     11  C   UNL     1       5.512   4.383  16.875  0.00  0.00    +0.000 A 
ATOM     12  C   UNL     1       4.730   4.328  18.035  0.00  0.00    +0.000 A 
ATOM     13  C   UNL     1       3.934   5.423  18.319  0.00  0.00    +0.000 A 
ENDROOT
BRANCH   6  14
ATOM     14  C   UNL     1       1.699   9.491  17.958  0.00  0.00    +0.000 A 
ATOM     15  C   UNL     1       0.334   9.235  17.771  0.00  0.00    +0.000 A 
ATOM     16  C   UNL     1      -0.636  10.133  18.232  0.00  0.00    +0.000 A 
ATOM     17  C   UNL     1      -0.228  11.302  18.880  0.00  0.00    +0.000 A 
ATOM     18  C   UNL     1       1.120  11.536  19.133  0.00  0.00    +0.000 A 
ATOM     19  C   UNL     1       2.068  10.600  18.723  0.00  0.00    +0.000 A 
BRANCH  17  20
ATOM     20  S   UNL     1      -1.413  12.535  19.339  0.00  0.00    +0.000 S 
ATOM     21  O   UNL     1      -0.861  13.841  19.051  0.00  0.00    +0.000 OA
ATOM     22  O   UNL     1      -2.713  12.119  18.871  0.00  0.00    +0.000 OA
BRANCH  20  23
ATOM     23  N   UNL     1      -1.413  12.367  21.002  0.00  0.00    +0.000 NA
ATOM     24  H   UNL     1      -2.229  11.887  21.370  0.00  0.00    +0.000 HD
ATOM     25  H   UNL     1      -1.047  13.170  21.508  0.00  0.00    +0.000 HD
ENDBRANCH  20  23
ENDBRANCH  17  20
ENDBRANCH   6  14
TORSDOF 3
ENDMDL
MODEL 6
REMARK VINA RESULT:      -6.7      4.182      7.601
REMARK  Name = 
REMARK  4 active torsions:
REMARK  status: ('A' for Active; 'I' for Inactive)
REMARK    1  A    between atoms: C_1  and  N_2
REMARK    2  A    between atoms: N_6  and  C_7
REMARK    3  A    between atoms: C_10  and  S_11
REMARK    4  A    between atoms: S_11  and  N_12
REMARK                            x       y       z     vdW  Elec       q    Type
REMARK                         _______ _______ _______ _____ _____    ______ ____
ROOT
ATOM      1  C   UNL     1       0.472   9.416  22.899  0.00  0.00    +0.000 C 
ATOM      2  N   UNL     1       0.628   9.551  21.476  0.00  0.00    +0.000 N 
ATOM      3  C   UNL     1       1.163   8.569  20.656  0.00  0.00    +0.000 C 
ATOM      4  O   UNL     1       1.512   7.453  20.975  0.00  0.00    +0.000 OA
ATOM      5  C   UNL     1       1.218   9.203  19.243  0.00  0.00    +0.000 C 
ATOM      6  N   UNL     1       1.749   8.796  18.131  0.00  0.00    +0.000 NA
ATOM      7  C   UNL     1       0.550  10.497  19.380  0.00  0.00    +0.000 A 
ATOM      8  C   UNL     1       0.261  11.444  18.419  0.00  0.00    +0.000 A 
ATOM      9  C   UNL     1      -0.380  12.596  18.858  0.00  0.00    +0.000 A 
ATOM     10  F   UNL     1      -0.697  13.547  17.971  0.00  0.00    +0.000 F 
ATOM     11  C   UNL     1      -0.708  12.791  20.211  0.00  0.00    +0.000 A 
ATOM     12  C   UNL     1      -0.397  11.818  21.170  0.00  0.00    +0.000 A 
ATOM     13  C   UNL     1       0.234  10.669  20.729  0.00  0.00    +0.000 A 
ENDROOT
BRANCH   6  14
ATOM     14  C   UNL     1       2.416   7.567  18.029  0.00  0.00    +0.000 A 
ATOM     15  C   UNL     1       1.658   6.389  18.032  0.00  0.00    +0.000 A 
ATOM     16  C   UNL     1       2.278   5.134  17.999  0.00  0.00    +0.000 A 
ATOM     17  C   UNL     1       3.674   5.065  17.969  0.00  0.00    +0.000 A 
ATOM     18  C   UNL     1       4.437   6.227  17.896  0.00  0.00    +0.000 A 
ATOM     19  C   UNL     1       3.800   7.467  17.866  0.00  0.00    +0.000 A 
BRANCH  17  20
ATOM     20  S   UNL     1       4.499   3.503  18.081  0.00  0.00    +0.000 S 
ATOM     21  O   UNL     1       5.208   3.441  19.340  0.00  0.00    +0.000 OA
ATOM     22  O   UNL     1       3.588   2.471  17.649  0.00  0.00    +0.000 OA
BRANCH  20  23
ATOM     23  N   UNL     1       5.653   3.670  16.884  0.00  0.00    +0.000 NA
ATOM     24  H   UNL     1       5.752   2.856  16.286  0.00  0.00    +0.000 HD
ATOM     25  H   UNL     1       6.491   4.171  17.172  0.00  0.00    +0.000 HD
ENDBRANCH  20  23
ENDBRANCH  17  20
ENDBRANCH   6  14
TORSDOF 3
ENDMDL
MODEL 7
REMARK VINA RESULT:      -6.6      4.253      7.571
REMARK  Name = 
REMARK  4 active torsions:
REMARK  status: ('A' for Active; 'I' for Inactive)
REMARK    1  A    between atoms: C_1  and  N_2
REMARK    2  A    between atoms: N_6  and  C_7
REMARK    3  A    between atoms: C_10  and  S_11
REMARK    4  A    between atoms: S_11  and  N_12
REMARK                            x       y       z     vdW  Elec       q    Type
REMARK                         _______ _______ _______ _____ _____    ______ ____
ROOT
ATOM      1  C   UNL     1       0.502   9.446  22.960  0.00  0.00    +0.000 C 
ATOM      2  N   UNL     1       0.635   9.573  21.534  0.00  0.00    +0.000 N 
ATOM      3  C   UNL     1       1.159   8.588  20.712  0.00  0.00    +0.000 C 
ATOM      4  O   UNL     1       1.516   7.475  21.031  0.00  0.00    +0.000 OA
ATOM      5  C   UNL     1       1.192   9.215  19.295  0.00  0.00    +0.000 C 
ATOM      6  N   UNL     1       1.706   8.803  18.176  0.00  0.00    +0.000 NA
ATOM      7  C   UNL     1       0.523  10.508  19.435  0.00  0.00    +0.000 A 
ATOM      8  C   UNL     1       0.218  11.450  18.474  0.00  0.00    +0.000 A 
ATOM      9  C   UNL     1      -0.419  12.603  18.917  0.00  0.00    +0.000 A 
ATOM     10  F   UNL     1      -0.751  13.549  18.030  0.00  0.00    +0.000 F 
ATOM     11  C   UNL     1      -0.726  12.804  20.274  0.00  0.00    +0.000 A 
ATOM     12  C   UNL     1      -0.398  11.837  21.233  0.00  0.00    +0.000 A 
ATOM     13  C   UNL     1       0.228  10.687  20.788  0.00  0.00    +0.000 A 
ENDROOT
BRANCH   6  14
ATOM     14  C   UNL     1       2.373   7.575  18.070  0.00  0.00    +0.000 A 
ATOM     15  C   UNL     1       3.764   7.580  17.899  0.00  0.00    +0.000 A 
ATOM     16  C   UNL     1       4.472   6.385  17.722  0.00  0.00    +0.000 A 
ATOM     17  C   UNL     1       3.772   5.175  17.712  0.00  0.00    +0.000 A 
ATOM     18  C   UNL     1       2.401   5.149  17.949  0.00  0.00    +0.000 A 
ATOM     19  C   UNL     1       1.723   6.345  18.186  0.00  0.00    +0.000 A 
BRANCH  17  20
ATOM     20  S   UNL     1       4.605   3.658  17.339  0.00  0.00    +0.000 S 
ATOM     21  O   UNL     1       3.705   2.556  17.601  0.00  0.00    +0.000 OA
ATOM     22  O   UNL     1       5.300   3.813  16.084  0.00  0.00    +0.000 OA
BRANCH  20  23
ATOM     23  N   UNL     1       5.765   3.631  18.542  0.00  0.00    +0.000 NA
ATOM     24  H   UNL     1       6.399   4.424  18.524  0.00  0.00    +0.000 HD
ATOM     25  H   UNL     1       6.140   2.708  18.746  0.00  0.00    +0.000 HD
ENDBRANCH  20  23
ENDBRANCH  17  20
ENDBRANCH   6  14
TORSDOF 3
ENDMDL
MODEL 8
REMARK VINA RESULT:      -6.5      2.354      3.350
REMARK  Name = 
REMARK  4 active torsions:
REMARK  status: ('A' for Active; 'I' for Inactive)
REMARK    1  A    between atoms: C_1  and  N_2
REMARK    2  A    between atoms: N_6  and  C_7
REMARK    3  A    between atoms: C_10  and  S_11
REMARK    4  A    between atoms: S_11  and  N_12
REMARK                            x       y       z     vdW  Elec       q    Type
REMARK                         _______ _______ _______ _____ _____    ______ ____
ROOT
ATOM      1  C   UNL     1       4.400   6.677  17.154  0.00  0.00    +0.000 C 
ATOM      2  N   UNL     1       3.457   6.656  18.240  0.00  0.00    +0.000 N 
ATOM      3  C   UNL     1       2.609   7.707  18.553  0.00  0.00    +0.000 C 
ATOM      4  O   UNL     1       2.476   8.750  17.952  0.00  0.00    +0.000 OA
ATOM      5  C   UNL     1       1.867   7.262  19.839  0.00  0.00    +0.000 C 
ATOM      6  N   UNL     1       1.069   7.896  20.643  0.00  0.00    +0.000 NA
ATOM      7  C   UNL     1       2.288   5.878  20.062  0.00  0.00    +0.000 A 
ATOM      8  C   UNL     1       1.882   4.981  21.028  0.00  0.00    +0.000 A 
ATOM      9  C   UNL     1       2.476   3.725  20.994  0.00  0.00    +0.000 A 
ATOM     10  F   UNL     1       2.116   2.806  21.898  0.00  0.00    +0.000 F 
ATOM     11  C   UNL     1       3.446   3.390  20.032  0.00  0.00    +0.000 A 
ATOM     12  C   UNL     1       3.847   4.322  19.067  0.00  0.00    +0.000 A 
ATOM     13  C   UNL     1       3.249   5.568  19.098  0.00  0.00    +0.000 A 
ENDROOT
BRANCH   6  14
ATOM     14  C   UNL     1       0.706   9.233  20.431  0.00  0.00    +0.000 A 
ATOM     15  C   UNL     1      -0.357   9.511  19.561  0.00  0.00    +0.000 A 
ATOM     16  C   UNL     1      -0.718  10.830  19.264  0.00  0.00    +0.000 A 
ATOM     17  C   UNL     1       0.002  11.879  19.842  0.00  0.00    +0.000 A 
ATOM     18  C   UNL     1       1.015  11.619  20.760  0.00  0.00    +0.000 A 
ATOM     19  C   UNL     1       1.319  10.300  21.093  0.00  0.00    +0.000 A 
BRANCH  17  20
ATOM     20  S   UNL     1      -0.321  13.556  19.375  0.00  0.00    +0.000 S 
ATOM     21  O   UNL     1      -1.488  14.023  20.091  0.00  0.00    +0.000 OA
ATOM     22  O   UNL     1       0.928  14.278  19.367  0.00  0.00    +0.000 OA
BRANCH  20  23
ATOM     23  N   UNL     1      -0.781  13.355  17.781  0.00  0.00    +0.000 NA
ATOM     24  H   UNL     1      -0.808  14.217  17.245  0.00  0.00    +0.000 HD
ATOM     25  H   UNL     1      -1.516  12.666  17.637  0.00  0.00    +0.000 HD
ENDBRANCH  20  23
ENDBRANCH  17  20
ENDBRANCH   6  14
TORSDOF 3
ENDMDL
MODEL 9
REMARK VINA RESULT:      -6.5      2.037      2.804
REMARK  Name = 
REMARK  4 active torsions:
REMARK  status: ('A' for Active; 'I' for Inactive)
REMARK    1  A    between atoms: C_1  and  N_2
REMARK    2  A    between atoms: N_6  and  C_7
REMARK    3  A    between atoms: C_10  and  S_11
REMARK    4  A    between atoms: S_11  and  N_12
REMARK                            x       y       z     vdW  Elec       q    Type
REMARK                         _______ _______ _______ _____ _____    ______ ____
ROOT
ATOM      1  C   UNL     1       2.666   2.526  17.756  0.00  0.00    +0.000 C 
ATOM      2  N   UNL     1       3.252   3.822  17.543  0.00  0.00    +0.000 N 
ATOM      3  C   UNL     1       2.806   4.986  18.150  0.00  0.00    +0.000 C 
ATOM      4  O   UNL     1       1.928   5.094  18.979  0.00  0.00    +0.000 OA
ATOM      5  C   UNL     1       3.670   6.119  17.543  0.00  0.00    +0.000 C 
ATOM      6  N   UNL     1       3.597   7.412  17.640  0.00  0.00    +0.000 NA
ATOM      7  C   UNL     1       4.662   5.438  16.712  0.00  0.00    +0.000 A 
ATOM      8  C   UNL     1       5.718   5.962  15.994  0.00  0.00    +0.000 A 
ATOM      9  C   UNL     1       6.492   5.055  15.281  0.00  0.00    +0.000 A 
ATOM     10  F   UNL     1       7.538   5.501  14.574  0.00  0.00    +0.000 F 
ATOM     11  C   UNL     1       6.208   3.678  15.281  0.00  0.00    +0.000 A 
ATOM     12  C   UNL     1       5.126   3.171  16.010  0.00  0.00    +0.000 A 
ATOM     13  C   UNL     1       4.361   4.075  16.726  0.00  0.00    +0.000 A 
ENDROOT
BRANCH   6  14
ATOM     14  C   UNL     1       2.616   8.047  18.414  0.00  0.00    +0.000 A 
ATOM     15  C   UNL     1       1.822   9.034  17.814  0.00  0.00    +0.000 A 
ATOM     16  C   UNL     1       0.872   9.744  18.559  0.00  0.00    +0.000 A 
ATOM     17  C   UNL     1       0.727   9.463  19.920  0.00  0.00    +0.000 A 
ATOM     18  C   UNL     1       1.460   8.440  20.513  0.00  0.00    +0.000 A 
ATOM     19  C   UNL     1       2.355   7.700  19.741  0.00  0.00    +0.000 A 
BRANCH  17  20
ATOM     20  S   UNL     1      -0.350  10.442  20.929  0.00  0.00    +0.000 S 
ATOM     21  O   UNL     1      -1.314  11.103  20.077  0.00  0.00    +0.000 OA
ATOM     22  O   UNL     1      -0.735   9.661  22.080  0.00  0.00    +0.000 OA
BRANCH  20  23
ATOM     23  N   UNL     1       0.707  11.619  21.468  0.00  0.00    +0.000 NA
ATOM     24  H   UNL     1       0.305  12.550  21.511  0.00  0.00    +0.000 HD
ATOM     25  H   UNL     1       1.663  11.513  21.134  0.00  0.00    +0.000 HD
ENDBRANCH  20  23
ENDBRANCH  17  20
ENDBRANCH   6  14
TORSDOF 3
ENDMDL
