MODEL 1
REMARK VINA RESULT:      -6.9      0.000      0.000
REMARK  Name = 
REMARK  8 active torsions:
REMARK  status: ('A' for Active; 'I' for Inactive)
REMARK    1  A    between atoms: C_1  and  N_2
REMARK    2  A    between atoms: C_3  and  C_4
REMARK    3  A    between atoms: N_5  and  O_6
REMARK    4  A    between atoms: C_10  and  C_11
REMARK    5  A    between atoms: C_11  and  C_12
REMARK    6  A    between atoms: C_12  and  O_13
REMARK    7  A    between atoms: O_13  and  N_14
REMARK    8  A    between atoms: C_17  and  C_18
REMARK                            x       y       z     vdW  Elec       q    Type
REMARK                         _______ _______ _______ _____ _____    ______ ____
ROOT
ATOM      1  C   UNL     1       2.985   6.871  18.494  0.00  0.00    +0.000 C 
ENDROOT
BRANCH   1   2
ATOM      2  C   UNL     1       2.354   5.574  17.943  0.00  0.00    +0.000 C 
BRANCH   2   9
ATOM      3  C   UNL     1       4.376   3.371  18.039  0.00  0.00    +0.000 C 
ATOM      4  N   UNL     1       3.398   3.566  19.140  0.00  0.00    +0.000 N 
ATOM      5  C   UNL     1       3.454   2.755  20.242  0.00  0.00    +0.000 A 
ATOM      6  C   UNL     1       2.399   2.697  21.152  0.00  0.00    +0.000 A 
ATOM      7  C   UNL     1       1.293   3.504  20.964  0.00  0.00    +0.000 A 
ATOM      8  C   UNL     1       1.286   4.396  19.903  0.00  0.00    +0.000 A 
ATOM      9  C   UNL     1       2.367   4.464  18.997  0.00  0.00    +0.000 A 
BRANCH   5  10
ATOM     10  C   UNL     1       4.658   1.966  20.564  0.00  0.00    +0.000 C 
ATOM     11  N   UNL     1       4.779   1.325  21.684  0.00  0.00    +0.000 NA
BRANCH  11  12
ATOM     12  O   UNL     1       6.021   0.678  21.675  0.00  0.00    +0.000 OA
ATOM     13  H   UNL     1       6.007   0.112  22.473  0.00  0.00    +0.000 HD
ENDBRANCH  11  12
ENDBRANCH   5  10
ENDBRANCH   2   9
ENDBRANCH   1   2
BRANCH   1  14
ATOM     14  O   UNL     1       2.288   8.068  18.095  0.00  0.00    +0.000 OA
BRANCH  14  15
ATOM     15  N   UNL     1       1.612   8.691  19.185  0.00  0.00    +0.000 N 
ATOM     16  C   UNL     1       1.019   9.895  19.061  0.00  0.00    +0.000 A 
ATOM     17  C   UNL     1       0.420  10.509  20.149  0.00  0.00    +0.000 A 
ATOM     18  C   UNL     1       0.387   9.845  21.367  0.00  0.00    +0.000 A 
ATOM     19  C   UNL     1       0.929   8.556  21.451  0.00  0.00    +0.000 A 
ATOM     20  C   UNL     1       1.540   7.986  20.333  0.00  0.00    +0.000 A 
BRANCH  18  21
ATOM     21  C   UNL     1      -0.203  10.449  22.596  0.00  0.00    +0.000 C 
ATOM     22  N   UNL     1      -0.716   9.625  23.561  0.00  0.00    +0.000 N 
ATOM     23  O   UNL     1      -0.234  11.665  22.715  0.00  0.00    +0.000 OA
ATOM     24  H   UNL     1      -0.749   8.622  23.568  0.00  0.00    +0.000 HD
ATOM     25  H   UNL     1      -1.115  10.089  24.370  0.00  0.00    +0.000 HD
ENDBRANCH  18  21
ENDBRANCH  14  15
ENDBRANCH   1  14
TORSDOF 7
ENDMDL
MODEL 2
REMARK VINA RESULT:      -6.9      3.007      8.387
REMARK  Name = 
REMARK  8 active torsions:
REMARK  status: ('A' for Active; 'I' for Inactive)
REMARK    1  A    between atoms: C_1  and  N_2
REMARK    2  A    between atoms: C_3  and  C_4
REMARK    3  A    between atoms: N_5  and  O_6
REMARK    4  A    between atoms: C_10  and  C_11
REMARK    5  A    between atoms: C_11  and  C_12
REMARK    6  A    between atoms: C_12  and  O_13
REMARK    7  A    between atoms: O_13  and  N_14
REMARK    8  A    between atoms: C_17  and  C_18
REMARK                            x       y       z     vdW  Elec       q    Type
REMARK                         _______ _______ _______ _____ _____    ______ ____
ROOT
ATOM      1  C   UNL     1       2.566   5.825  19.528  0.00  0.00    +0.000 C 
ENDROOT
BRANCH   1   2
ATOM      2  C   UNL     1       2.631   7.218  18.867  0.00  0.00    +0.000 C 
BRANCH   2   9
ATOM      3  C   UNL     1       1.987   9.956  17.846  0.00  0.00    +0.000 C 
ATOM      4  N   UNL     1       1.291   9.394  19.031  0.00  0.00    +0.000 N 
ATOM      5  C   UNL     1       0.302  10.120  19.638  0.00  0.00    +0.000 A 
ATOM      6  C   UNL     1      -0.170   9.781  20.905  0.00  0.00    +0.000 A 
ATOM      7  C   UNL     1       0.337   8.666  21.546  0.00  0.00    +0.000 A 
ATOM      8  C   UNL     1       1.265   7.877  20.883  0.00  0.00    +0.000 A 
ATOM      9  C   UNL     1       1.723   8.216  19.592  0.00  0.00    +0.000 A 
BRANCH   5  10
ATOM     10  C   UNL     1      -0.367  11.244  18.955  0.00  0.00    +0.000 C 
ATOM     11  N   UNL     1      -1.507  11.102  18.357  0.00  0.00    +0.000 NA
BRANCH  11  12
ATOM     12  O   UNL     1      -1.867  12.346  17.822  0.00  0.00    +0.000 OA
ATOM     13  H   UNL     1      -1.133  12.571  17.216  0.00  0.00    +0.000 HD
ENDBRANCH  11  12
ENDBRANCH   5  10
ENDBRANCH   2   9
ENDBRANCH   1   2
BRANCH   1  14
ATOM     14  O   UNL     1       3.861   5.259  19.812  0.00  0.00    +0.000 OA
BRANCH  14  15
ATOM     15  N   UNL     1       4.643   5.079  18.634  0.00  0.00    +0.000 N 
ATOM     16  C   UNL     1       5.873   5.617  18.506  0.00  0.00    +0.000 A 
ATOM     17  C   UNL     1       6.591   5.480  17.329  0.00  0.00    +0.000 A 
ATOM     18  C   UNL     1       6.053   4.732  16.292  0.00  0.00    +0.000 A 
ATOM     19  C   UNL     1       4.815   4.106  16.479  0.00  0.00    +0.000 A 
ATOM     20  C   UNL     1       4.118   4.289  17.675  0.00  0.00    +0.000 A 
BRANCH  18  21
ATOM     21  C   UNL     1       6.742   4.567  14.979  0.00  0.00    +0.000 C 
ATOM     22  N   UNL     1       6.314   3.589  14.123  0.00  0.00    +0.000 N 
ATOM     23  O   UNL     1       7.683   5.293  14.697  0.00  0.00    +0.000 OA
ATOM     24  H   UNL     1       5.561   2.937  14.251  0.00  0.00    +0.000 HD
ATOM     25  H   UNL     1       6.825   3.513  13.250  0.00  0.00    +0.000 HD
ENDBRANCH  18  21
ENDBRANCH  14  15
ENDBRANCH   1  14
TORSDOF 7
ENDMDL
MODEL 3
REMARK VINA RESULT:      -6.9      4.514      8.199
REMARK  Name = 
REMARK  8 active torsions:
REMARK  status: ('A' for Active; 'I' for Inactive)
REMARK    1  A    between atoms: C_1  and  N_2
REMARK    2  A    between atoms: C_3  and  C_4
REMARK    3  A    between atoms: N_5  and  O_6
REMARK    4  A    between atoms: C_10  and  C_11
REMARK    5  A    between atoms: C_11  and  C_12
REMARK    6  A    between atoms: C_12  and  O_13
REMARK    7  A    between atoms: O_13  and  N_14
REMARK    8  A    between atoms: C_17  and  C_18
REMARK                            x       y       z     vdW  Elec       q    Type
REMARK                         _______ _______ _______ _____ _____    ______ ____
ROOT
ATOM      1  C   UNL     1       7.403   4.817  17.669  0.00  0.00    +0.000 C 
ENDROOT
BRANCH   1   2
ATOM      2  C   UNL     1       6.654   5.504  18.831  0.00  0.00    +0.000 C 
BRANCH   2   9
ATOM      3  C   UNL     1       4.739   3.246  19.269  0.00  0.00    +0.000 C 
ATOM      4  N   UNL     1       4.257   4.607  18.919  0.00  0.00    +0.000 N 
ATOM      5  C   UNL     1       2.911   4.846  18.844  0.00  0.00    +0.000 A 
ATOM      6  C   UNL     1       2.413   6.000  18.241  0.00  0.00    +0.000 A 
ATOM      7  C   UNL     1       3.294   6.944  17.747  0.00  0.00    +0.000 A 
ATOM      8  C   UNL     1       4.655   6.744  17.916  0.00  0.00    +0.000 A 
ATOM      9  C   UNL     1       5.151   5.582  18.546  0.00  0.00    +0.000 A 
BRANCH   5  10
ATOM     10  C   UNL     1       1.926   3.939  19.464  0.00  0.00    +0.000 C 
ATOM     11  N   UNL     1       1.607   4.025  20.717  0.00  0.00    +0.000 NA
BRANCH  11  12
ATOM     12  O   UNL     1       0.652   3.036  20.984  0.00  0.00    +0.000 OA
ATOM     13  H   UNL     1       1.032   2.526  21.728  0.00  0.00    +0.000 HD
ENDBRANCH  11  12
ENDBRANCH   5  10
ENDBRANCH   2   9
ENDBRANCH   1   2
BRANCH   1  14
ATOM     14  O   UNL     1       7.474   5.618  16.473  0.00  0.00    +0.000 OA
BRANCH  14  15
ATOM     15  N   UNL     1       6.898   4.962  15.346  0.00  0.00    +0.000 N 
ATOM     16  C   UNL     1       5.742   4.274  15.436  0.00  0.00    +0.000 A 
ATOM     17  C   UNL     1       5.231   3.593  14.343  0.00  0.00    +0.000 A 
ATOM     18  C   UNL     1       5.897   3.669  13.128  0.00  0.00    +0.000 A 
ATOM     19  C   UNL     1       7.047   4.463  13.033  0.00  0.00    +0.000 A 
ATOM     20  C   UNL     1       7.535   5.115  14.167  0.00  0.00    +0.000 A 
BRANCH  18  21
ATOM     21  C   UNL     1       5.437   2.936  11.913  0.00  0.00    +0.000 C 
ATOM     22  N   UNL     1       4.226   3.256  11.361  0.00  0.00    +0.000 N 
ATOM     23  O   UNL     1       6.138   2.053  11.440  0.00  0.00    +0.000 OA
ATOM     24  H   UNL     1       3.570   3.954  11.665  0.00  0.00    +0.000 HD
ATOM     25  H   UNL     1       3.958   2.719  10.544  0.00  0.00    +0.000 HD
ENDBRANCH  18  21
ENDBRANCH  14  15
ENDBRANCH   1  14
TORSDOF 7
ENDMDL
MODEL 4
REMARK VINA RESULT:      -6.8      3.811      6.519
REMARK  Name = 
REMARK  8 active torsions:
REMARK  status: ('A' for Active; 'I' for Inactive)
REMARK    1  A    between atoms: C_1  and  N_2
REMARK    2  A    between atoms: C_3  and  C_4
REMARK    3  A    between atoms: N_5  and  O_6
REMARK    4  A    between atoms: C_10  and  C_11
REMARK    5  A    between atoms: C_11  and  C_12
REMARK    6  A    between atoms: C_12  and  O_13
REMARK    7  A    between atoms: O_13  and  N_14
REMARK    8  A    between atoms: C_17  and  C_18
REMARK                            x       y       z     vdW  Elec       q    Type
REMARK                         _______ _______ _______ _____ _____    ______ ____
ROOT
ATOM      1  C   UNL     1       3.115   6.550  18.411  0.00  0.00    +0.000 C 
ENDROOT
BRANCH   1   2
ATOM      2  C   UNL     1       2.281   5.278  18.143  0.00  0.00    +0.000 C 
BRANCH   2   9
ATOM      3  C   UNL     1       3.762   2.689  17.909  0.00  0.00    +0.000 C 
ATOM      4  N   UNL     1       3.263   3.174  19.221  0.00  0.00    +0.000 N 
ATOM      5  C   UNL     1       3.529   2.450  20.352  0.00  0.00    +0.000 A 
ATOM      6  C   UNL     1       2.848   2.693  21.544  0.00  0.00    +0.000 A 
ATOM      7  C   UNL     1       1.917   3.713  21.600  0.00  0.00    +0.000 A 
ATOM      8  C   UNL     1       1.726   4.509  20.481  0.00  0.00    +0.000 A 
ATOM      9  C   UNL     1       2.434   4.269  19.284  0.00  0.00    +0.000 A 
BRANCH   5  10
ATOM     10  C   UNL     1       4.598   1.434  20.390  0.00  0.00    +0.000 C 
ATOM     11  N   UNL     1       5.274   1.189  21.468  0.00  0.00    +0.000 NA
BRANCH  11  12
ATOM     12  O   UNL     1       6.197   0.178  21.173  0.00  0.00    +0.000 OA
ATOM     13  H   UNL     1       6.351   0.261  20.211  0.00  0.00    +0.000 HD
ENDBRANCH  11  12
ENDBRANCH   5  10
ENDBRANCH   2   9
ENDBRANCH   1   2
BRANCH   1  14
ATOM     14  O   UNL     1       4.509   6.284  18.662  0.00  0.00    +0.000 OA
BRANCH  14  15
ATOM     15  N   UNL     1       5.200   5.859  17.490  0.00  0.00    +0.000 N 
ATOM     16  C   UNL     1       6.240   5.003  17.546  0.00  0.00    +0.000 A 
ATOM     17  C   UNL     1       6.935   4.650  16.400  0.00  0.00    +0.000 A 
ATOM     18  C   UNL     1       6.514   5.146  15.175  0.00  0.00    +0.000 A 
ATOM     19  C   UNL     1       5.376   5.961  15.128  0.00  0.00    +0.000 A 
ATOM     20  C   UNL     1       4.720   6.306  16.311  0.00  0.00    +0.000 A 
BRANCH  18  21
ATOM     21  C   UNL     1       7.228   4.847  13.900  0.00  0.00    +0.000 C 
ATOM     22  N   UNL     1       8.299   5.620  13.541  0.00  0.00    +0.000 N 
ATOM     23  O   UNL     1       6.836   3.933  13.189  0.00  0.00    +0.000 OA
ATOM     24  H   UNL     1       8.702   6.393  14.039  0.00  0.00    +0.000 HD
ATOM     25  H   UNL     1       8.740   5.381  12.659  0.00  0.00    +0.000 HD
ENDBRANCH  18  21
ENDBRANCH  14  15
ENDBRANCH   1  14
TORSDOF 7
ENDMDL
MODEL 5
REMARK VINA RESULT:      -6.7      1.805      2.424
REMARK  Name = 
REMARK  8 active torsions:
REMARK  status: ('A' for Active; 'I' for Inactive)
REMARK    1  A    between atoms: C_1  and  N_2
REMARK    2  A    between atoms: C_3  and  C_4
REMARK    3  A    between atoms: N_5  and  O_6
REMARK    4  A    between atoms: C_10  and  C_11
REMARK    5  A    between atoms: C_11  and  C_12
REMARK    6  A    between atoms: C_12  and  O_13
REMARK    7  A    between atoms: O_13  and  N_14
REMARK    8  A    between atoms: C_17  and  C_18
REMARK                            x       y       z     vdW  Elec       q    Type
REMARK                         _______ _______ _______ _____ _____    ______ ____
ROOT
ATOM      1  C   UNL     1       2.543   7.544  17.968  0.00  0.00    +0.000 C 
ENDROOT
BRANCH   1   2
ATOM      2  C   UNL     1       3.759   6.602  17.832  0.00  0.00    +0.000 C 
BRANCH   2   9
ATOM      3  C   UNL     1       5.690   4.423  18.520  0.00  0.00    +0.000 C 
ATOM      4  N   UNL     1       4.224   4.197  18.577  0.00  0.00    +0.000 N 
ATOM      5  C   UNL     1       3.745   2.986  19.000  0.00  0.00    +0.000 A 
ATOM      6  C   UNL     1       2.415   2.622  18.795  0.00  0.00    +0.000 A 
ATOM      7  C   UNL     1       1.549   3.516  18.192  0.00  0.00    +0.000 A 
ATOM      8  C   UNL     1       2.015   4.778  17.858  0.00  0.00    +0.000 A 
ATOM      9  C   UNL     1       3.359   5.146  18.088  0.00  0.00    +0.000 A 
BRANCH   5  10
ATOM     10  C   UNL     1       4.586   2.041  19.760  0.00  0.00    +0.000 C 
ATOM     11  N   UNL     1       4.744   2.142  21.043  0.00  0.00    +0.000 NA
BRANCH  11  12
ATOM     12  O   UNL     1       5.585   1.100  21.453  0.00  0.00    +0.000 OA
ATOM     13  H   UNL     1       5.230   0.308  21.002  0.00  0.00    +0.000 HD
ENDBRANCH  11  12
ENDBRANCH   5  10
ENDBRANCH   2   9
ENDBRANCH   1   2
BRANCH   1  14
ATOM     14  O   UNL     1       2.234   7.894  19.332  0.00  0.00    +0.000 OA
BRANCH  14  15
ATOM     15  N   UNL     1       1.290   8.960  19.416  0.00  0.00    +0.000 N 
ATOM     16  C   UNL     1       0.789   9.376  20.597  0.00  0.00    +0.000 A 
ATOM     17  C   UNL     1      -0.173  10.373  20.650  0.00  0.00    +0.000 A 
ATOM     18  C   UNL     1      -0.580  10.983  19.473  0.00  0.00    +0.000 A 
ATOM     19  C   UNL     1       0.020  10.599  18.268  0.00  0.00    +0.000 A 
ATOM     20  C   UNL     1       0.970   9.576  18.260  0.00  0.00    +0.000 A 
BRANCH  18  21
ATOM     21  C   UNL     1      -1.636  12.036  19.438  0.00  0.00    +0.000 C 
ATOM     22  N   UNL     1      -1.774  12.801  18.311  0.00  0.00    +0.000 N 
ATOM     23  O   UNL     1      -2.347  12.210  20.416  0.00  0.00    +0.000 OA
ATOM     24  H   UNL     1      -1.248  12.750  17.457  0.00  0.00    +0.000 HD
ATOM     25  H   UNL     1      -2.500  13.509  18.345  0.00  0.00    +0.000 HD
ENDBRANCH  18  21
ENDBRANCH  14  15
ENDBRANCH   1  14
TORSDOF 7
ENDMDL
MODEL 6
REMARK VINA RESULT:      -6.6      1.147      1.387
REMARK  Name = 
REMARK  8 active torsions:
REMARK  status: ('A' for Active; 'I' for Inactive)
REMARK    1  A    between atoms: C_1  and  N_2
REMARK    2  A    between atoms: C_3  and  C_4
REMARK    3  A    between atoms: N_5  and  O_6
REMARK    4  A    between atoms: C_10  and  C_11
REMARK    5  A    between atoms: C_11  and  C_12
REMARK    6  A    between atoms: C_12  and  O_13
REMARK    7  A    between atoms: O_13  and  N_14
REMARK    8  A    between atoms: C_17  and  C_18
REMARK                            x       y       z     vdW  Elec       q    Type
REMARK                         _______ _______ _______ _____ _____    ______ ____
ROOT
ATOM      1  C   UNL     1       2.191   7.746  17.458  0.00  0.00    +0.000 C 
ENDROOT
BRANCH   1   2
ATOM      2  C   UNL     1       3.480   6.991  17.847  0.00  0.00    +0.000 C 
BRANCH   2   9
ATOM      3  C   UNL     1       5.425   5.154  19.186  0.00  0.00    +0.000 C 
ATOM      4  N   UNL     1       4.007   4.760  18.988  0.00  0.00    +0.000 N 
ATOM      5  C   UNL     1       3.569   3.556  19.470  0.00  0.00    +0.000 A 
ATOM      6  C   UNL     1       2.351   3.013  19.062  0.00  0.00    +0.000 A 
ATOM      7  C   UNL     1       1.549   3.721  18.187  0.00  0.00    +0.000 A 
ATOM      8  C   UNL     1       1.951   4.984  17.782  0.00  0.00    +0.000 A 
ATOM      9  C   UNL     1       3.176   5.536  18.216  0.00  0.00    +0.000 A 
BRANCH   5  10
ATOM     10  C   UNL     1       4.319   2.813  20.500  0.00  0.00    +0.000 C 
ATOM     11  N   UNL     1       4.935   1.704  20.235  0.00  0.00    +0.000 NA
BRANCH  11  12
ATOM     12  O   UNL     1       5.548   1.262  21.413  0.00  0.00    +0.000 OA
ATOM     13  H   UNL     1       4.964   1.586  22.129  0.00  0.00    +0.000 HD
ENDBRANCH  11  12
ENDBRANCH   5  10
ENDBRANCH   2   9
ENDBRANCH   1   2
BRANCH   1  14
ATOM     14  O   UNL     1       2.245   9.161  17.732  0.00  0.00    +0.000 OA
BRANCH  14  15
ATOM     15  N   UNL     1       1.547   9.509  18.925  0.00  0.00    +0.000 N 
ATOM     16  C   UNL     1       0.953  10.709  19.078  0.00  0.00    +0.000 A 
ATOM     17  C   UNL     1       0.332  11.049  20.269  0.00  0.00    +0.000 A 
ATOM     18  C   UNL     1       0.278  10.116  21.294  0.00  0.00    +0.000 A 
ATOM     19  C   UNL     1       0.822   8.843  21.081  0.00  0.00    +0.000 A 
ATOM     20  C   UNL     1       1.456   8.552  19.872  0.00  0.00    +0.000 A 
BRANCH  18  21
ATOM     21  C   UNL     1      -0.337  10.413  22.620  0.00  0.00    +0.000 C 
ATOM     22  N   UNL     1      -0.756   9.373  23.407  0.00  0.00    +0.000 N 
ATOM     23  O   UNL     1      -0.472  11.574  22.976  0.00  0.00    +0.000 OA
ATOM     24  H   UNL     1      -0.700   8.389  23.217  0.00  0.00    +0.000 HD
ATOM     25  H   UNL     1      -1.176   9.632  24.292  0.00  0.00    +0.000 HD
ENDBRANCH  18  21
ENDBRANCH  14  15
ENDBRANCH   1  14
TORSDOF 7
ENDMDL
MODEL 7
REMARK VINA RESULT:      -6.6      4.610      8.336
REMARK  Name = 
REMARK  8 active torsions:
REMARK  status: ('A' for Active; 'I' for Inactive)
REMARK    1  A    between atoms: C_1  and  N_2
REMARK    2  A    between atoms: C_3  and  C_4
REMARK    3  A    between atoms: N_5  and  O_6
REMARK    4  A    between atoms: C_10  and  C_11
REMARK    5  A    between atoms: C_11  and  C_12
REMARK    6  A    between atoms: C_12  and  O_13
REMARK    7  A    between atoms: O_13  and  N_14
REMARK    8  A    between atoms: C_17  and  C_18
REMARK                            x       y       z     vdW  Elec       q    Type
REMARK                         _______ _______ _______ _____ _____    ______ ____
ROOT
ATOM      1  C   UNL     1       6.688   6.614  16.656  0.00  0.00    +0.000 C 
ENDROOT
BRANCH   1   2
ATOM      2  C   UNL     1       6.133   6.017  17.967  0.00  0.00    +0.000 C 
BRANCH   2   9
ATOM      3  C   UNL     1       4.450   3.546  18.087  0.00  0.00    +0.000 C 
ATOM      4  N   UNL     1       3.843   4.896  18.204  0.00  0.00    +0.000 N 
ATOM      5  C   UNL     1       2.496   5.013  18.421  0.00  0.00    +0.000 A 
ATOM      6  C   UNL     1       1.838   6.229  18.246  0.00  0.00    +0.000 A 
ATOM      7  C   UNL     1       2.563   7.351  17.888  0.00  0.00    +0.000 A 
ATOM      8  C   UNL     1       3.940   7.249  17.768  0.00  0.00    +0.000 A 
ATOM      9  C   UNL     1       4.602   6.018  17.968  0.00  0.00    +0.000 A 
BRANCH   5  10
ATOM     10  C   UNL     1       1.691   3.884  18.926  0.00  0.00    +0.000 C 
ATOM     11  N   UNL     1       0.942   3.173  18.143  0.00  0.00    +0.000 NA
BRANCH  11  12
ATOM     12  O   UNL     1       0.323   2.188  18.923  0.00  0.00    +0.000 OA
ATOM     13  H   UNL     1       0.435   1.363  18.409  0.00  0.00    +0.000 HD
ENDBRANCH  11  12
ENDBRANCH   5  10
ENDBRANCH   2   9
ENDBRANCH   1   2
BRANCH   1  14
ATOM     14  O   UNL     1       7.689   5.791  16.024  0.00  0.00    +0.000 OA
BRANCH  14  15
ATOM     15  N   UNL     1       7.161   5.033  14.939  0.00  0.00    +0.000 N 
ATOM     16  C   UNL     1       7.631   5.165  13.682  0.00  0.00    +0.000 A 
ATOM     17  C   UNL     1       7.062   4.463  12.632  0.00  0.00    +0.000 A 
ATOM     18  C   UNL     1       6.031   3.573  12.893  0.00  0.00    +0.000 A 
ATOM     19  C   UNL     1       5.619   3.383  14.218  0.00  0.00    +0.000 A 
ATOM     20  C   UNL     1       6.208   4.128  15.242  0.00  0.00    +0.000 A 
BRANCH  18  21
ATOM     21  C   UNL     1       5.338   2.807  11.817  0.00  0.00    +0.000 C 
ATOM     22  N   UNL     1       5.853   1.601  11.422  0.00  0.00    +0.000 N 
ATOM     23  O   UNL     1       4.336   3.272  11.295  0.00  0.00    +0.000 OA
ATOM     24  H   UNL     1       6.666   1.128  11.774  0.00  0.00    +0.000 HD
ATOM     25  H   UNL     1       5.349   1.129  10.680  0.00  0.00    +0.000 HD
ENDBRANCH  18  21
ENDBRANCH  14  15
ENDBRANCH   1  14
TORSDOF 7
ENDMDL
MODEL 8
REMARK VINA RESULT:      -6.6      3.157      8.493
REMARK  Name = 
REMARK  8 active torsions:
REMARK  status: ('A' for Active; 'I' for Inactive)
REMARK    1  A    between atoms: C_1  and  N_2
REMARK    2  A    between atoms: C_3  and  C_4
REMARK    3  A    between atoms: N_5  and  O_6
REMARK    4  A    between atoms: C_10  and  C_11
REMARK    5  A    between atoms: C_11  and  C_12
REMARK    6  A    between atoms: C_12  and  O_13
REMARK    7  A    between atoms: O_13  and  N_14
REMARK    8  A    between atoms: C_17  and  C_18
REMARK                            x       y       z     vdW  Elec       q    Type
REMARK                         _______ _______ _______ _____ _____    ______ ____
ROOT
ATOM      1  C   UNL     1       2.845   5.918  19.547  0.00  0.00    +0.000 C 
ENDROOT
BRANCH   1   2
ATOM      2  C   UNL     1       2.661   7.253  18.794  0.00  0.00    +0.000 C 
BRANCH   2   9
ATOM      3  C   UNL     1       1.876   9.981  17.848  0.00  0.00    +0.000 C 
ATOM      4  N   UNL     1       1.248   9.372  19.049  0.00  0.00    +0.000 N 
ATOM      5  C   UNL     1       0.257  10.050  19.707  0.00  0.00    +0.000 A 
ATOM      6  C   UNL     1      -0.153   9.672  20.985  0.00  0.00    +0.000 A 
ATOM      7  C   UNL     1       0.421   8.566  21.585  0.00  0.00    +0.000 A 
ATOM      8  C   UNL     1       1.351   7.825  20.873  0.00  0.00    +0.000 A 
ATOM      9  C   UNL     1       1.745   8.202  19.571  0.00  0.00    +0.000 A 
BRANCH   5  10
ATOM     10  C   UNL     1      -0.479  11.159  19.071  0.00  0.00    +0.000 C 
ATOM     11  N   UNL     1      -0.975  12.138  19.760  0.00  0.00    +0.000 NA
BRANCH  11  12
ATOM     12  O   UNL     1      -1.599  13.018  18.866  0.00  0.00    +0.000 OA
ATOM     13  H   UNL     1      -2.168  12.443  18.316  0.00  0.00    +0.000 HD
ENDBRANCH  11  12
ENDBRANCH   5  10
ENDBRANCH   2   9
ENDBRANCH   1   2
BRANCH   1  14
ATOM     14  O   UNL     1       4.215   5.473  19.607  0.00  0.00    +0.000 OA
BRANCH  14  15
ATOM     15  N   UNL     1       4.770   5.252  18.312  0.00  0.00    +0.000 N 
ATOM     16  C   UNL     1       4.281   4.313  17.478  0.00  0.00    +0.000 A 
ATOM     17  C   UNL     1       4.873   4.074  16.248  0.00  0.00    +0.000 A 
ATOM     18  C   UNL     1       5.951   4.853  15.855  0.00  0.00    +0.000 A 
ATOM     19  C   UNL     1       6.386   5.884  16.698  0.00  0.00    +0.000 A 
ATOM     20  C   UNL     1       5.771   6.074  17.936  0.00  0.00    +0.000 A 
BRANCH  18  21
ATOM     21  C   UNL     1       6.671   4.638  14.566  0.00  0.00    +0.000 C 
ATOM     22  N   UNL     1       7.706   5.471  14.235  0.00  0.00    +0.000 N 
ATOM     23  O   UNL     1       6.316   3.737  13.821  0.00  0.00    +0.000 OA
ATOM     24  H   UNL     1       8.077   6.240  14.763  0.00  0.00    +0.000 HD
ATOM     25  H   UNL     1       8.152   5.286  13.344  0.00  0.00    +0.000 HD
ENDBRANCH  18  21
ENDBRANCH  14  15
ENDBRANCH   1  14
TORSDOF 7
ENDMDL
MODEL 9
REMARK VINA RESULT:      -6.5      3.169      4.525
REMARK  Name = 
REMARK  8 active torsions:
REMARK  status: ('A' for Active; 'I' for Inactive)
REMARK    1  A    between atoms: C_1  and  N_2
REMARK    2  A    between atoms: C_3  and  C_4
REMARK    3  A    between atoms: N_5  and  O_6
REMARK    4  A    between atoms: C_10  and  C_11
REMARK    5  A    between atoms: C_11  and  C_12
REMARK    6  A    between atoms: C_12  and  O_13
REMARK    7  A    between atoms: O_13  and  N_14
REMARK    8  A    between atoms: C_17  and  C_18
REMARK                            x       y       z     vdW  Elec       q    Type
REMARK                         _______ _______ _______ _____ _____    ______ ____
ROOT
ATOM      1  C   UNL     1       2.881   5.762  19.579  0.00  0.00    +0.000 C 
ENDROOT
BRANCH   1   2
ATOM      2  C   UNL     1       3.610   4.431  19.291  0.00  0.00    +0.000 C 
BRANCH   2   9
ATOM      3  C   UNL     1       4.399   3.549  16.543  0.00  0.00    +0.000 C 
ATOM      4  N   UNL     1       5.279   4.433  17.350  0.00  0.00    +0.000 N 
ATOM      5  C   UNL     1       6.449   4.894  16.809  0.00  0.00    +0.000 A 
ATOM      6  C   UNL     1       7.438   5.470  17.606  0.00  0.00    +0.000 A 
ATOM      7  C   UNL     1       7.217   5.620  18.962  0.00  0.00    +0.000 A 
ATOM      8  C   UNL     1       5.991   5.244  19.487  0.00  0.00    +0.000 A 
ATOM      9  C   UNL     1       4.987   4.680  18.670  0.00  0.00    +0.000 A 
BRANCH   5  10
ATOM     10  C   UNL     1       6.691   4.877  15.354  0.00  0.00    +0.000 C 
ATOM     11  N   UNL     1       7.647   5.561  14.809  0.00  0.00    +0.000 NA
BRANCH  11  12
ATOM     12  O   UNL     1       7.610   5.324  13.429  0.00  0.00    +0.000 OA
ATOM     13  H   UNL     1       8.164   6.033  13.045  0.00  0.00    +0.000 HD
ENDBRANCH  11  12
ENDBRANCH   5  10
ENDBRANCH   2   9
ENDBRANCH   1   2
BRANCH   1  14
ATOM     14  O   UNL     1       3.084   6.763  18.561  0.00  0.00    +0.000 OA
BRANCH  14  15
ATOM     15  N   UNL     1       2.298   7.931  18.787  0.00  0.00    +0.000 N 
ATOM     16  C   UNL     1       1.744   8.197  19.987  0.00  0.00    +0.000 A 
ATOM     17  C   UNL     1       0.934   9.307  20.167  0.00  0.00    +0.000 A 
ATOM     18  C   UNL     1       0.739  10.181  19.108  0.00  0.00    +0.000 A 
ATOM     19  C   UNL     1       1.397   9.934  17.896  0.00  0.00    +0.000 A 
ATOM     20  C   UNL     1       2.187   8.793  17.755  0.00  0.00    +0.000 A 
BRANCH  18  21
ATOM     21  C   UNL     1      -0.147  11.376  19.205  0.00  0.00    +0.000 C 
ATOM     22  N   UNL     1      -1.250  11.322  20.014  0.00  0.00    +0.000 N 
ATOM     23  O   UNL     1       0.114  12.375  18.551  0.00  0.00    +0.000 OA
ATOM     24  H   UNL     1      -1.563  10.560  20.588  0.00  0.00    +0.000 HD
ATOM     25  H   UNL     1      -1.824  12.158  20.033  0.00  0.00    +0.000 HD
ENDBRANCH  18  21
ENDBRANCH  14  15
ENDBRANCH   1  14
TORSDOF 7
ENDMDL
