MODEL 1
REMARK VINA RESULT:      -8.3      0.000      0.000
REMARK  Name = 
REMARK  6 active torsions:
REMARK  status: ('A' for Active; 'I' for Inactive)
REMARK    1  A    between atoms: C_1  and  O_2
REMARK    2  A    between atoms: O_2  and  C_3
REMARK    3  A    between atoms: C_10  and  C_11
REMARK    4  A    between atoms: N_13  and  C_14
REMARK    5  A    between atoms: C_14  and  C_15
REMARK    6  A    between atoms: C_15  and  N_16
REMARK                            x       y       z     vdW  Elec       q    Type
REMARK                         _______ _______ _______ _____ _____    ______ ____
ROOT
ATOM      1  C   UNL     1       7.871   8.072  17.902  0.00  0.00    +0.000 C 
ATOM      2  O   UNL     1       7.060   7.827  17.006  0.00  0.00    +0.000 OA
ATOM      3  N   UNL     1       8.315   7.077  18.748  0.00  0.00    +0.000 N 
ATOM      4  H   UNL     1       9.042   7.296  19.416  0.00  0.00    +0.000 HD
ENDROOT
BRANCH   1  12
ATOM      5  C   UNL     1      11.026  16.012  18.982  0.00  0.00    +0.000 A 
ATOM      6  C   UNL     1      11.853  15.407  19.922  0.00  0.00    +0.000 A 
ATOM      7  C   UNL     1      11.700  14.041  20.190  0.00  0.00    +0.000 A 
ATOM      8  C   UNL     1      10.737  13.282  19.509  0.00  0.00    +0.000 A 
ATOM      9  C   UNL     1      10.616  11.915  19.769  0.00  0.00    +0.000 A 
ATOM     10  C   UNL     1       9.675  11.160  19.048  0.00  0.00    +0.000 A 
ATOM     11  C   UNL     1       9.352   9.771  19.051  0.00  0.00    +0.000 A 
ATOM     12  C   UNL     1       8.360   9.428  18.151  0.00  0.00    +0.000 A 
ATOM     13  S   UNL     1       7.792  10.822  17.325  0.00  0.00    +0.000 S 
ATOM     14  C   UNL     1       8.892  11.856  18.134  0.00  0.00    +0.000 A 
ATOM     15  N   UNL     1       8.954  13.179  17.868  0.00  0.00    +0.000 NA
ATOM     16  C   UNL     1       9.881  13.874  18.557  0.00  0.00    +0.000 A 
ATOM     17  C   UNL     1      10.053  15.238  18.320  0.00  0.00    +0.000 A 
BRANCH   5  19
ATOM     18  C   UNL     1      10.824  18.274  19.690  0.00  0.00    +0.000 C 
ATOM     19  O   UNL     1      11.069  17.339  18.645  0.00  0.00    +0.000 OA
ENDBRANCH   5  19
ENDBRANCH   1  12
BRANCH   3  20
ATOM     20  C   UNL     1       7.808   5.712  18.681  0.00  0.00    +0.000 C 
BRANCH  20  21
ATOM     21  C   UNL     1       6.507   5.465  19.476  0.00  0.00    +0.000 C 
BRANCH  21  22
ATOM     22  N   UNL     1       5.469   4.696  18.770  0.00  0.00    +0.000 NA
ATOM     23  C   UNL     1       4.389   5.577  18.291  0.00  0.00    +0.000 C 
ATOM     24  C   UNL     1       3.412   4.748  17.435  0.00  0.00    +0.000 C 
ATOM     25  C   UNL     1       2.714   3.797  18.372  0.00  0.00    +0.000 A 
ATOM     26  C   UNL     1       1.362   3.485  18.215  0.00  0.00    +0.000 A 
ATOM     27  C   UNL     1       0.656   2.973  19.299  0.00  0.00    +0.000 A 
ATOM     28  C   UNL     1       1.306   2.762  20.516  0.00  0.00    +0.000 A 
ATOM     29  C   UNL     1       2.690   2.933  20.619  0.00  0.00    +0.000 A 
ATOM     30  C   UNL     1       3.419   3.409  19.527  0.00  0.00    +0.000 A 
ATOM     31  C   UNL     1       4.934   3.555  19.550  0.00  0.00    +0.000 C 
ENDBRANCH  21  22
ENDBRANCH  20  21
ENDBRANCH   3  20
TORSDOF 5
ENDMDL
MODEL 2
REMARK VINA RESULT:      -8.3      6.837      7.930
REMARK  Name = 
REMARK  6 active torsions:
REMARK  status: ('A' for Active; 'I' for Inactive)
REMARK    1  A    between atoms: C_1  and  O_2
REMARK    2  A    between atoms: O_2  and  C_3
REMARK    3  A    between atoms: C_10  and  C_11
REMARK    4  A    between atoms: N_13  and  C_14
REMARK    5  A    between atoms: C_14  and  C_15
REMARK    6  A    between atoms: C_15  and  N_16
REMARK                            x       y       z     vdW  Elec       q    Type
REMARK                         _______ _______ _______ _____ _____    ______ ____
ROOT
ATOM      1  C   UNL     1       4.088   6.870  17.425  0.00  0.00    +0.000 C 
ATOM      2  O   UNL     1       4.165   7.020  16.203  0.00  0.00    +0.000 OA
ATOM      3  N   UNL     1       4.903   5.970  18.081  0.00  0.00    +0.000 N 
ATOM      4  H   UNL     1       4.872   5.934  19.091  0.00  0.00    +0.000 HD
ENDROOT
BRANCH   1  12
ATOM      5  C   UNL     1      -1.379  11.410  22.289  0.00  0.00    +0.000 A 
ATOM      6  C   UNL     1      -1.136  10.425  23.240  0.00  0.00    +0.000 A 
ATOM      7  C   UNL     1      -0.302   9.349  22.912  0.00  0.00    +0.000 A 
ATOM      8  C   UNL     1       0.298   9.267  21.646  0.00  0.00    +0.000 A 
ATOM      9  C   UNL     1       1.148   8.201  21.345  0.00  0.00    +0.000 A 
ATOM     10  C   UNL     1       1.774   8.156  20.087  0.00  0.00    +0.000 A 
ATOM     11  C   UNL     1       2.709   7.246  19.511  0.00  0.00    +0.000 A 
ATOM     12  C   UNL     1       3.101   7.588  18.230  0.00  0.00    +0.000 A 
ATOM     13  S   UNL     1       2.291   9.012  17.715  0.00  0.00    +0.000 S 
ATOM     14  C   UNL     1       1.463   9.184  19.205  0.00  0.00    +0.000 A 
ATOM     15  N   UNL     1       0.628  10.219  19.440  0.00  0.00    +0.000 NA
ATOM     16  C   UNL     1       0.060  10.250  20.662  0.00  0.00    +0.000 A 
ATOM     17  C   UNL     1      -0.783  11.303  21.017  0.00  0.00    +0.000 A 
BRANCH   5  19
ATOM     18  C   UNL     1      -1.627  13.586  23.217  0.00  0.00    +0.000 C 
ATOM     19  O   UNL     1      -2.185  12.500  22.484  0.00  0.00    +0.000 OA
ENDBRANCH   5  19
ENDBRANCH   1  12
BRANCH   3  20
ATOM     20  C   UNL     1       5.839   5.106  17.373  0.00  0.00    +0.000 C 
BRANCH  20  21
ATOM     21  C   UNL     1       5.182   3.978  16.548  0.00  0.00    +0.000 C 
BRANCH  21  22
ATOM     22  N   UNL     1       4.303   3.069  17.302  0.00  0.00    +0.000 NA
ATOM     23  C   UNL     1       2.884   3.347  17.020  0.00  0.00    +0.000 C 
ATOM     24  C   UNL     1       2.020   2.276  17.714  0.00  0.00    +0.000 C 
ATOM     25  C   UNL     1       2.146   2.509  19.197  0.00  0.00    +0.000 A 
ATOM     26  C   UNL     1       1.056   2.344  20.054  0.00  0.00    +0.000 A 
ATOM     27  C   UNL     1       1.076   2.961  21.300  0.00  0.00    +0.000 A 
ATOM     28  C   UNL     1       2.184   3.718  21.684  0.00  0.00    +0.000 A 
ATOM     29  C   UNL     1       3.331   3.752  20.884  0.00  0.00    +0.000 A 
ATOM     30  C   UNL     1       3.339   3.104  19.648  0.00  0.00    +0.000 A 
ATOM     31  C   UNL     1       4.574   3.046  18.758  0.00  0.00    +0.000 C 
ENDBRANCH  21  22
ENDBRANCH  20  21
ENDBRANCH   3  20
TORSDOF 5
ENDMDL
MODEL 3
REMARK VINA RESULT:      -8.2      6.692      8.072
REMARK  Name = 
REMARK  6 active torsions:
REMARK  status: ('A' for Active; 'I' for Inactive)
REMARK    1  A    between atoms: C_1  and  O_2
REMARK    2  A    between atoms: O_2  and  C_3
REMARK    3  A    between atoms: C_10  and  C_11
REMARK    4  A    between atoms: N_13  and  C_14
REMARK    5  A    between atoms: C_14  and  C_15
REMARK    6  A    between atoms: C_15  and  N_16
REMARK                            x       y       z     vdW  Elec       q    Type
REMARK                         _______ _______ _______ _____ _____    ______ ____
ROOT
ATOM      1  C   UNL     1       3.392   6.800  17.940  0.00  0.00    +0.000 C 
ATOM      2  O   UNL     1       2.999   5.876  17.224  0.00  0.00    +0.000 OA
ATOM      3  N   UNL     1       4.740   7.009  18.153  0.00  0.00    +0.000 N 
ATOM      4  H   UNL     1       5.028   7.826  18.674  0.00  0.00    +0.000 HD
ENDROOT
BRANCH   1  12
ATOM      5  C   UNL     1      -1.735  12.304  22.133  0.00  0.00    +0.000 A 
ATOM      6  C   UNL     1      -1.522  11.462  23.218  0.00  0.00    +0.000 A 
ATOM      7  C   UNL     1      -0.751  10.306  23.046  0.00  0.00    +0.000 A 
ATOM      8  C   UNL     1      -0.183  10.003  21.800  0.00  0.00    +0.000 A 
ATOM      9  C   UNL     1       0.606   8.860  21.652  0.00  0.00    +0.000 A 
ATOM     10  C   UNL     1       1.203   8.594  20.408  0.00  0.00    +0.000 A 
ATOM     11  C   UNL     1       2.078   7.559  19.964  0.00  0.00    +0.000 A 
ATOM     12  C   UNL     1       2.460   7.684  18.641  0.00  0.00    +0.000 A 
ATOM     13  S   UNL     1       1.713   9.054  17.926  0.00  0.00    +0.000 S 
ATOM     14  C   UNL     1       0.926   9.492  19.384  0.00  0.00    +0.000 A 
ATOM     15  N   UNL     1       0.149  10.594  19.471  0.00  0.00    +0.000 NA
ATOM     16  C   UNL     1      -0.391  10.838  20.682  0.00  0.00    +0.000 A 
ATOM     17  C   UNL     1      -1.172  11.976  20.884  0.00  0.00    +0.000 A 
BRANCH   5  19
ATOM     18  C   UNL     1      -2.872  14.004  20.918  0.00  0.00    +0.000 C 
ATOM     19  O   UNL     1      -2.480  13.453  22.171  0.00  0.00    +0.000 OA
ENDBRANCH   5  19
ENDBRANCH   1  12
BRANCH   3  20
ATOM     20  C   UNL     1       5.761   6.123  17.610  0.00  0.00    +0.000 C 
BRANCH  20  21
ATOM     21  C   UNL     1       6.301   5.072  18.606  0.00  0.00    +0.000 C 
BRANCH  21  22
ATOM     22  N   UNL     1       5.453   3.884  18.796  0.00  0.00    +0.000 NA
ATOM     23  C   UNL     1       4.670   3.590  17.583  0.00  0.00    +0.000 C 
ATOM     24  C   UNL     1       3.920   2.259  17.785  0.00  0.00    +0.000 C 
ATOM     25  C   UNL     1       2.873   2.506  18.839  0.00  0.00    +0.000 A 
ATOM     26  C   UNL     1       1.609   1.918  18.758  0.00  0.00    +0.000 A 
ATOM     27  C   UNL     1       0.556   2.480  19.473  0.00  0.00    +0.000 A 
ATOM     28  C   UNL     1       0.777   3.604  20.270  0.00  0.00    +0.000 A 
ATOM     29  C   UNL     1       2.074   4.092  20.464  0.00  0.00    +0.000 A 
ATOM     30  C   UNL     1       3.146   3.513  19.783  0.00  0.00    +0.000 A 
ATOM     31  C   UNL     1       4.589   3.951  19.998  0.00  0.00    +0.000 C 
ENDBRANCH  21  22
ENDBRANCH  20  21
ENDBRANCH   3  20
TORSDOF 5
ENDMDL
MODEL 4
REMARK VINA RESULT:      -8.1      9.509     12.252
REMARK  Name = 
REMARK  6 active torsions:
REMARK  status: ('A' for Active; 'I' for Inactive)
REMARK    1  A    between atoms: C_1  and  O_2
REMARK    2  A    between atoms: O_2  and  C_3
REMARK    3  A    between atoms: C_10  and  C_11
REMARK    4  A    between atoms: N_13  and  C_14
REMARK    5  A    between atoms: C_14  and  C_15
REMARK    6  A    between atoms: C_15  and  N_16
REMARK                            x       y       z     vdW  Elec       q    Type
REMARK                         _______ _______ _______ _____ _____    ______ ____
ROOT
ATOM      1  C   UNL     1      -1.903  12.414  23.161  0.00  0.00    +0.000 C 
ATOM      2  O   UNL     1      -1.370  13.415  23.646  0.00  0.00    +0.000 OA
ATOM      3  N   UNL     1      -3.235  12.137  23.393  0.00  0.00    +0.000 N 
ATOM      4  H   UNL     1      -3.659  11.356  22.911  0.00  0.00    +0.000 HD
ENDROOT
BRANCH   1  12
ATOM      5  C   UNL     1       2.945   6.876  18.690  0.00  0.00    +0.000 A 
ATOM      6  C   UNL     1       2.813   7.804  17.663  0.00  0.00    +0.000 A 
ATOM      7  C   UNL     1       2.023   8.941  17.865  0.00  0.00    +0.000 A 
ATOM      8  C   UNL     1       1.381   9.158  19.093  0.00  0.00    +0.000 A 
ATOM      9  C   UNL     1       0.618  10.312  19.287  0.00  0.00    +0.000 A 
ATOM     10  C   UNL     1       0.016  10.535  20.538  0.00  0.00    +0.000 A 
ATOM     11  C   UNL     1      -0.765  11.612  21.050  0.00  0.00    +0.000 A 
ATOM     12  C   UNL     1      -1.147  11.445  22.368  0.00  0.00    +0.000 A 
ATOM     13  S   UNL     1      -0.578   9.942  22.972  0.00  0.00    +0.000 S 
ATOM     14  C   UNL     1       0.202   9.548  21.499  0.00  0.00    +0.000 A 
ATOM     15  N   UNL     1       0.907   8.405  21.349  0.00  0.00    +0.000 NA
ATOM     16  C   UNL     1       1.493   8.228  20.148  0.00  0.00    +0.000 A 
ATOM     17  C   UNL     1       2.280   7.101  19.911  0.00  0.00    +0.000 A 
BRANCH   5  19
ATOM     18  C   UNL     1       3.179   4.707  17.741  0.00  0.00    +0.000 C 
ATOM     19  O   UNL     1       3.676   5.721  18.610  0.00  0.00    +0.000 OA
ENDBRANCH   5  19
ENDBRANCH   1  12
BRANCH   3  20
ATOM     20  C   UNL     1      -4.061  12.959  24.268  0.00  0.00    +0.000 C 
BRANCH  20  21
ATOM     21  C   UNL     1      -4.652  14.222  23.601  0.00  0.00    +0.000 C 
BRANCH  21  22
ATOM     22  N   UNL     1      -5.643  13.976  22.542  0.00  0.00    +0.000 NA
ATOM     23  C   UNL     1      -6.413  12.748  22.810  0.00  0.00    +0.000 C 
ATOM     24  C   UNL     1      -7.531  12.622  21.756  0.00  0.00    +0.000 C 
ATOM     25  C   UNL     1      -6.856  12.344  20.438  0.00  0.00    +0.000 A 
ATOM     26  C   UNL     1      -7.413  11.464  19.508  0.00  0.00    +0.000 A 
ATOM     27  C   UNL     1      -6.595  10.907  18.531  0.00  0.00    +0.000 A 
ATOM     28  C   UNL     1      -5.242  11.245  18.480  0.00  0.00    +0.000 A 
ATOM     29  C   UNL     1      -4.728  12.240  19.317  0.00  0.00    +0.000 A 
ATOM     30  C   UNL     1      -5.548  12.837  20.278  0.00  0.00    +0.000 A 
ATOM     31  C   UNL     1      -5.071  13.971  21.175  0.00  0.00    +0.000 C 
ENDBRANCH  21  22
ENDBRANCH  20  21
ENDBRANCH   3  20
TORSDOF 5
ENDMDL
MODEL 5
REMARK VINA RESULT:      -8.1      6.794      8.384
REMARK  Name = 
REMARK  6 active torsions:
REMARK  status: ('A' for Active; 'I' for Inactive)
REMARK    1  A    between atoms: C_1  and  O_2
REMARK    2  A    between atoms: O_2  and  C_3
REMARK    3  A    between atoms: C_10  and  C_11
REMARK    4  A    between atoms: N_13  and  C_14
REMARK    5  A    between atoms: C_14  and  C_15
REMARK    6  A    between atoms: C_15  and  N_16
REMARK                            x       y       z     vdW  Elec       q    Type
REMARK                         _______ _______ _______ _____ _____    ______ ____
ROOT
ATOM      1  C   UNL     1       2.566   7.416  17.972  0.00  0.00    +0.000 C 
ATOM      2  O   UNL     1       2.080   6.314  17.707  0.00  0.00    +0.000 OA
ATOM      3  N   UNL     1       3.834   7.753  17.544  0.00  0.00    +0.000 N 
ATOM      4  H   UNL     1       4.166   8.694  17.706  0.00  0.00    +0.000 HD
ENDROOT
BRANCH   1  12
ATOM      5  C   UNL     1      -2.012  12.916  22.764  0.00  0.00    +0.000 A 
ATOM      6  C   UNL     1      -2.106  13.649  21.586  0.00  0.00    +0.000 A 
ATOM      7  C   UNL     1      -1.445  13.191  20.440  0.00  0.00    +0.000 A 
ATOM      8  C   UNL     1      -0.707  11.998  20.468  0.00  0.00    +0.000 A 
ATOM      9  C   UNL     1      -0.076  11.541  19.308  0.00  0.00    +0.000 A 
ATOM     10  C   UNL     1       0.624  10.323  19.342  0.00  0.00    +0.000 A 
ATOM     11  C   UNL     1       1.316   9.585  18.338  0.00  0.00    +0.000 A 
ATOM     12  C   UNL     1       1.855   8.395  18.794  0.00  0.00    +0.000 A 
ATOM     13  S   UNL     1       1.544   8.199  20.471  0.00  0.00    +0.000 S 
ATOM     14  C   UNL     1       0.665   9.666  20.567  0.00  0.00    +0.000 A 
ATOM     15  N   UNL     1       0.094  10.081  21.719  0.00  0.00    +0.000 NA
ATOM     16  C   UNL     1      -0.590  11.241  21.652  0.00  0.00    +0.000 A 
ATOM     17  C   UNL     1      -1.253  11.729  22.779  0.00  0.00    +0.000 A 
BRANCH   5  19
ATOM     18  C   UNL     1      -3.207  14.553  24.009  0.00  0.00    +0.000 C 
ATOM     19  O   UNL     1      -2.599  13.266  23.951  0.00  0.00    +0.000 OA
ENDBRANCH   5  19
ENDBRANCH   1  12
BRANCH   3  20
ATOM     20  C   UNL     1       4.688   6.818  16.825  0.00  0.00    +0.000 C 
BRANCH  20  21
ATOM     21  C   UNL     1       5.681   6.034  17.712  0.00  0.00    +0.000 C 
BRANCH  21  22
ATOM     22  N   UNL     1       5.204   4.729  18.198  0.00  0.00    +0.000 NA
ATOM     23  C   UNL     1       4.260   4.120  17.245  0.00  0.00    +0.000 C 
ATOM     24  C   UNL     1       3.912   2.699  17.728  0.00  0.00    +0.000 C 
ATOM     25  C   UNL     1       3.102   2.854  18.989  0.00  0.00    +0.000 A 
ATOM     26  C   UNL     1       2.029   2.008  19.272  0.00  0.00    +0.000 A 
ATOM     27  C   UNL     1       1.062   2.423  20.182  0.00  0.00    +0.000 A 
ATOM     28  C   UNL     1       1.185   3.663  20.810  0.00  0.00    +0.000 A 
ATOM     29  C   UNL     1       2.338   4.435  20.637  0.00  0.00    +0.000 A 
ATOM     30  C   UNL     1       3.335   4.012  19.755  0.00  0.00    +0.000 A 
ATOM     31  C   UNL     1       4.644   4.769  19.569  0.00  0.00    +0.000 C 
ENDBRANCH  21  22
ENDBRANCH  20  21
ENDBRANCH   3  20
TORSDOF 5
ENDMDL
MODEL 6
REMARK VINA RESULT:      -8.1      1.050      1.612
REMARK  Name = 
REMARK  6 active torsions:
REMARK  status: ('A' for Active; 'I' for Inactive)
REMARK    1  A    between atoms: C_1  and  O_2
REMARK    2  A    between atoms: O_2  and  C_3
REMARK    3  A    between atoms: C_10  and  C_11
REMARK    4  A    between atoms: N_13  and  C_14
REMARK    5  A    between atoms: C_14  and  C_15
REMARK    6  A    between atoms: C_15  and  N_16
REMARK                            x       y       z     vdW  Elec       q    Type
REMARK                         _______ _______ _______ _____ _____    ______ ____
ROOT
ATOM      1  C   UNL     1       8.007   7.938  18.052  0.00  0.00    +0.000 C 
ATOM      2  O   UNL     1       8.232   7.056  18.884  0.00  0.00    +0.000 OA
ATOM      3  N   UNL     1       7.366   7.647  16.866  0.00  0.00    +0.000 N 
ATOM      4  H   UNL     1       7.122   8.408  16.246  0.00  0.00    +0.000 HD
ENDROOT
BRANCH   1  12
ATOM      5  C   UNL     1      10.906  16.009  18.838  0.00  0.00    +0.000 A 
ATOM      6  C   UNL     1      11.749  15.467  19.801  0.00  0.00    +0.000 A 
ATOM      7  C   UNL     1      11.639  14.108  20.120  0.00  0.00    +0.000 A 
ATOM      8  C   UNL     1      10.702  13.293  19.467  0.00  0.00    +0.000 A 
ATOM      9  C   UNL     1      10.624  11.934  19.777  0.00  0.00    +0.000 A 
ATOM     10  C   UNL     1       9.709  11.123  19.084  0.00  0.00    +0.000 A 
ATOM     11  C   UNL     1       9.430   9.725  19.138  0.00  0.00    +0.000 A 
ATOM     12  C   UNL     1       8.452   9.318  18.251  0.00  0.00    +0.000 A 
ATOM     13  S   UNL     1       7.842  10.661  17.372  0.00  0.00    +0.000 S 
ATOM     14  C   UNL     1       8.907  11.759  18.143  0.00  0.00    +0.000 A 
ATOM     15  N   UNL     1       8.928  13.072  17.828  0.00  0.00    +0.000 NA
ATOM     16  C   UNL     1       9.831  13.822  18.491  0.00  0.00    +0.000 A 
ATOM     17  C   UNL     1       9.959  15.181  18.204  0.00  0.00    +0.000 A 
BRANCH   5  19
ATOM     18  C   UNL     1       9.642  17.903  18.148  0.00  0.00    +0.000 C 
ATOM     19  O   UNL     1      10.908  17.323  18.450  0.00  0.00    +0.000 OA
ENDBRANCH   5  19
ENDBRANCH   1  12
BRANCH   3  20
ATOM     20  C   UNL     1       6.984   6.290  16.498  0.00  0.00    +0.000 C 
BRANCH  20  21
ATOM     21  C   UNL     1       5.462   6.026  16.486  0.00  0.00    +0.000 C 
BRANCH  21  22
ATOM     22  N   UNL     1       4.874   5.641  17.779  0.00  0.00    +0.000 NA
ATOM     23  C   UNL     1       5.376   4.328  18.221  0.00  0.00    +0.000 C 
ATOM     24  C   UNL     1       4.848   4.045  19.641  0.00  0.00    +0.000 C 
ATOM     25  C   UNL     1       3.361   3.840  19.519  0.00  0.00    +0.000 A 
ATOM     26  C   UNL     1       2.694   2.884  20.287  0.00  0.00    +0.000 A 
ATOM     27  C   UNL     1       1.451   2.425  19.864  0.00  0.00    +0.000 A 
ATOM     28  C   UNL     1       0.881   2.933  18.696  0.00  0.00    +0.000 A 
ATOM     29  C   UNL     1       1.485   3.997  18.018  0.00  0.00    +0.000 A 
ATOM     30  C   UNL     1       2.714   4.496  18.454  0.00  0.00    +0.000 A 
ATOM     31  C   UNL     1       3.394   5.693  17.803  0.00  0.00    +0.000 C 
ENDBRANCH  21  22
ENDBRANCH  20  21
ENDBRANCH   3  20
TORSDOF 5
ENDMDL
MODEL 7
REMARK VINA RESULT:      -8.0      7.806      9.931
REMARK  Name = 
REMARK  6 active torsions:
REMARK  status: ('A' for Active; 'I' for Inactive)
REMARK    1  A    between atoms: C_1  and  O_2
REMARK    2  A    between atoms: O_2  and  C_3
REMARK    3  A    between atoms: C_10  and  C_11
REMARK    4  A    between atoms: N_13  and  C_14
REMARK    5  A    between atoms: C_14  and  C_15
REMARK    6  A    between atoms: C_15  and  N_16
REMARK                            x       y       z     vdW  Elec       q    Type
REMARK                         _______ _______ _______ _____ _____    ______ ____
ROOT
ATOM      1  C   UNL     1       1.594   7.898  20.490  0.00  0.00    +0.000 C 
ATOM      2  O   UNL     1       2.251   7.961  19.449  0.00  0.00    +0.000 OA
ATOM      3  N   UNL     1       1.600   6.756  21.264  0.00  0.00    +0.000 N 
ATOM      4  H   UNL     1       1.119   6.769  22.153  0.00  0.00    +0.000 HD
ENDROOT
BRANCH   1  12
ATOM      5  C   UNL     1      -3.814  14.066  23.113  0.00  0.00    +0.000 A 
ATOM      6  C   UNL     1      -3.915  14.362  21.758  0.00  0.00    +0.000 A 
ATOM      7  C   UNL     1      -3.143  13.640  20.841  0.00  0.00    +0.000 A 
ATOM      8  C   UNL     1      -2.287  12.617  21.274  0.00  0.00    +0.000 A 
ATOM      9  C   UNL     1      -1.543  11.888  20.342  0.00  0.00    +0.000 A 
ATOM     10  C   UNL     1      -0.722  10.839  20.789  0.00  0.00    +0.000 A 
ATOM     11  C   UNL     1       0.103   9.903  20.098  0.00  0.00    +0.000 A 
ATOM     12  C   UNL     1       0.736   8.998  20.930  0.00  0.00    +0.000 A 
ATOM     13  S   UNL     1       0.348   9.319  22.571  0.00  0.00    +0.000 S 
ATOM     14  C   UNL     1      -0.685  10.623  22.162  0.00  0.00    +0.000 A 
ATOM     15  N   UNL     1      -1.363  11.318  23.102  0.00  0.00    +0.000 NA
ATOM     16  C   UNL     1      -2.161  12.303  22.643  0.00  0.00    +0.000 A 
ATOM     17  C   UNL     1      -2.937  13.047  23.533  0.00  0.00    +0.000 A 
BRANCH   5  19
ATOM     18  C   UNL     1      -5.750  15.297  23.743  0.00  0.00    +0.000 C 
ATOM     19  O   UNL     1      -4.505  14.708  24.106  0.00  0.00    +0.000 OA
ENDBRANCH   5  19
ENDBRANCH   1  12
BRANCH   3  20
ATOM     20  C   UNL     1       2.316   5.550  20.869  0.00  0.00    +0.000 C 
BRANCH  20  21
ATOM     21  C   UNL     1       1.480   4.540  20.051  0.00  0.00    +0.000 C 
BRANCH  21  22
ATOM     22  N   UNL     1       2.081   4.100  18.781  0.00  0.00    +0.000 NA
ATOM     23  C   UNL     1       3.235   3.216  19.018  0.00  0.00    +0.000 C 
ATOM     24  C   UNL     1       3.729   2.668  17.664  0.00  0.00    +0.000 C 
ATOM     25  C   UNL     1       4.315   3.834  16.911  0.00  0.00    +0.000 A 
ATOM     26  C   UNL     1       5.456   3.688  16.120  0.00  0.00    +0.000 A 
ATOM     27  C   UNL     1       6.204   4.816  15.799  0.00  0.00    +0.000 A 
ATOM     28  C   UNL     1       5.800   6.072  16.253  0.00  0.00    +0.000 A 
ATOM     29  C   UNL     1       4.577   6.227  16.914  0.00  0.00    +0.000 A 
ATOM     30  C   UNL     1       3.796   5.108  17.208  0.00  0.00    +0.000 A 
ATOM     31  C   UNL     1       2.426   5.212  17.865  0.00  0.00    +0.000 C 
ENDBRANCH  21  22
ENDBRANCH  20  21
ENDBRANCH   3  20
TORSDOF 5
ENDMDL
MODEL 8
REMARK VINA RESULT:      -8.0      7.903     11.187
REMARK  Name = 
REMARK  6 active torsions:
REMARK  status: ('A' for Active; 'I' for Inactive)
REMARK    1  A    between atoms: C_1  and  O_2
REMARK    2  A    between atoms: O_2  and  C_3
REMARK    3  A    between atoms: C_10  and  C_11
REMARK    4  A    between atoms: N_13  and  C_14
REMARK    5  A    between atoms: C_14  and  C_15
REMARK    6  A    between atoms: C_15  and  N_16
REMARK                            x       y       z     vdW  Elec       q    Type
REMARK                         _______ _______ _______ _____ _____    ______ ____
ROOT
ATOM      1  C   UNL     1       1.153   9.544  18.221  0.00  0.00    +0.000 C 
ATOM      2  O   UNL     1       2.018   9.989  17.462  0.00  0.00    +0.000 OA
ATOM      3  N   UNL     1       1.367   8.386  18.939  0.00  0.00    +0.000 N 
ATOM      4  H   UNL     1       0.672   8.098  19.614  0.00  0.00    +0.000 HD
ENDROOT
BRANCH   1  12
ATOM      5  C   UNL     1      -6.647  13.006  19.383  0.00  0.00    +0.000 A 
ATOM      6  C   UNL     1      -7.012  12.201  18.310  0.00  0.00    +0.000 A 
ATOM      7  C   UNL     1      -6.037  11.424  17.673  0.00  0.00    +0.000 A 
ATOM      8  C   UNL     1      -4.707  11.440  18.118  0.00  0.00    +0.000 A 
ATOM      9  C   UNL     1      -3.752  10.638  17.489  0.00  0.00    +0.000 A 
ATOM     10  C   UNL     1      -2.432  10.633  17.974  0.00  0.00    +0.000 A 
ATOM     11  C   UNL     1      -1.269   9.905  17.586  0.00  0.00    +0.000 A 
ATOM     12  C   UNL     1      -0.156  10.183  18.358  0.00  0.00    +0.000 A 
ATOM     13  S   UNL     1      -0.527  11.372  19.540  0.00  0.00    +0.000 S 
ATOM     14  C   UNL     1      -2.164  11.474  19.048  0.00  0.00    +0.000 A 
ATOM     15  N   UNL     1      -3.047  12.286  19.670  0.00  0.00    +0.000 NA
ATOM     16  C   UNL     1      -4.309  12.254  19.200  0.00  0.00    +0.000 A 
ATOM     17  C   UNL     1      -5.303  13.023  19.806  0.00  0.00    +0.000 A 
BRANCH   5  19
ATOM     18  C   UNL     1      -7.777  13.459  21.427  0.00  0.00    +0.000 C 
ATOM     19  O   UNL     1      -7.503  13.819  20.076  0.00  0.00    +0.000 OA
ENDBRANCH   5  19
ENDBRANCH   1  12
BRANCH   3  20
ATOM     20  C   UNL     1       2.580   7.592  18.795  0.00  0.00    +0.000 C 
BRANCH  20  21
ATOM     21  C   UNL     1       2.479   6.151  19.342  0.00  0.00    +0.000 C 
BRANCH  21  22
ATOM     22  N   UNL     1       3.582   5.251  18.967  0.00  0.00    +0.000 NA
ATOM     23  C   UNL     1       4.889   5.848  19.290  0.00  0.00    +0.000 C 
ATOM     24  C   UNL     1       5.993   4.808  19.017  0.00  0.00    +0.000 C 
ATOM     25  C   UNL     1       6.046   4.611  17.525  0.00  0.00    +0.000 A 
ATOM     26  C   UNL     1       7.259   4.426  16.859  0.00  0.00    +0.000 A 
ATOM     27  C   UNL     1       7.324   4.675  15.492  0.00  0.00    +0.000 A 
ATOM     28  C   UNL     1       6.182   5.087  14.804  0.00  0.00    +0.000 A 
ATOM     29  C   UNL     1       4.941   5.122  15.448  0.00  0.00    +0.000 A 
ATOM     30  C   UNL     1       4.853   4.836  16.812  0.00  0.00    +0.000 A 
ATOM     31  C   UNL     1       3.527   4.791  17.559  0.00  0.00    +0.000 C 
ENDBRANCH  21  22
ENDBRANCH  20  21
ENDBRANCH   3  20
TORSDOF 5
ENDMDL
MODEL 9
REMARK VINA RESULT:      -7.9      7.517      9.399
REMARK  Name = 
REMARK  6 active torsions:
REMARK  status: ('A' for Active; 'I' for Inactive)
REMARK    1  A    between atoms: C_1  and  O_2
REMARK    2  A    between atoms: O_2  and  C_3
REMARK    3  A    between atoms: C_10  and  C_11
REMARK    4  A    between atoms: N_13  and  C_14
REMARK    5  A    between atoms: C_14  and  C_15
REMARK    6  A    between atoms: C_15  and  N_16
REMARK                            x       y       z     vdW  Elec       q    Type
REMARK                         _______ _______ _______ _____ _____    ______ ____
ROOT
ATOM      1  C   UNL     1       1.720   7.551  20.506  0.00  0.00    +0.000 C 
ATOM      2  O   UNL     1       2.628   7.600  19.673  0.00  0.00    +0.000 OA
ATOM      3  N   UNL     1       1.446   6.383  21.189  0.00  0.00    +0.000 N 
ATOM      4  H   UNL     1       0.752   6.403  21.924  0.00  0.00    +0.000 HD
ENDROOT
BRANCH   1  12
ATOM      5  C   UNL     1      -2.977  14.584  22.130  0.00  0.00    +0.000 A 
ATOM      6  C   UNL     1      -3.056  14.066  23.418  0.00  0.00    +0.000 A 
ATOM      7  C   UNL     1      -2.466  12.827  23.694  0.00  0.00    +0.000 A 
ATOM      8  C   UNL     1      -1.788  12.117  22.693  0.00  0.00    +0.000 A 
ATOM      9  C   UNL     1      -1.182  10.895  22.992  0.00  0.00    +0.000 A 
ATOM     10  C   UNL     1      -0.470  10.217  21.988  0.00  0.00    +0.000 A 
ATOM     11  C   UNL     1       0.278   9.003  21.993  0.00  0.00    +0.000 A 
ATOM     12  C   UNL     1       0.856   8.700  20.774  0.00  0.00    +0.000 A 
ATOM     13  S   UNL     1       0.447   9.889  19.604  0.00  0.00    +0.000 S 
ATOM     14  C   UNL     1      -0.453  10.813  20.732  0.00  0.00    +0.000 A 
ATOM     15  N   UNL     1      -1.045  11.978  20.388  0.00  0.00    +0.000 NA
ATOM     16  C   UNL     1      -1.701  12.618  21.377  0.00  0.00    +0.000 A 
ATOM     17  C   UNL     1      -2.306  13.851  21.132  0.00  0.00    +0.000 A 
BRANCH   5  19
ATOM     18  C   UNL     1      -3.901  16.682  22.765  0.00  0.00    +0.000 C 
ATOM     19  O   UNL     1      -3.523  15.776  21.733  0.00  0.00    +0.000 OA
ENDBRANCH   5  19
ENDBRANCH   1  12
BRANCH   3  20
ATOM     20  C   UNL     1       2.155   5.139  20.922  0.00  0.00    +0.000 C 
BRANCH  20  21
ATOM     21  C   UNL     1       1.390   4.137  20.028  0.00  0.00    +0.000 C 
BRANCH  21  22
ATOM     22  N   UNL     1       2.046   3.792  18.757  0.00  0.00    +0.000 NA
ATOM     23  C   UNL     1       3.268   3.002  18.987  0.00  0.00    +0.000 C 
ATOM     24  C   UNL     1       3.829   2.542  17.627  0.00  0.00    +0.000 C 
ATOM     25  C   UNL     1       4.324   3.777  16.921  0.00  0.00    +0.000 A 
ATOM     26  C   UNL     1       5.486   3.754  16.147  0.00  0.00    +0.000 A 
ATOM     27  C   UNL     1       6.140   4.951  15.875  0.00  0.00    +0.000 A 
ATOM     28  C   UNL     1       5.623   6.153  16.360  0.00  0.00    +0.000 A 
ATOM     29  C   UNL     1       4.381   6.183  17.002  0.00  0.00    +0.000 A 
ATOM     30  C   UNL     1       3.693   4.992  17.247  0.00  0.00    +0.000 A 
ATOM     31  C   UNL     1       2.309   4.958  17.882  0.00  0.00    +0.000 C 
ENDBRANCH  21  22
ENDBRANCH  20  21
ENDBRANCH   3  20
TORSDOF 5
ENDMDL
