MODEL 1
REMARK VINA RESULT:      -7.2      0.000      0.000
REMARK  Name = 
REMARK  14 active torsions:
REMARK  status: ('A' for Active; 'I' for Inactive)
REMARK    1  A    between atoms: C_1  and  C_2
REMARK    2  A    between atoms: C_2  and  C_3
REMARK    3  A    between atoms: C_2  and  N_4
REMARK    4  A    between atoms: N_4  and  C_5
REMARK    5  A    between atoms: C_7  and  N_8
REMARK    6  A    between atoms: C_13  and  C_14
REMARK    7  A    between atoms: C_21  and  C_22
REMARK    8  A    between atoms: N_24  and  C_25
REMARK    9  A    between atoms: C_25  and  C_26
REMARK   10  A    between atoms: C_26  and  N_27
REMARK   11  A    between atoms: C_28  and  C_30
REMARK   12  A    between atoms: C_30  and  C_31
REMARK   13  A    between atoms: C_30  and  C_32
REMARK   14  A    between atoms: C_30  and  O_33
REMARK                            x       y       z     vdW  Elec       q    Type
REMARK                         _______ _______ _______ _____ _____    ______ ____
ROOT
ATOM      1  C   UNL     1      -0.997  11.001  18.502  0.00  0.00    +0.000 A 
ATOM      2  C   UNL     1      -0.080   9.967  18.182  0.00  0.00    +0.000 A 
ATOM      3  C   UNL     1       0.747   9.466  19.167  0.00  0.00    +0.000 A 
ATOM      4  N   UNL     1       0.660   9.908  20.448  0.00  0.00    +0.000 NA
ATOM      5  C   UNL     1      -0.145  10.967  20.718  0.00  0.00    +0.000 A 
ATOM      6  C   UNL     1      -0.962  11.592  19.782  0.00  0.00    +0.000 A 
ENDROOT
BRANCH   3   7
ATOM      7  N   UNL     1       1.819   8.559  18.886  0.00  0.00    +0.000 N 
ATOM      8  C   UNL     1       2.473   8.573  17.644  0.00  0.00    +0.000 A 
ATOM      9  C   UNL     1       3.494   7.648  17.687  0.00  0.00    +0.000 A 
ATOM     10  C   UNL     1       2.837   6.645  18.460  0.00  0.00    +0.000 A 
ATOM     11  C   UNL     1       2.571   5.274  18.302  0.00  0.00    +0.000 A 
ATOM     12  C   UNL     1       1.969   4.616  19.373  0.00  0.00    +0.000 A 
ATOM     13  C   UNL     1       1.685   5.363  20.514  0.00  0.00    +0.000 A 
ATOM     14  N   UNL     1       1.676   6.730  20.603  0.00  0.00    +0.000 NA
ATOM     15  C   UNL     1       2.161   7.324  19.484  0.00  0.00    +0.000 A 
BRANCH  12  16
ATOM     16  C   UNL     1       1.605   3.233  19.276  0.00  0.00    +0.000 C 
ATOM     17  N   UNL     1       1.287   2.117  19.201  0.00  0.00    +0.000 NA
ENDBRANCH  12  16
ENDBRANCH   3   7
BRANCH   6  18
ATOM     18  C   UNL     1      -1.669  12.858  20.205  0.00  0.00    +0.000 C 
ATOM     19  O   UNL     1      -2.873  12.967  20.056  0.00  0.00    +0.000 OA
ATOM     20  N   UNL     1      -0.896  13.865  20.756  0.00  0.00    +0.000 N 
ATOM     21  H   UNL     1       0.107  13.704  20.766  0.00  0.00    +0.000 HD
BRANCH  20  22
ATOM     22  C   UNL     1      -1.398  15.175  21.194  0.00  0.00    +0.000 C 
BRANCH  22  23
ATOM     23  C   UNL     1      -1.925  15.237  22.647  0.00  0.00    +0.000 C 
BRANCH  23  24
ATOM     24  N   UNL     1      -2.888  14.182  23.022  0.00  0.00    +0.000 N 
ATOM     25  C   UNL     1      -4.265  14.332  22.926  0.00  0.00    +0.000 C 
ATOM     26  O   UNL     1      -4.758  15.319  22.381  0.00  0.00    +0.000 OA
ATOM     27  H   UNL     1      -2.529  13.421  23.590  0.00  0.00    +0.000 HD
BRANCH  25  28
ATOM     28  C   UNL     1      -5.156  13.173  23.469  0.00  0.00    +0.000 C 
ATOM     29  C   UNL     1      -4.504  12.479  24.657  0.00  0.00    +0.000 C 
ATOM     30  C   UNL     1      -6.570  13.638  23.830  0.00  0.00    +0.000 C 
BRANCH  28  31
ATOM     31  O   UNL     1      -5.327  12.172  22.452  0.00  0.00    +0.000 OA
ATOM     32  H   UNL     1      -4.844  12.499  21.669  0.00  0.00    +0.000 HD
ENDBRANCH  28  31
ENDBRANCH  25  28
ENDBRANCH  23  24
ENDBRANCH  22  23
ENDBRANCH  20  22
ENDBRANCH   6  18
BRANCH   1  33
ATOM     33  N   UNL     1      -1.853  11.529  17.516  0.00  0.00    +0.000 N 
ATOM     34  H   UNL     1      -1.296  11.908  16.742  0.00  0.00    +0.000 HD
BRANCH  33  36
ATOM     35  C   UNL     1      -4.228  11.571  17.135  0.00  0.00    +0.000 C 
ATOM     36  C   UNL     1      -2.980  10.703  17.063  0.00  0.00    +0.000 C 
ATOM     37  C   UNL     1      -2.721  10.174  15.657  0.00  0.00    +0.000 C 
ENDBRANCH  33  36
ENDBRANCH   1  33
TORSDOF 10
ENDMDL
MODEL 2
REMARK VINA RESULT:      -7.1      1.198      1.397
REMARK  Name = 
REMARK  14 active torsions:
REMARK  status: ('A' for Active; 'I' for Inactive)
REMARK    1  A    between atoms: C_1  and  C_2
REMARK    2  A    between atoms: C_2  and  C_3
REMARK    3  A    between atoms: C_2  and  N_4
REMARK    4  A    between atoms: N_4  and  C_5
REMARK    5  A    between atoms: C_7  and  N_8
REMARK    6  A    between atoms: C_13  and  C_14
REMARK    7  A    between atoms: C_21  and  C_22
REMARK    8  A    between atoms: N_24  and  C_25
REMARK    9  A    between atoms: C_25  and  C_26
REMARK   10  A    between atoms: C_26  and  N_27
REMARK   11  A    between atoms: C_28  and  C_30
REMARK   12  A    between atoms: C_30  and  C_31
REMARK   13  A    between atoms: C_30  and  C_32
REMARK   14  A    between atoms: C_30  and  O_33
REMARK                            x       y       z     vdW  Elec       q    Type
REMARK                         _______ _______ _______ _____ _____    ______ ____
ROOT
ATOM      1  C   UNL     1      -0.804  11.159  19.404  0.00  0.00    +0.000 A 
ATOM      2  C   UNL     1      -0.001  10.130  18.850  0.00  0.00    +0.000 A 
ATOM      3  C   UNL     1       0.873   9.439  19.665  0.00  0.00    +0.000 A 
ATOM      4  N   UNL     1       0.938   9.692  20.997  0.00  0.00    +0.000 NA
ATOM      5  C   UNL     1       0.244  10.747  21.495  0.00  0.00    +0.000 A 
ATOM      6  C   UNL     1      -0.606  11.552  20.745  0.00  0.00    +0.000 A 
ENDROOT
BRANCH   3   7
ATOM      7  N   UNL     1       1.844   8.520  19.151  0.00  0.00    +0.000 N 
ATOM      8  C   UNL     1       2.342   8.647  17.845  0.00  0.00    +0.000 A 
ATOM      9  C   UNL     1       3.300   7.674  17.655  0.00  0.00    +0.000 A 
ATOM     10  C   UNL     1       2.678   6.621  18.389  0.00  0.00    +0.000 A 
ATOM     11  C   UNL     1       2.307   5.293  18.116  0.00  0.00    +0.000 A 
ATOM     12  C   UNL     1       1.799   4.544  19.175  0.00  0.00    +0.000 A 
ATOM     13  C   UNL     1       1.702   5.165  20.419  0.00  0.00    +0.000 A 
ATOM     14  N   UNL     1       1.792   6.510  20.659  0.00  0.00    +0.000 NA
ATOM     15  C   UNL     1       2.176   7.207  19.560  0.00  0.00    +0.000 A 
BRANCH  12  16
ATOM     16  C   UNL     1       1.338   3.202  18.973  0.00  0.00    +0.000 C 
ATOM     17  N   UNL     1       0.963   2.117  18.785  0.00  0.00    +0.000 NA
ENDBRANCH  12  16
ENDBRANCH   3   7
BRANCH   6  18
ATOM     18  C   UNL     1      -1.174  12.783  21.412  0.00  0.00    +0.000 C 
ATOM     19  O   UNL     1      -2.329  13.112  21.210  0.00  0.00    +0.000 OA
ATOM     20  N   UNL     1      -0.333  13.501  22.243  0.00  0.00    +0.000 N 
ATOM     21  H   UNL     1       0.632  13.185  22.284  0.00  0.00    +0.000 HD
BRANCH  20  22
ATOM     22  C   UNL     1      -0.693  14.738  22.949  0.00  0.00    +0.000 C 
BRANCH  22  23
ATOM     23  C   UNL     1      -1.650  14.566  24.153  0.00  0.00    +0.000 C 
BRANCH  23  24
ATOM     24  N   UNL     1      -3.070  14.876  23.888  0.00  0.00    +0.000 N 
ATOM     25  C   UNL     1      -4.103  13.971  24.092  0.00  0.00    +0.000 C 
ATOM     26  O   UNL     1      -3.899  12.890  24.644  0.00  0.00    +0.000 OA
ATOM     27  H   UNL     1      -3.257  15.694  23.317  0.00  0.00    +0.000 HD
BRANCH  25  28
ATOM     28  C   UNL     1      -5.537  14.404  23.657  0.00  0.00    +0.000 C 
ATOM     29  C   UNL     1      -5.788  15.876  23.956  0.00  0.00    +0.000 C 
ATOM     30  C   UNL     1      -5.822  14.100  22.183  0.00  0.00    +0.000 C 
BRANCH  28  31
ATOM     31  O   UNL     1      -6.517  13.661  24.401  0.00  0.00    +0.000 OA
ATOM     32  H   UNL     1      -6.084  12.823  24.653  0.00  0.00    +0.000 HD
ENDBRANCH  28  31
ENDBRANCH  25  28
ENDBRANCH  23  24
ENDBRANCH  22  23
ENDBRANCH  20  22
ENDBRANCH   6  18
BRANCH   1  33
ATOM     33  N   UNL     1      -1.705  11.879  18.595  0.00  0.00    +0.000 N 
ATOM     34  H   UNL     1      -1.183  12.448  17.919  0.00  0.00    +0.000 HD
BRANCH  33  36
ATOM     35  C   UNL     1      -4.107  11.776  18.518  0.00  0.00    +0.000 C 
ATOM     36  C   UNL     1      -2.825  11.149  17.989  0.00  0.00    +0.000 C 
ATOM     37  C   UNL     1      -2.737  11.205  16.468  0.00  0.00    +0.000 C 
ENDBRANCH  33  36
ENDBRANCH   1  33
TORSDOF 10
ENDMDL
MODEL 3
REMARK VINA RESULT:      -7.1      4.541      9.987
REMARK  Name = 
REMARK  14 active torsions:
REMARK  status: ('A' for Active; 'I' for Inactive)
REMARK    1  A    between atoms: C_1  and  C_2
REMARK    2  A    between atoms: C_2  and  C_3
REMARK    3  A    between atoms: C_2  and  N_4
REMARK    4  A    between atoms: N_4  and  C_5
REMARK    5  A    between atoms: C_7  and  N_8
REMARK    6  A    between atoms: C_13  and  C_14
REMARK    7  A    between atoms: C_21  and  C_22
REMARK    8  A    between atoms: N_24  and  C_25
REMARK    9  A    between atoms: C_25  and  C_26
REMARK   10  A    between atoms: C_26  and  N_27
REMARK   11  A    between atoms: C_28  and  C_30
REMARK   12  A    between atoms: C_30  and  C_31
REMARK   13  A    between atoms: C_30  and  C_32
REMARK   14  A    between atoms: C_30  and  O_33
REMARK                            x       y       z     vdW  Elec       q    Type
REMARK                         _______ _______ _______ _____ _____    ______ ____
ROOT
ATOM      1  C   UNL     1       2.198   7.413  19.734  0.00  0.00    +0.000 A 
ATOM      2  C   UNL     1       1.326   8.509  19.957  0.00  0.00    +0.000 A 
ATOM      3  C   UNL     1       1.132   9.437  18.954  0.00  0.00    +0.000 A 
ATOM      4  N   UNL     1       1.721   9.290  17.740  0.00  0.00    +0.000 NA
ATOM      5  C   UNL     1       2.633   8.297  17.573  0.00  0.00    +0.000 A 
ATOM      6  C   UNL     1       2.954   7.356  18.545  0.00  0.00    +0.000 A 
ENDROOT
BRANCH   3   7
ATOM      7  N   UNL     1       0.419  10.661  19.162  0.00  0.00    +0.000 N 
ATOM      8  C   UNL     1       0.475  11.332  20.394  0.00  0.00    +0.000 A 
ATOM      9  C   UNL     1      -0.247  12.501  20.279  0.00  0.00    +0.000 A 
ATOM     10  C   UNL     1      -1.302  12.015  19.452  0.00  0.00    +0.000 A 
ATOM     11  C   UNL     1      -2.706  12.003  19.525  0.00  0.00    +0.000 A 
ATOM     12  C   UNL     1      -3.395  11.504  18.422  0.00  0.00    +0.000 A 
ATOM     13  C   UNL     1      -2.644  11.063  17.335  0.00  0.00    +0.000 A 
ATOM     14  N   UNL     1      -1.298  10.807  17.333  0.00  0.00    +0.000 NA
ATOM     15  C   UNL     1      -0.695  11.205  18.482  0.00  0.00    +0.000 A 
BRANCH  12  16
ATOM     16  C   UNL     1      -4.825  11.397  18.434  0.00  0.00    +0.000 C 
ATOM     17  N   UNL     1      -5.984  11.306  18.420  0.00  0.00    +0.000 NA
ENDBRANCH  12  16
ENDBRANCH   3   7
BRANCH   6  18
ATOM     18  C   UNL     1       4.107   6.422  18.259  0.00  0.00    +0.000 C 
ATOM     19  O   UNL     1       4.581   5.743  19.152  0.00  0.00    +0.000 OA
ATOM     20  N   UNL     1       4.587   6.381  16.962  0.00  0.00    +0.000 N 
ATOM     21  H   UNL     1       4.172   7.042  16.311  0.00  0.00    +0.000 HD
BRANCH  20  22
ATOM     22  C   UNL     1       5.718   5.564  16.502  0.00  0.00    +0.000 C 
BRANCH  22  23
ATOM     23  C   UNL     1       5.355   4.152  15.984  0.00  0.00    +0.000 C 
BRANCH  23  24
ATOM     24  N   UNL     1       5.032   3.153  17.024  0.00  0.00    +0.000 N 
ATOM     25  C   UNL     1       3.745   2.917  17.485  0.00  0.00    +0.000 C 
ATOM     26  O   UNL     1       2.771   3.439  16.943  0.00  0.00    +0.000 OA
ATOM     27  H   UNL     1       5.810   2.808  17.577  0.00  0.00    +0.000 HD
BRANCH  25  28
ATOM     28  C   UNL     1       3.576   1.915  18.668  0.00  0.00    +0.000 C 
ATOM     29  C   UNL     1       4.451   2.300  19.854  0.00  0.00    +0.000 C 
ATOM     30  C   UNL     1       2.116   1.763  19.107  0.00  0.00    +0.000 C 
BRANCH  28  31
ATOM     31  O   UNL     1       3.994   0.602  18.259  0.00  0.00    +0.000 OA
ATOM     32  H   UNL     1       4.617   0.738  17.520  0.00  0.00    +0.000 HD
ENDBRANCH  28  31
ENDBRANCH  25  28
ENDBRANCH  23  24
ENDBRANCH  22  23
ENDBRANCH  20  22
ENDBRANCH   6  18
BRANCH   1  33
ATOM     33  N   UNL     1       2.412   6.451  20.741  0.00  0.00    +0.000 N 
ATOM     34  H   UNL     1       2.055   6.804  21.636  0.00  0.00    +0.000 HD
BRANCH  33  36
ATOM     35  C   UNL     1       2.428   4.234  21.675  0.00  0.00    +0.000 C 
ATOM     36  C   UNL     1       2.013   5.065  20.468  0.00  0.00    +0.000 C 
ATOM     37  C   UNL     1       0.515   4.985  20.198  0.00  0.00    +0.000 C 
ENDBRANCH  33  36
ENDBRANCH   1  33
TORSDOF 10
ENDMDL
MODEL 4
REMARK VINA RESULT:      -7.0      2.727      4.533
REMARK  Name = 
REMARK  14 active torsions:
REMARK  status: ('A' for Active; 'I' for Inactive)
REMARK    1  A    between atoms: C_1  and  C_2
REMARK    2  A    between atoms: C_2  and  C_3
REMARK    3  A    between atoms: C_2  and  N_4
REMARK    4  A    between atoms: N_4  and  C_5
REMARK    5  A    between atoms: C_7  and  N_8
REMARK    6  A    between atoms: C_13  and  C_14
REMARK    7  A    between atoms: C_21  and  C_22
REMARK    8  A    between atoms: N_24  and  C_25
REMARK    9  A    between atoms: C_25  and  C_26
REMARK   10  A    between atoms: C_26  and  N_27
REMARK   11  A    between atoms: C_28  and  C_30
REMARK   12  A    between atoms: C_30  and  C_31
REMARK   13  A    between atoms: C_30  and  C_32
REMARK   14  A    between atoms: C_30  and  O_33
REMARK                            x       y       z     vdW  Elec       q    Type
REMARK                         _______ _______ _______ _____ _____    ______ ____
ROOT
ATOM      1  C   UNL     1      -0.581  10.733  18.380  0.00  0.00    +0.000 A 
ATOM      2  C   UNL     1       0.269   9.633  18.099  0.00  0.00    +0.000 A 
ATOM      3  C   UNL     1       1.144   9.186  19.068  0.00  0.00    +0.000 A 
ATOM      4  N   UNL     1       1.166   9.748  20.305  0.00  0.00    +0.000 NA
ATOM      5  C   UNL     1       0.424  10.863  20.527  0.00  0.00    +0.000 A 
ATOM      6  C   UNL     1      -0.431  11.436  19.594  0.00  0.00    +0.000 A 
ENDROOT
BRANCH   3   7
ATOM      7  N   UNL     1       2.156   8.209  18.804  0.00  0.00    +0.000 N 
ATOM      8  C   UNL     1       2.866   8.212  17.593  0.00  0.00    +0.000 A 
ATOM      9  C   UNL     1       3.812   7.210  17.647  0.00  0.00    +0.000 A 
ATOM     10  C   UNL     1       3.046   6.237  18.355  0.00  0.00    +0.000 A 
ATOM     11  C   UNL     1       2.685   4.896  18.139  0.00  0.00    +0.000 A 
ATOM     12  C   UNL     1       1.987   4.253  19.159  0.00  0.00    +0.000 A 
ATOM     13  C   UNL     1       1.707   4.984  20.311  0.00  0.00    +0.000 A 
ATOM     14  N   UNL     1       1.797   6.343  20.448  0.00  0.00    +0.000 NA
ATOM     15  C   UNL     1       2.377   6.933  19.372  0.00  0.00    +0.000 A 
BRANCH  12  16
ATOM     16  C   UNL     1       1.525   2.905  18.998  0.00  0.00    +0.000 C 
ATOM     17  N   UNL     1       1.165   1.810  18.849  0.00  0.00    +0.000 NA
ENDBRANCH  12  16
ENDBRANCH   3   7
BRANCH   6  18
ATOM     18  C   UNL     1      -1.056  12.767  19.942  0.00  0.00    +0.000 C 
ATOM     19  O   UNL     1      -2.246  12.952  19.759  0.00  0.00    +0.000 OA
ATOM     20  N   UNL     1      -0.226  13.743  20.464  0.00  0.00    +0.000 N 
ATOM     21  H   UNL     1       0.763  13.512  20.505  0.00  0.00    +0.000 HD
BRANCH  20  22
ATOM     22  C   UNL     1      -0.642  15.103  20.830  0.00  0.00    +0.000 C 
BRANCH  22  23
ATOM     23  C   UNL     1      -0.321  16.203  19.789  0.00  0.00    +0.000 C 
BRANCH  23  24
ATOM     24  N   UNL     1       0.804  15.909  18.877  0.00  0.00    +0.000 N 
ATOM     25  C   UNL     1       2.117  16.276  19.138  0.00  0.00    +0.000 C 
ATOM     26  O   UNL     1       2.439  16.750  20.227  0.00  0.00    +0.000 OA
ATOM     27  H   UNL     1       0.560  15.645  17.928  0.00  0.00    +0.000 HD
BRANCH  25  28
ATOM     28  C   UNL     1       3.176  16.000  18.027  0.00  0.00    +0.000 C 
ATOM     29  C   UNL     1       2.967  16.906  16.820  0.00  0.00    +0.000 C 
ATOM     30  C   UNL     1       4.614  16.117  18.542  0.00  0.00    +0.000 C 
BRANCH  28  31
ATOM     31  O   UNL     1       3.045  14.649  17.552  0.00  0.00    +0.000 OA
ATOM     32  H   UNL     1       3.088  14.701  16.579  0.00  0.00    +0.000 HD
ENDBRANCH  28  31
ENDBRANCH  25  28
ENDBRANCH  23  24
ENDBRANCH  22  23
ENDBRANCH  20  22
ENDBRANCH   6  18
BRANCH   1  33
ATOM     33  N   UNL     1      -1.484  11.207  17.408  0.00  0.00    +0.000 N 
ATOM     34  H   UNL     1      -1.001  11.857  16.777  0.00  0.00    +0.000 HD
BRANCH  33  36
ATOM     35  C   UNL     1      -3.415   9.795  17.660  0.00  0.00    +0.000 C 
ATOM     36  C   UNL     1      -2.315  10.227  16.700  0.00  0.00    +0.000 C 
ATOM     37  C   UNL     1      -2.873  10.831  15.415  0.00  0.00    +0.000 C 
ENDBRANCH  33  36
ENDBRANCH   1  33
TORSDOF 10
ENDMDL
MODEL 5
REMARK VINA RESULT:      -7.0      1.589      3.141
REMARK  Name = 
REMARK  14 active torsions:
REMARK  status: ('A' for Active; 'I' for Inactive)
REMARK    1  A    between atoms: C_1  and  C_2
REMARK    2  A    between atoms: C_2  and  C_3
REMARK    3  A    between atoms: C_2  and  N_4
REMARK    4  A    between atoms: N_4  and  C_5
REMARK    5  A    between atoms: C_7  and  N_8
REMARK    6  A    between atoms: C_13  and  C_14
REMARK    7  A    between atoms: C_21  and  C_22
REMARK    8  A    between atoms: N_24  and  C_25
REMARK    9  A    between atoms: C_25  and  C_26
REMARK   10  A    between atoms: C_26  and  N_27
REMARK   11  A    between atoms: C_28  and  C_30
REMARK   12  A    between atoms: C_30  and  C_31
REMARK   13  A    between atoms: C_30  and  C_32
REMARK   14  A    between atoms: C_30  and  O_33
REMARK                            x       y       z     vdW  Elec       q    Type
REMARK                         _______ _______ _______ _____ _____    ______ ____
ROOT
ATOM      1  C   UNL     1       0.248  10.676  20.403  0.00  0.00    +0.000 A 
ATOM      2  C   UNL     1       1.249   9.685  20.242  0.00  0.00    +0.000 A 
ATOM      3  C   UNL     1       1.495   9.166  18.987  0.00  0.00    +0.000 A 
ATOM      4  N   UNL     1       0.830   9.627  17.896  0.00  0.00    +0.000 NA
ATOM      5  C   UNL     1      -0.195  10.497  18.077  0.00  0.00    +0.000 A 
ATOM      6  C   UNL     1      -0.571  11.023  19.308  0.00  0.00    +0.000 A 
ENDROOT
BRANCH   3   7
ATOM      7  N   UNL     1       2.353   8.040  18.771  0.00  0.00    +0.000 N 
ATOM      8  C   UNL     1       3.087   7.906  17.582  0.00  0.00    +0.000 A 
ATOM      9  C   UNL     1       3.866   6.773  17.684  0.00  0.00    +0.000 A 
ATOM     10  C   UNL     1       2.941   5.945  18.388  0.00  0.00    +0.000 A 
ATOM     11  C   UNL     1       2.385   4.671  18.186  0.00  0.00    +0.000 A 
ATOM     12  C   UNL     1       1.569   4.166  19.197  0.00  0.00    +0.000 A 
ATOM     13  C   UNL     1       1.374   4.957  20.326  0.00  0.00    +0.000 A 
ATOM     14  N   UNL     1       1.668   6.290  20.439  0.00  0.00    +0.000 NA
ATOM     15  C   UNL     1       2.360   6.759  19.370  0.00  0.00    +0.000 A 
BRANCH  12  16
ATOM     16  C   UNL     1       0.911   2.901  19.048  0.00  0.00    +0.000 C 
ATOM     17  N   UNL     1       0.376   1.873  18.951  0.00  0.00    +0.000 NA
ENDBRANCH  12  16
ENDBRANCH   3   7
BRANCH   6  18
ATOM     18  C   UNL     1      -1.836  11.847  19.360  0.00  0.00    +0.000 C 
ATOM     19  O   UNL     1      -1.851  12.910  19.954  0.00  0.00    +0.000 OA
ATOM     20  N   UNL     1      -2.952  11.344  18.714  0.00  0.00    +0.000 N 
ATOM     21  H   UNL     1      -2.854  10.415  18.314  0.00  0.00    +0.000 HD
BRANCH  20  22
ATOM     22  C   UNL     1      -4.274  11.983  18.684  0.00  0.00    +0.000 C 
BRANCH  22  23
ATOM     23  C   UNL     1      -5.052  11.972  20.021  0.00  0.00    +0.000 C 
BRANCH  23  24
ATOM     24  N   UNL     1      -4.704  13.049  20.971  0.00  0.00    +0.000 N 
ATOM     25  C   UNL     1      -5.186  13.109  22.271  0.00  0.00    +0.000 C 
ATOM     26  O   UNL     1      -5.830  12.177  22.752  0.00  0.00    +0.000 OA
ATOM     27  H   UNL     1      -4.292  13.888  20.574  0.00  0.00    +0.000 HD
BRANCH  25  28
ATOM     28  C   UNL     1      -4.822  14.368  23.117  0.00  0.00    +0.000 C 
ATOM     29  C   UNL     1      -3.436  14.893  22.766  0.00  0.00    +0.000 C 
ATOM     30  C   UNL     1      -5.865  15.483  22.991  0.00  0.00    +0.000 C 
BRANCH  28  31
ATOM     31  O   UNL     1      -4.790  14.024  24.512  0.00  0.00    +0.000 OA
ATOM     32  H   UNL     1      -3.859  13.816  24.716  0.00  0.00    +0.000 HD
ENDBRANCH  28  31
ENDBRANCH  25  28
ENDBRANCH  23  24
ENDBRANCH  22  23
ENDBRANCH  20  22
ENDBRANCH   6  18
BRANCH   1  33
ATOM     33  N   UNL     1      -0.021  11.223  21.673  0.00  0.00    +0.000 N 
ATOM     34  H   UNL     1      -0.216  12.227  21.582  0.00  0.00    +0.000 HD
BRANCH  33  36
ATOM     35  C   UNL     1      -0.175   9.656  23.492  0.00  0.00    +0.000 C 
ATOM     36  C   UNL     1      -0.981  10.526  22.537  0.00  0.00    +0.000 C 
ATOM     37  C   UNL     1      -1.863  11.529  23.272  0.00  0.00    +0.000 C 
ENDBRANCH  33  36
ENDBRANCH   1  33
TORSDOF 10
ENDMDL
MODEL 6
REMARK VINA RESULT:      -6.9      1.179      1.532
REMARK  Name = 
REMARK  14 active torsions:
REMARK  status: ('A' for Active; 'I' for Inactive)
REMARK    1  A    between atoms: C_1  and  C_2
REMARK    2  A    between atoms: C_2  and  C_3
REMARK    3  A    between atoms: C_2  and  N_4
REMARK    4  A    between atoms: N_4  and  C_5
REMARK    5  A    between atoms: C_7  and  N_8
REMARK    6  A    between atoms: C_13  and  C_14
REMARK    7  A    between atoms: C_21  and  C_22
REMARK    8  A    between atoms: N_24  and  C_25
REMARK    9  A    between atoms: C_25  and  C_26
REMARK   10  A    between atoms: C_26  and  N_27
REMARK   11  A    between atoms: C_28  and  C_30
REMARK   12  A    between atoms: C_30  and  C_31
REMARK   13  A    between atoms: C_30  and  C_32
REMARK   14  A    between atoms: C_30  and  O_33
REMARK                            x       y       z     vdW  Elec       q    Type
REMARK                         _______ _______ _______ _____ _____    ______ ____
ROOT
ATOM      1  C   UNL     1      -0.608  11.078  19.233  0.00  0.00    +0.000 A 
ATOM      2  C   UNL     1       0.157   9.991  18.737  0.00  0.00    +0.000 A 
ATOM      3  C   UNL     1       1.012   9.320  19.587  0.00  0.00    +0.000 A 
ATOM      4  N   UNL     1       1.094   9.649  20.902  0.00  0.00    +0.000 NA
ATOM      5  C   UNL     1       0.438  10.753  21.340  0.00  0.00    +0.000 A 
ATOM      6  C   UNL     1      -0.389  11.541  20.548  0.00  0.00    +0.000 A 
ENDROOT
BRANCH   3   7
ATOM      7  N   UNL     1       1.948   8.340  19.124  0.00  0.00    +0.000 N 
ATOM      8  C   UNL     1       2.542   8.447  17.857  0.00  0.00    +0.000 A 
ATOM      9  C   UNL     1       3.439   7.410  17.715  0.00  0.00    +0.000 A 
ATOM     10  C   UNL     1       2.696   6.396  18.388  0.00  0.00    +0.000 A 
ATOM     11  C   UNL     1       2.252   5.101  18.068  0.00  0.00    +0.000 A 
ATOM     12  C   UNL     1       1.621   4.378  19.079  0.00  0.00    +0.000 A 
ATOM     13  C   UNL     1       1.485   4.989  20.323  0.00  0.00    +0.000 A 
ATOM     14  N   UNL     1       1.653   6.321  20.591  0.00  0.00    +0.000 NA
ATOM     15  C   UNL     1       2.158   7.003  19.532  0.00  0.00    +0.000 A 
BRANCH  12  16
ATOM     16  C   UNL     1       1.082   3.074  18.824  0.00  0.00    +0.000 C 
ATOM     17  N   UNL     1       0.650   2.020  18.593  0.00  0.00    +0.000 NA
ENDBRANCH  12  16
ENDBRANCH   3   7
BRANCH   6  18
ATOM     18  C   UNL     1      -0.911  12.827  21.144  0.00  0.00    +0.000 C 
ATOM     19  O   UNL     1      -0.853  13.865  20.509  0.00  0.00    +0.000 OA
ATOM     20  N   UNL     1      -1.444  12.768  22.420  0.00  0.00    +0.000 N 
ATOM     21  H   UNL     1      -1.375  11.870  22.891  0.00  0.00    +0.000 HD
BRANCH  20  22
ATOM     22  C   UNL     1      -1.967  13.915  23.173  0.00  0.00    +0.000 C 
BRANCH  22  23
ATOM     23  C   UNL     1      -2.903  13.567  24.355  0.00  0.00    +0.000 C 
BRANCH  23  24
ATOM     24  N   UNL     1      -4.270  14.124  24.272  0.00  0.00    +0.000 N 
ATOM     25  C   UNL     1      -5.296  13.530  23.550  0.00  0.00    +0.000 C 
ATOM     26  O   UNL     1      -5.155  12.416  23.046  0.00  0.00    +0.000 OA
ATOM     27  H   UNL     1      -4.383  15.091  24.557  0.00  0.00    +0.000 HD
BRANCH  25  28
ATOM     28  C   UNL     1      -6.651  14.297  23.461  0.00  0.00    +0.000 C 
ATOM     29  C   UNL     1      -7.725  13.630  24.310  0.00  0.00    +0.000 C 
ATOM     30  C   UNL     1      -6.516  15.776  23.833  0.00  0.00    +0.000 C 
BRANCH  28  31
ATOM     31  O   UNL     1      -7.132  14.282  22.106  0.00  0.00    +0.000 OA
ATOM     32  H   UNL     1      -7.894  14.891  22.085  0.00  0.00    +0.000 HD
ENDBRANCH  28  31
ENDBRANCH  25  28
ENDBRANCH  23  24
ENDBRANCH  22  23
ENDBRANCH  20  22
ENDBRANCH   6  18
BRANCH   1  33
ATOM     33  N   UNL     1      -1.490  11.778  18.387  0.00  0.00    +0.000 N 
ATOM     34  H   UNL     1      -0.964  12.201  17.615  0.00  0.00    +0.000 HD
BRANCH  33  36
ATOM     35  C   UNL     1      -3.886  11.809  18.605  0.00  0.00    +0.000 C 
ATOM     36  C   UNL     1      -2.713  11.097  17.946  0.00  0.00    +0.000 C 
ATOM     37  C   UNL     1      -2.809  11.108  16.424  0.00  0.00    +0.000 C 
ENDBRANCH  33  36
ENDBRANCH   1  33
TORSDOF 10
ENDMDL
MODEL 7
REMARK VINA RESULT:      -6.9      1.180      1.363
REMARK  Name = 
REMARK  14 active torsions:
REMARK  status: ('A' for Active; 'I' for Inactive)
REMARK    1  A    between atoms: C_1  and  C_2
REMARK    2  A    between atoms: C_2  and  C_3
REMARK    3  A    between atoms: C_2  and  N_4
REMARK    4  A    between atoms: N_4  and  C_5
REMARK    5  A    between atoms: C_7  and  N_8
REMARK    6  A    between atoms: C_13  and  C_14
REMARK    7  A    between atoms: C_21  and  C_22
REMARK    8  A    between atoms: N_24  and  C_25
REMARK    9  A    between atoms: C_25  and  C_26
REMARK   10  A    between atoms: C_26  and  N_27
REMARK   11  A    between atoms: C_28  and  C_30
REMARK   12  A    between atoms: C_30  and  C_31
REMARK   13  A    between atoms: C_30  and  C_32
REMARK   14  A    between atoms: C_30  and  O_33
REMARK                            x       y       z     vdW  Elec       q    Type
REMARK                         _______ _______ _______ _____ _____    ______ ____
ROOT
ATOM      1  C   UNL     1      -0.709  10.729  18.280  0.00  0.00    +0.000 A 
ATOM      2  C   UNL     1       0.189   9.659  18.038  0.00  0.00    +0.000 A 
ATOM      3  C   UNL     1       1.022   9.229  19.051  0.00  0.00    +0.000 A 
ATOM      4  N   UNL     1       0.958   9.779  20.290  0.00  0.00    +0.000 NA
ATOM      5  C   UNL     1       0.172  10.869  20.481  0.00  0.00    +0.000 A 
ATOM      6  C   UNL     1      -0.648  11.425  19.506  0.00  0.00    +0.000 A 
ENDROOT
BRANCH   3   7
ATOM      7  N   UNL     1       2.077   8.286  18.834  0.00  0.00    +0.000 N 
ATOM      8  C   UNL     1       2.788   8.258  17.624  0.00  0.00    +0.000 A 
ATOM      9  C   UNL     1       3.776   7.303  17.728  0.00  0.00    +0.000 A 
ATOM     10  C   UNL     1       3.053   6.335  18.486  0.00  0.00    +0.000 A 
ATOM     11  C   UNL     1       2.752   4.970  18.337  0.00  0.00    +0.000 A 
ATOM     12  C   UNL     1       2.082   4.349  19.389  0.00  0.00    +0.000 A 
ATOM     13  C   UNL     1       1.768   5.124  20.504  0.00  0.00    +0.000 A 
ATOM     14  N   UNL     1       1.799   6.491  20.571  0.00  0.00    +0.000 NA
ATOM     15  C   UNL     1       2.353   7.051  19.466  0.00  0.00    +0.000 A 
BRANCH  12  16
ATOM     16  C   UNL     1       1.680   2.976  19.297  0.00  0.00    +0.000 C 
ATOM     17  N   UNL     1       1.340   1.865  19.242  0.00  0.00    +0.000 NA
ENDBRANCH  12  16
ENDBRANCH   3   7
BRANCH   6  18
ATOM     18  C   UNL     1      -1.331  12.733  19.829  0.00  0.00    +0.000 C 
ATOM     19  O   UNL     1      -2.534  12.767  20.018  0.00  0.00    +0.000 OA
ATOM     20  N   UNL     1      -0.539  13.866  19.896  0.00  0.00    +0.000 N 
ATOM     21  H   UNL     1       0.439  13.742  19.647  0.00  0.00    +0.000 HD
BRANCH  20  22
ATOM     22  C   UNL     1      -1.025  15.226  20.163  0.00  0.00    +0.000 C 
BRANCH  22  23
ATOM     23  C   UNL     1      -0.823  15.736  21.610  0.00  0.00    +0.000 C 
BRANCH  23  24
ATOM     24  N   UNL     1      -1.600  15.031  22.650  0.00  0.00    +0.000 N 
ATOM     25  C   UNL     1      -2.840  15.461  23.103  0.00  0.00    +0.000 C 
ATOM     26  O   UNL     1      -3.428  16.391  22.553  0.00  0.00    +0.000 OA
ATOM     27  H   UNL     1      -1.095  14.351  23.209  0.00  0.00    +0.000 HD
BRANCH  25  28
ATOM     28  C   UNL     1      -3.485  14.678  24.287  0.00  0.00    +0.000 C 
ATOM     29  C   UNL     1      -3.545  13.183  24.000  0.00  0.00    +0.000 C 
ATOM     30  C   UNL     1      -2.778  14.939  25.621  0.00  0.00    +0.000 C 
BRANCH  28  31
ATOM     31  O   UNL     1      -4.842  15.113  24.478  0.00  0.00    +0.000 OA
ATOM     32  H   UNL     1      -5.403  14.345  24.261  0.00  0.00    +0.000 HD
ENDBRANCH  28  31
ENDBRANCH  25  28
ENDBRANCH  23  24
ENDBRANCH  22  23
ENDBRANCH  20  22
ENDBRANCH   6  18
BRANCH   1  33
ATOM     33  N   UNL     1      -1.571  11.186  17.264  0.00  0.00    +0.000 N 
ATOM     34  H   UNL     1      -1.042  11.756  16.594  0.00  0.00    +0.000 HD
BRANCH  33  36
ATOM     35  C   UNL     1      -3.531   9.841  17.627  0.00  0.00    +0.000 C 
ATOM     36  C   UNL     1      -2.455  10.209  16.616  0.00  0.00    +0.000 C 
ATOM     37  C   UNL     1      -3.040  10.789  15.333  0.00  0.00    +0.000 C 
ENDBRANCH  33  36
ENDBRANCH   1  33
TORSDOF 10
ENDMDL
MODEL 8
REMARK VINA RESULT:      -6.9      5.099     10.347
REMARK  Name = 
REMARK  14 active torsions:
REMARK  status: ('A' for Active; 'I' for Inactive)
REMARK    1  A    between atoms: C_1  and  C_2
REMARK    2  A    between atoms: C_2  and  C_3
REMARK    3  A    between atoms: C_2  and  N_4
REMARK    4  A    between atoms: N_4  and  C_5
REMARK    5  A    between atoms: C_7  and  N_8
REMARK    6  A    between atoms: C_13  and  C_14
REMARK    7  A    between atoms: C_21  and  C_22
REMARK    8  A    between atoms: N_24  and  C_25
REMARK    9  A    between atoms: C_25  and  C_26
REMARK   10  A    between atoms: C_26  and  N_27
REMARK   11  A    between atoms: C_28  and  C_30
REMARK   12  A    between atoms: C_30  and  C_31
REMARK   13  A    between atoms: C_30  and  C_32
REMARK   14  A    between atoms: C_30  and  O_33
REMARK                            x       y       z     vdW  Elec       q    Type
REMARK                         _______ _______ _______ _____ _____    ______ ____
ROOT
ATOM      1  C   UNL     1       2.481   6.268  19.924  0.00  0.00    +0.000 A 
ATOM      2  C   UNL     1       1.648   7.416  19.908  0.00  0.00    +0.000 A 
ATOM      3  C   UNL     1       1.835   8.377  18.936  0.00  0.00    +0.000 A 
ATOM      4  N   UNL     1       2.769   8.216  17.962  0.00  0.00    +0.000 NA
ATOM      5  C   UNL     1       3.626   7.168  18.048  0.00  0.00    +0.000 A 
ATOM      6  C   UNL     1       3.570   6.185  19.030  0.00  0.00    +0.000 A 
ENDROOT
BRANCH   3   7
ATOM      7  N   UNL     1       1.165   9.642  18.961  0.00  0.00    +0.000 N 
ATOM      8  C   UNL     1       1.239  10.478  20.086  0.00  0.00    +0.000 A 
ATOM      9  C   UNL     1       0.560  11.643  19.800  0.00  0.00    +0.000 A 
ATOM     10  C   UNL     1      -0.508  11.083  19.039  0.00  0.00    +0.000 A 
ATOM     11  C   UNL     1      -1.911  11.130  19.098  0.00  0.00    +0.000 A 
ATOM     12  C   UNL     1      -2.612  10.503  18.069  0.00  0.00    +0.000 A 
ATOM     13  C   UNL     1      -1.871   9.887  17.064  0.00  0.00    +0.000 A 
ATOM     14  N   UNL     1      -0.536   9.587  17.112  0.00  0.00    +0.000 NA
ATOM     15  C   UNL     1       0.075  10.122  18.200  0.00  0.00    +0.000 A 
BRANCH  12  16
ATOM     16  C   UNL     1      -4.045  10.448  18.082  0.00  0.00    +0.000 C 
ATOM     17  N   UNL     1      -5.205  10.381  18.098  0.00  0.00    +0.000 NA
ENDBRANCH  12  16
ENDBRANCH   3   7
BRANCH   6  18
ATOM     18  C   UNL     1       4.697   5.181  19.082  0.00  0.00    +0.000 C 
ATOM     19  O   UNL     1       4.491   4.013  18.805  0.00  0.00    +0.000 OA
ATOM     20  N   UNL     1       5.947   5.645  19.453  0.00  0.00    +0.000 N 
ATOM     21  H   UNL     1       5.995   6.620  19.737  0.00  0.00    +0.000 HD
BRANCH  20  22
ATOM     22  C   UNL     1       7.152   4.817  19.592  0.00  0.00    +0.000 C 
BRANCH  22  23
ATOM     23  C   UNL     1       7.987   4.631  18.302  0.00  0.00    +0.000 C 
BRANCH  23  24
ATOM     24  N   UNL     1       7.209   4.460  17.057  0.00  0.00    +0.000 N 
ATOM     25  C   UNL     1       6.938   5.498  16.176  0.00  0.00    +0.000 C 
ATOM     26  O   UNL     1       7.459   6.604  16.318  0.00  0.00    +0.000 OA
ATOM     27  H   UNL     1       6.661   3.610  16.978  0.00  0.00    +0.000 HD
BRANCH  25  28
ATOM     28  C   UNL     1       6.007   5.189  14.964  0.00  0.00    +0.000 C 
ATOM     29  C   UNL     1       6.802   4.695  13.762  0.00  0.00    +0.000 C 
ATOM     30  C   UNL     1       4.895   4.195  15.315  0.00  0.00    +0.000 C 
BRANCH  28  31
ATOM     31  O   UNL     1       5.335   6.389  14.547  0.00  0.00    +0.000 OA
ATOM     32  H   UNL     1       5.019   6.817  15.365  0.00  0.00    +0.000 HD
ENDBRANCH  28  31
ENDBRANCH  25  28
ENDBRANCH  23  24
ENDBRANCH  22  23
ENDBRANCH  20  22
ENDBRANCH   6  18
BRANCH   1  33
ATOM     33  N   UNL     1       2.309   5.272  20.905  0.00  0.00    +0.000 N 
ATOM     34  H   UNL     1       2.268   5.706  21.834  0.00  0.00    +0.000 HD
BRANCH  33  36
ATOM     35  C   UNL     1       1.243   3.946  19.204  0.00  0.00    +0.000 C 
ATOM     36  C   UNL     1       1.262   4.265  20.692  0.00  0.00    +0.000 C 
ATOM     37  C   UNL     1       1.528   3.031  21.547  0.00  0.00    +0.000 C 
ENDBRANCH  33  36
ENDBRANCH   1  33
TORSDOF 10
ENDMDL
MODEL 9
REMARK VINA RESULT:      -6.9      1.147      1.511
REMARK  Name = 
REMARK  14 active torsions:
REMARK  status: ('A' for Active; 'I' for Inactive)
REMARK    1  A    between atoms: C_1  and  C_2
REMARK    2  A    between atoms: C_2  and  C_3
REMARK    3  A    between atoms: C_2  and  N_4
REMARK    4  A    between atoms: N_4  and  C_5
REMARK    5  A    between atoms: C_7  and  N_8
REMARK    6  A    between atoms: C_13  and  C_14
REMARK    7  A    between atoms: C_21  and  C_22
REMARK    8  A    between atoms: N_24  and  C_25
REMARK    9  A    between atoms: C_25  and  C_26
REMARK   10  A    between atoms: C_26  and  N_27
REMARK   11  A    between atoms: C_28  and  C_30
REMARK   12  A    between atoms: C_30  and  C_31
REMARK   13  A    between atoms: C_30  and  C_32
REMARK   14  A    between atoms: C_30  and  O_33
REMARK                            x       y       z     vdW  Elec       q    Type
REMARK                         _______ _______ _______ _____ _____    ______ ____
ROOT
ATOM      1  C   UNL     1      -0.583  11.066  18.491  0.00  0.00    +0.000 A 
ATOM      2  C   UNL     1       0.207   9.924  18.202  0.00  0.00    +0.000 A 
ATOM      3  C   UNL     1       1.088   9.450  19.153  0.00  0.00    +0.000 A 
ATOM      4  N   UNL     1       1.172  10.026  20.380  0.00  0.00    +0.000 NA
ATOM      5  C   UNL     1       0.489  11.177  20.607  0.00  0.00    +0.000 A 
ATOM      6  C   UNL     1      -0.366  11.777  19.690  0.00  0.00    +0.000 A 
ENDROOT
BRANCH   3   7
ATOM      7  N   UNL     1       2.047   8.424  18.874  0.00  0.00    +0.000 N 
ATOM      8  C   UNL     1       2.717   8.375  17.641  0.00  0.00    +0.000 A 
ATOM      9  C   UNL     1       3.617   7.332  17.683  0.00  0.00    +0.000 A 
ATOM     10  C   UNL     1       2.831   6.407  18.432  0.00  0.00    +0.000 A 
ATOM     11  C   UNL     1       2.403   5.080  18.251  0.00  0.00    +0.000 A 
ATOM     12  C   UNL     1       1.710   4.486  19.303  0.00  0.00    +0.000 A 
ATOM     13  C   UNL     1       1.501   5.247  20.451  0.00  0.00    +0.000 A 
ATOM     14  N   UNL     1       1.657   6.603  20.561  0.00  0.00    +0.000 NA
ATOM     15  C   UNL     1       2.227   7.149  19.457  0.00  0.00    +0.000 A 
BRANCH  12  16
ATOM     16  C   UNL     1       1.183   3.158  19.181  0.00  0.00    +0.000 C 
ATOM     17  N   UNL     1       0.752   2.086  19.058  0.00  0.00    +0.000 NA
ENDBRANCH  12  16
ENDBRANCH   3   7
BRANCH   6  18
ATOM     18  C   UNL     1      -0.918  13.140  20.036  0.00  0.00    +0.000 C 
ATOM     19  O   UNL     1      -0.275  14.144  19.786  0.00  0.00    +0.000 OA
ATOM     20  N   UNL     1      -2.163  13.189  20.640  0.00  0.00    +0.000 N 
ATOM     21  H   UNL     1      -2.581  12.292  20.873  0.00  0.00    +0.000 HD
BRANCH  20  22
ATOM     22  C   UNL     1      -2.845  14.414  21.078  0.00  0.00    +0.000 C 
BRANCH  22  23
ATOM     23  C   UNL     1      -3.300  14.433  22.557  0.00  0.00    +0.000 C 
BRANCH  23  24
ATOM     24  N   UNL     1      -4.757  14.329  22.777  0.00  0.00    +0.000 N 
ATOM     25  C   UNL     1      -5.519  13.244  22.365  0.00  0.00    +0.000 C 
ATOM     26  O   UNL     1      -4.987  12.233  21.909  0.00  0.00    +0.000 OA
ATOM     27  H   UNL     1      -5.240  15.187  23.024  0.00  0.00    +0.000 HD
BRANCH  25  28
ATOM     28  C   UNL     1      -7.063  13.331  22.565  0.00  0.00    +0.000 C 
ATOM     29  C   UNL     1      -7.813  12.787  21.356  0.00  0.00    +0.000 C 
ATOM     30  C   UNL     1      -7.531  12.630  23.844  0.00  0.00    +0.000 C 
BRANCH  28  31
ATOM     31  O   UNL     1      -7.460  14.704  22.711  0.00  0.00    +0.000 OA
ATOM     32  H   UNL     1      -7.355  15.109  21.829  0.00  0.00    +0.000 HD
ENDBRANCH  28  31
ENDBRANCH  25  28
ENDBRANCH  23  24
ENDBRANCH  22  23
ENDBRANCH  20  22
ENDBRANCH   6  18
BRANCH   1  33
ATOM     33  N   UNL     1      -1.491  11.569  17.539  0.00  0.00    +0.000 N 
ATOM     34  H   UNL     1      -0.977  11.900  16.714  0.00  0.00    +0.000 HD
BRANCH  33  36
ATOM     35  C   UNL     1      -3.895  11.536  17.620  0.00  0.00    +0.000 C 
ATOM     36  C   UNL     1      -2.661  10.751  17.199  0.00  0.00    +0.000 C 
ATOM     37  C   UNL     1      -2.665  10.420  15.711  0.00  0.00    +0.000 C 
ENDBRANCH  33  36
ENDBRANCH   1  33
TORSDOF 10
ENDMDL
