MODEL 1
REMARK VINA RESULT:      -8.1      0.000      0.000
REMARK  Name = 
REMARK  7 active torsions:
REMARK  status: ('A' for Active; 'I' for Inactive)
REMARK    1  A    between atoms: C_2  and  O_3
REMARK    2  A    between atoms: C_2  and  C_4
REMARK    3  A    between atoms: C_8  and  C_9
REMARK    4  A    between atoms: C_9  and  N_10
REMARK    5  A    between atoms: C_13  and  C_14
REMARK    6  A    between atoms: N_16  and  C_17
REMARK    7  A    between atoms: C_17  and  C_18
REMARK                            x       y       z     vdW  Elec       q    Type
REMARK                         _______ _______ _______ _____ _____    ______ ____
ROOT
ATOM      1  N   UNL     1       1.669   7.831  19.465  0.00  0.00    +0.000 NA
ATOM      2  C   UNL     1       1.319   8.501  20.714  0.00  0.00    +0.000 C 
ATOM      3  C   UNL     1       0.080   9.367  20.569  0.00  0.00    +0.000 C 
ATOM      4  C   UNL     1       0.259  10.450  19.490  0.00  0.00    +0.000 C 
ATOM      5  C   UNL     1       0.634   9.775  18.178  0.00  0.00    +0.000 C 
ATOM      6  C   UNL     1       1.702   8.677  18.277  0.00  0.00    +0.000 C 
ENDROOT
BRANCH   4   7
ATOM      7  C   UNL     1       0.940  11.730  19.975  0.00  0.00    +0.000 A 
ATOM      8  C   UNL     1       0.608  12.234  21.232  0.00  0.00    +0.000 A 
ATOM      9  N   UNL     1       0.724  13.592  21.126  0.00  0.00    +0.000 N 
ATOM     10  C   UNL     1       1.763  13.854  20.276  0.00  0.00    +0.000 A 
ATOM     11  C   UNL     1       2.516  15.033  20.140  0.00  0.00    +0.000 A 
ATOM     12  C   UNL     1       3.392  15.113  19.071  0.00  0.00    +0.000 A 
ATOM     13  C   UNL     1       3.449  14.069  18.141  0.00  0.00    +0.000 A 
ATOM     14  C   UNL     1       2.667  12.901  18.284  0.00  0.00    +0.000 A 
ATOM     15  C   UNL     1       1.833  12.740  19.424  0.00  0.00    +0.000 A 
BRANCH   9  16
ATOM     16  C   UNL     1      -0.422  14.489  21.299  0.00  0.00    +0.000 C 
BRANCH  16  17
ATOM     17  C   UNL     1      -1.618  13.781  21.823  0.00  0.00    +0.000 A 
ATOM     18  C   UNL     1      -2.658  13.207  21.116  0.00  0.00    +0.000 A 
ATOM     19  C   UNL     1      -3.651  12.658  21.979  0.00  0.00    +0.000 A 
ATOM     20  C   UNL     1      -3.334  12.862  23.295  0.00  0.00    +0.000 A 
ATOM     21 CL   UNL     1      -4.257  12.387  24.661  0.00  0.00    +0.000 Cl
ATOM     22  S   UNL     1      -1.872  13.680  23.517  0.00  0.00    +0.000 S 
ENDBRANCH  16  17
ENDBRANCH   9  16
ENDBRANCH   4   7
BRANCH   1  23
ATOM     23  C   UNL     1       2.857   6.962  19.590  0.00  0.00    +0.000 C 
BRANCH  23  28
ATOM     24  C   UNL     1       3.324   3.169  19.985  0.00  0.00    +0.000 A 
ATOM     25  C   UNL     1       2.084   2.780  20.497  0.00  0.00    +0.000 A 
ATOM     26  C   UNL     1       1.108   3.750  20.725  0.00  0.00    +0.000 A 
ATOM     27  C   UNL     1       1.363   5.087  20.432  0.00  0.00    +0.000 A 
ATOM     28  C   UNL     1       2.601   5.495  19.909  0.00  0.00    +0.000 A 
ATOM     29  C   UNL     1       3.581   4.515  19.678  0.00  0.00    +0.000 A 
BRANCH  24  31
ATOM     30  O   UNL     1       5.147   1.762  20.577  0.00  0.00    +0.000 OA
ATOM     31  C   UNL     1       4.334   2.116  19.742  0.00  0.00    +0.000 C 
BRANCH  31  32
ATOM     32  O   UNL     1       4.288   1.624  18.481  0.00  0.00    +0.000 OA
ATOM     33  H   UNL     1       4.749   0.766  18.384  0.00  0.00    +0.000 HD
ENDBRANCH  31  32
ENDBRANCH  24  31
ENDBRANCH  23  28
ENDBRANCH   1  23
TORSDOF 7
ENDMDL
MODEL 2
REMARK VINA RESULT:      -8.0      2.891      4.267
REMARK  Name = 
REMARK  7 active torsions:
REMARK  status: ('A' for Active; 'I' for Inactive)
REMARK    1  A    between atoms: C_2  and  O_3
REMARK    2  A    between atoms: C_2  and  C_4
REMARK    3  A    between atoms: C_8  and  C_9
REMARK    4  A    between atoms: C_9  and  N_10
REMARK    5  A    between atoms: C_13  and  C_14
REMARK    6  A    between atoms: N_16  and  C_17
REMARK    7  A    between atoms: C_17  and  C_18
REMARK                            x       y       z     vdW  Elec       q    Type
REMARK                         _______ _______ _______ _____ _____    ______ ____
ROOT
ATOM      1  N   UNL     1       2.118   8.854  18.691  0.00  0.00    +0.000 NA
ATOM      2  C   UNL     1       1.902  10.047  17.879  0.00  0.00    +0.000 C 
ATOM      3  C   UNL     1       1.812  11.305  18.726  0.00  0.00    +0.000 C 
ATOM      4  C   UNL     1       0.669  11.224  19.753  0.00  0.00    +0.000 C 
ATOM      5  C   UNL     1       0.868   9.981  20.608  0.00  0.00    +0.000 C 
ATOM      6  C   UNL     1       1.238   8.701  19.844  0.00  0.00    +0.000 C 
ENDROOT
BRANCH   4   7
ATOM      7  C   UNL     1      -0.702  11.639  19.220  0.00  0.00    +0.000 A 
ATOM      8  C   UNL     1      -1.315  12.774  19.750  0.00  0.00    +0.000 A 
ATOM      9  N   UNL     1      -2.658  12.526  19.699  0.00  0.00    +0.000 N 
ATOM     10  C   UNL     1      -2.901  11.792  18.571  0.00  0.00    +0.000 A 
ATOM     11  C   UNL     1      -4.110  11.616  17.876  0.00  0.00    +0.000 A 
ATOM     12  C   UNL     1      -4.137  10.668  16.868  0.00  0.00    +0.000 A 
ATOM     13  C   UNL     1      -3.005   9.882  16.624  0.00  0.00    +0.000 A 
ATOM     14  C   UNL     1      -1.806  10.059  17.349  0.00  0.00    +0.000 A 
ATOM     15  C   UNL     1      -1.709  11.093  18.320  0.00  0.00    +0.000 A 
BRANCH   9  16
ATOM     16  C   UNL     1      -3.482  12.443  20.908  0.00  0.00    +0.000 C 
BRANCH  16  17
ATOM     17  C   UNL     1      -3.212  13.557  21.852  0.00  0.00    +0.000 A 
ATOM     18  C   UNL     1      -3.428  14.910  21.674  0.00  0.00    +0.000 A 
ATOM     19  C   UNL     1      -2.996  15.672  22.798  0.00  0.00    +0.000 A 
ATOM     20  C   UNL     1      -2.450  14.870  23.763  0.00  0.00    +0.000 A 
ATOM     21 CL   UNL     1      -1.787  15.371  25.264  0.00  0.00    +0.000 Cl
ATOM     22  S   UNL     1      -2.458  13.229  23.359  0.00  0.00    +0.000 S 
ENDBRANCH  16  17
ENDBRANCH   9  16
ENDBRANCH   4   7
BRANCH   1  23
ATOM     23  C   UNL     1       2.235   7.621  17.886  0.00  0.00    +0.000 C 
BRANCH  23  28
ATOM     24  C   UNL     1       5.737   6.054  17.657  0.00  0.00    +0.000 A 
ATOM     25  C   UNL     1       5.682   5.086  18.661  0.00  0.00    +0.000 A 
ATOM     26  C   UNL     1       4.518   4.954  19.418  0.00  0.00    +0.000 A 
ATOM     27  C   UNL     1       3.418   5.769  19.164  0.00  0.00    +0.000 A 
ATOM     28  C   UNL     1       3.452   6.744  18.152  0.00  0.00    +0.000 A 
ATOM     29  C   UNL     1       4.625   6.871  17.391  0.00  0.00    +0.000 A 
BRANCH  24  31
ATOM     30  O   UNL     1       7.494   5.215  16.294  0.00  0.00    +0.000 OA
ATOM     31  C   UNL     1       6.980   6.161  16.863  0.00  0.00    +0.000 C 
BRANCH  31  32
ATOM     32  O   UNL     1       7.508   7.408  16.877  0.00  0.00    +0.000 OA
ATOM     33  H   UNL     1       6.912   8.076  17.273  0.00  0.00    +0.000 HD
ENDBRANCH  31  32
ENDBRANCH  24  31
ENDBRANCH  23  28
ENDBRANCH   1  23
TORSDOF 7
ENDMDL
MODEL 3
REMARK VINA RESULT:      -7.9      2.346      3.866
REMARK  Name = 
REMARK  7 active torsions:
REMARK  status: ('A' for Active; 'I' for Inactive)
REMARK    1  A    between atoms: C_2  and  O_3
REMARK    2  A    between atoms: C_2  and  C_4
REMARK    3  A    between atoms: C_8  and  C_9
REMARK    4  A    between atoms: C_9  and  N_10
REMARK    5  A    between atoms: C_13  and  C_14
REMARK    6  A    between atoms: N_16  and  C_17
REMARK    7  A    between atoms: C_17  and  C_18
REMARK                            x       y       z     vdW  Elec       q    Type
REMARK                         _______ _______ _______ _____ _____    ______ ____
ROOT
ATOM      1  N   UNL     1       2.025   8.413  18.762  0.00  0.00    +0.000 NA
ATOM      2  C   UNL     1       1.816   9.511  17.823  0.00  0.00    +0.000 C 
ATOM      3  C   UNL     1       1.941  10.868  18.495  0.00  0.00    +0.000 C 
ATOM      4  C   UNL     1       0.929  11.035  19.643  0.00  0.00    +0.000 C 
ATOM      5  C   UNL     1       1.122   9.894  20.633  0.00  0.00    +0.000 C 
ATOM      6  C   UNL     1       1.282   8.498  20.015  0.00  0.00    +0.000 C 
ENDROOT
BRANCH   4   7
ATOM      7  C   UNL     1      -0.455  11.518  19.212  0.00  0.00    +0.000 A 
ATOM      8  C   UNL     1      -0.948  12.709  19.745  0.00  0.00    +0.000 A 
ATOM      9  N   UNL     1      -2.303  12.546  19.820  0.00  0.00    +0.000 N 
ATOM     10  C   UNL     1      -2.689  11.789  18.747  0.00  0.00    +0.000 A 
ATOM     11  C   UNL     1      -3.963  11.668  18.165  0.00  0.00    +0.000 A 
ATOM     12  C   UNL     1      -4.136  10.689  17.203  0.00  0.00    +0.000 A 
ATOM     13  C   UNL     1      -3.080   9.823  16.896  0.00  0.00    +0.000 A 
ATOM     14  C   UNL     1      -1.813   9.948  17.508  0.00  0.00    +0.000 A 
ATOM     15  C   UNL     1      -1.568  11.007  18.424  0.00  0.00    +0.000 A 
BRANCH   9  16
ATOM     16  C   UNL     1      -3.022  12.559  21.096  0.00  0.00    +0.000 C 
BRANCH  16  17
ATOM     17  C   UNL     1      -2.423  13.508  22.070  0.00  0.00    +0.000 A 
ATOM     18  C   UNL     1      -1.607  13.233  23.151  0.00  0.00    +0.000 A 
ATOM     19  C   UNL     1      -1.271  14.411  23.880  0.00  0.00    +0.000 A 
ATOM     20  C   UNL     1      -1.866  15.518  23.338  0.00  0.00    +0.000 A 
ATOM     21 CL   UNL     1      -1.752  17.132  23.908  0.00  0.00    +0.000 Cl
ATOM     22  S   UNL     1      -2.803  15.178  21.972  0.00  0.00    +0.000 S 
ENDBRANCH  16  17
ENDBRANCH   9  16
ENDBRANCH   4   7
BRANCH   1  23
ATOM     23  C   UNL     1       1.934   7.084  18.125  0.00  0.00    +0.000 C 
BRANCH  23  28
ATOM     24  C   UNL     1       4.149   4.117  19.155  0.00  0.00    +0.000 A 
ATOM     25  C   UNL     1       5.383   4.480  18.611  0.00  0.00    +0.000 A 
ATOM     26  C   UNL     1       5.489   5.676  17.901  0.00  0.00    +0.000 A 
ATOM     27  C   UNL     1       4.380   6.504  17.750  0.00  0.00    +0.000 A 
ATOM     28  C   UNL     1       3.133   6.160  18.297  0.00  0.00    +0.000 A 
ATOM     29  C   UNL     1       3.031   4.956  19.013  0.00  0.00    +0.000 A 
BRANCH  24  31
ATOM     30  O   UNL     1       3.089   2.507  20.545  0.00  0.00    +0.000 OA
ATOM     31  C   UNL     1       4.072   2.850  19.913  0.00  0.00    +0.000 C 
BRANCH  31  32
ATOM     32  O   UNL     1       5.223   2.138  19.868  0.00  0.00    +0.000 OA
ATOM     33  H   UNL     1       5.383   1.610  20.676  0.00  0.00    +0.000 HD
ENDBRANCH  31  32
ENDBRANCH  24  31
ENDBRANCH  23  28
ENDBRANCH   1  23
TORSDOF 7
ENDMDL
MODEL 4
REMARK VINA RESULT:      -7.9      3.008      4.330
REMARK  Name = 
REMARK  7 active torsions:
REMARK  status: ('A' for Active; 'I' for Inactive)
REMARK    1  A    between atoms: C_2  and  O_3
REMARK    2  A    between atoms: C_2  and  C_4
REMARK    3  A    between atoms: C_8  and  C_9
REMARK    4  A    between atoms: C_9  and  N_10
REMARK    5  A    between atoms: C_13  and  C_14
REMARK    6  A    between atoms: N_16  and  C_17
REMARK    7  A    between atoms: C_17  and  C_18
REMARK                            x       y       z     vdW  Elec       q    Type
REMARK                         _______ _______ _______ _____ _____    ______ ____
ROOT
ATOM      1  N   UNL     1       2.151   8.435  18.641  0.00  0.00    +0.000 NA
ATOM      2  C   UNL     1       1.953   9.538  17.707  0.00  0.00    +0.000 C 
ATOM      3  C   UNL     1       2.037  10.890  18.395  0.00  0.00    +0.000 C 
ATOM      4  C   UNL     1       0.991  11.031  19.515  0.00  0.00    +0.000 C 
ATOM      5  C   UNL     1       1.173   9.884  20.499  0.00  0.00    +0.000 C 
ATOM      6  C   UNL     1       1.372   8.496  19.873  0.00  0.00    +0.000 C 
ENDROOT
BRANCH   4   7
ATOM      7  C   UNL     1      -0.387  11.497  19.050  0.00  0.00    +0.000 A 
ATOM      8  C   UNL     1      -0.900  12.691  19.556  0.00  0.00    +0.000 A 
ATOM      9  N   UNL     1      -2.255  12.520  19.605  0.00  0.00    +0.000 N 
ATOM     10  C   UNL     1      -2.613  11.745  18.536  0.00  0.00    +0.000 A 
ATOM     11  C   UNL     1      -3.874  11.606  17.931  0.00  0.00    +0.000 A 
ATOM     12  C   UNL     1      -4.021  10.611  16.979  0.00  0.00    +0.000 A 
ATOM     13  C   UNL     1      -2.953   9.750  16.706  0.00  0.00    +0.000 A 
ATOM     14  C   UNL     1      -1.699   9.893  17.341  0.00  0.00    +0.000 A 
ATOM     15  C   UNL     1      -1.481  10.967  18.247  0.00  0.00    +0.000 A 
BRANCH   9  16
ATOM     16  C   UNL     1      -2.999  12.545  20.867  0.00  0.00    +0.000 C 
BRANCH  16  17
ATOM     17  C   UNL     1      -2.372  13.440  21.873  0.00  0.00    +0.000 A 
ATOM     18  C   UNL     1      -1.624  13.097  22.984  0.00  0.00    +0.000 A 
ATOM     19  C   UNL     1      -1.231  14.242  23.737  0.00  0.00    +0.000 A 
ATOM     20  C   UNL     1      -1.718  15.394  23.181  0.00  0.00    +0.000 A 
ATOM     21 CL   UNL     1      -1.506  16.991  23.771  0.00  0.00    +0.000 Cl
ATOM     22  S   UNL     1      -2.620  15.135  21.775  0.00  0.00    +0.000 S 
ENDBRANCH  16  17
ENDBRANCH   9  16
ENDBRANCH   4   7
BRANCH   1  23
ATOM     23  C   UNL     1       2.099   7.110  17.990  0.00  0.00    +0.000 C 
BRANCH  23  28
ATOM     24  C   UNL     1       5.780   6.076  17.611  0.00  0.00    +0.000 A 
ATOM     25  C   UNL     1       5.744   4.739  18.012  0.00  0.00    +0.000 A 
ATOM     26  C   UNL     1       4.531   4.182  18.417  0.00  0.00    +0.000 A 
ATOM     27  C   UNL     1       3.368   4.948  18.407  0.00  0.00    +0.000 A 
ATOM     28  C   UNL     1       3.384   6.292  17.999  0.00  0.00    +0.000 A 
ATOM     29  C   UNL     1       4.607   6.848  17.590  0.00  0.00    +0.000 A 
BRANCH  24  31
ATOM     30  O   UNL     1       7.675   7.500  17.789  0.00  0.00    +0.000 OA
ATOM     31  C   UNL     1       7.078   6.634  17.175  0.00  0.00    +0.000 C 
BRANCH  31  32
ATOM     32  O   UNL     1       7.508   6.113  16.001  0.00  0.00    +0.000 OA
ATOM     33  H   UNL     1       8.463   6.257  15.840  0.00  0.00    +0.000 HD
ENDBRANCH  31  32
ENDBRANCH  24  31
ENDBRANCH  23  28
ENDBRANCH   1  23
TORSDOF 7
ENDMDL
MODEL 5
REMARK VINA RESULT:      -7.8      2.432      3.796
REMARK  Name = 
REMARK  7 active torsions:
REMARK  status: ('A' for Active; 'I' for Inactive)
REMARK    1  A    between atoms: C_2  and  O_3
REMARK    2  A    between atoms: C_2  and  C_4
REMARK    3  A    between atoms: C_8  and  C_9
REMARK    4  A    between atoms: C_9  and  N_10
REMARK    5  A    between atoms: C_13  and  C_14
REMARK    6  A    between atoms: N_16  and  C_17
REMARK    7  A    between atoms: C_17  and  C_18
REMARK                            x       y       z     vdW  Elec       q    Type
REMARK                         _______ _______ _______ _____ _____    ______ ____
ROOT
ATOM      1  N   UNL     1       2.097   8.784  18.633  0.00  0.00    +0.000 NA
ATOM      2  C   UNL     1       1.878  10.002  17.860  0.00  0.00    +0.000 C 
ATOM      3  C   UNL     1       1.848  11.239  18.742  0.00  0.00    +0.000 C 
ATOM      4  C   UNL     1       0.743  11.156  19.810  0.00  0.00    +0.000 C 
ATOM      5  C   UNL     1       0.946   9.886  20.624  0.00  0.00    +0.000 C 
ATOM      6  C   UNL     1       1.257   8.619  19.815  0.00  0.00    +0.000 C 
ENDROOT
BRANCH   4   7
ATOM      7  C   UNL     1      -0.637  11.614  19.341  0.00  0.00    +0.000 A 
ATOM      8  C   UNL     1      -1.174  12.787  19.871  0.00  0.00    +0.000 A 
ATOM      9  N   UNL     1      -2.526  12.595  19.901  0.00  0.00    +0.000 N 
ATOM     10  C   UNL     1      -2.861  11.842  18.808  0.00  0.00    +0.000 A 
ATOM     11  C   UNL     1      -4.113  11.701  18.185  0.00  0.00    +0.000 A 
ATOM     12  C   UNL     1      -4.234  10.729  17.206  0.00  0.00    +0.000 A 
ATOM     13  C   UNL     1      -3.150   9.890  16.923  0.00  0.00    +0.000 A 
ATOM     14  C   UNL     1      -1.906  10.035  17.577  0.00  0.00    +0.000 A 
ATOM     15  C   UNL     1      -1.714  11.089  18.513  0.00  0.00    +0.000 A 
BRANCH   9  16
ATOM     16  C   UNL     1      -3.285  12.577  21.154  0.00  0.00    +0.000 C 
BRANCH  16  17
ATOM     17  C   UNL     1      -2.927  13.710  22.045  0.00  0.00    +0.000 A 
ATOM     18  C   UNL     1      -3.211  15.053  21.889  0.00  0.00    +0.000 A 
ATOM     19  C   UNL     1      -2.657  15.842  22.939  0.00  0.00    +0.000 A 
ATOM     20  C   UNL     1      -1.959  15.069  23.826  0.00  0.00    +0.000 A 
ATOM     21 CL   UNL     1      -1.115  15.609  25.220  0.00  0.00    +0.000 Cl
ATOM     22  S   UNL     1      -1.965  13.424  23.437  0.00  0.00    +0.000 S 
ENDBRANCH  16  17
ENDBRANCH   9  16
ENDBRANCH   4   7
BRANCH   1  23
ATOM     23  C   UNL     1       2.156   7.570  17.793  0.00  0.00    +0.000 C 
BRANCH  23  28
ATOM     24  C   UNL     1       4.820   5.091  19.026  0.00  0.00    +0.000 A 
ATOM     25  C   UNL     1       4.032   4.054  19.530  0.00  0.00    +0.000 A 
ATOM     26  C   UNL     1       2.643   4.167  19.481  0.00  0.00    +0.000 A 
ATOM     27  C   UNL     1       2.050   5.297  18.924  0.00  0.00    +0.000 A 
ATOM     28  C   UNL     1       2.825   6.347  18.404  0.00  0.00    +0.000 A 
ATOM     29  C   UNL     1       4.224   6.227  18.453  0.00  0.00    +0.000 A 
BRANCH  24  31
ATOM     30  O   UNL     1       6.988   5.465  19.924  0.00  0.00    +0.000 OA
ATOM     31  C   UNL     1       6.289   4.935  19.080  0.00  0.00    +0.000 C 
BRANCH  31  32
ATOM     32  O   UNL     1       6.776   4.180  18.066  0.00  0.00    +0.000 OA
ATOM     33  H   UNL     1       6.557   3.230  18.152  0.00  0.00    +0.000 HD
ENDBRANCH  31  32
ENDBRANCH  24  31
ENDBRANCH  23  28
ENDBRANCH   1  23
TORSDOF 7
ENDMDL
MODEL 6
REMARK VINA RESULT:      -7.8      2.883      4.413
REMARK  Name = 
REMARK  7 active torsions:
REMARK  status: ('A' for Active; 'I' for Inactive)
REMARK    1  A    between atoms: C_2  and  O_3
REMARK    2  A    between atoms: C_2  and  C_4
REMARK    3  A    between atoms: C_8  and  C_9
REMARK    4  A    between atoms: C_9  and  N_10
REMARK    5  A    between atoms: C_13  and  C_14
REMARK    6  A    between atoms: N_16  and  C_17
REMARK    7  A    between atoms: C_17  and  C_18
REMARK                            x       y       z     vdW  Elec       q    Type
REMARK                         _______ _______ _______ _____ _____    ______ ____
ROOT
ATOM      1  N   UNL     1       1.648   9.271  18.913  0.00  0.00    +0.000 NA
ATOM      2  C   UNL     1       1.451  10.614  18.376  0.00  0.00    +0.000 C 
ATOM      3  C   UNL     1       1.227  11.640  19.474  0.00  0.00    +0.000 C 
ATOM      4  C   UNL     1       0.001  11.296  20.338  0.00  0.00    +0.000 C 
ATOM      5  C   UNL     1       0.179   9.894  20.903  0.00  0.00    +0.000 C 
ATOM      6  C   UNL     1       0.675   8.835  19.909  0.00  0.00    +0.000 C 
ENDROOT
BRANCH   4   7
ATOM      7  C   UNL     1      -1.334  11.789  19.781  0.00  0.00    +0.000 A 
ATOM      8  C   UNL     1      -1.991  12.833  20.433  0.00  0.00    +0.000 A 
ATOM      9  N   UNL     1      -3.325  12.598  20.254  0.00  0.00    +0.000 N 
ATOM     10  C   UNL     1      -3.485  12.042  19.014  0.00  0.00    +0.000 A 
ATOM     11  C   UNL     1      -4.643  11.976  18.220  0.00  0.00    +0.000 A 
ATOM     12  C   UNL     1      -4.594  11.190  17.081  0.00  0.00    +0.000 A 
ATOM     13  C   UNL     1      -3.441  10.448  16.800  0.00  0.00    +0.000 A 
ATOM     14  C   UNL     1      -2.296  10.511  17.623  0.00  0.00    +0.000 A 
ATOM     15  C   UNL     1      -2.273  11.387  18.744  0.00  0.00    +0.000 A 
BRANCH   9  16
ATOM     16  C   UNL     1      -4.228  12.336  21.377  0.00  0.00    +0.000 C 
BRANCH  16  17
ATOM     17  C   UNL     1      -3.967  13.232  22.532  0.00  0.00    +0.000 A 
ATOM     18  C   UNL     1      -3.303  12.949  23.711  0.00  0.00    +0.000 A 
ATOM     19  C   UNL     1      -3.296  14.063  24.601  0.00  0.00    +0.000 A 
ATOM     20  C   UNL     1      -3.975  15.127  24.071  0.00  0.00    +0.000 A 
ATOM     21 CL   UNL     1      -4.232  16.654  24.810  0.00  0.00    +0.000 Cl
ATOM     22  S   UNL     1      -4.605  14.825  22.532  0.00  0.00    +0.000 S 
ENDBRANCH  16  17
ENDBRANCH   9  16
ENDBRANCH   4   7
BRANCH   1  23
ATOM     23  C   UNL     1       1.894   8.261  17.864  0.00  0.00    +0.000 C 
BRANCH  23  28
ATOM     24  C   UNL     1       5.206   6.351  17.469  0.00  0.00    +0.000 A 
ATOM     25  C   UNL     1       5.166   5.483  18.561  0.00  0.00    +0.000 A 
ATOM     26  C   UNL     1       4.075   5.528  19.429  0.00  0.00    +0.000 A 
ATOM     27  C   UNL     1       3.031   6.421  19.199  0.00  0.00    +0.000 A 
ATOM     28  C   UNL     1       3.050   7.297  18.101  0.00  0.00    +0.000 A 
ATOM     29  C   UNL     1       4.149   7.245  17.228  0.00  0.00    +0.000 A 
BRANCH  24  31
ATOM     30  O   UNL     1       7.489   6.637  16.870  0.00  0.00    +0.000 OA
ATOM     31  C   UNL     1       6.369   6.270  16.560  0.00  0.00    +0.000 C 
BRANCH  31  32
ATOM     32  O   UNL     1       6.048   5.789  15.335  0.00  0.00    +0.000 OA
ATOM     33  H   UNL     1       5.394   5.061  15.365  0.00  0.00    +0.000 HD
ENDBRANCH  31  32
ENDBRANCH  24  31
ENDBRANCH  23  28
ENDBRANCH   1  23
TORSDOF 7
ENDMDL
MODEL 7
REMARK VINA RESULT:      -7.8      0.822      1.050
REMARK  Name = 
REMARK  7 active torsions:
REMARK  status: ('A' for Active; 'I' for Inactive)
REMARK    1  A    between atoms: C_2  and  O_3
REMARK    2  A    between atoms: C_2  and  C_4
REMARK    3  A    between atoms: C_8  and  C_9
REMARK    4  A    between atoms: C_9  and  N_10
REMARK    5  A    between atoms: C_13  and  C_14
REMARK    6  A    between atoms: N_16  and  C_17
REMARK    7  A    between atoms: C_17  and  C_18
REMARK                            x       y       z     vdW  Elec       q    Type
REMARK                         _______ _______ _______ _____ _____    ______ ____
ROOT
ATOM      1  N   UNL     1       1.703   7.726  19.493  0.00  0.00    +0.000 NA
ATOM      2  C   UNL     1       1.317   8.416  20.720  0.00  0.00    +0.000 C 
ATOM      3  C   UNL     1       0.122   9.329  20.509  0.00  0.00    +0.000 C 
ATOM      4  C   UNL     1       0.398  10.398  19.437  0.00  0.00    +0.000 C 
ATOM      5  C   UNL     1       0.812   9.702  18.149  0.00  0.00    +0.000 C 
ATOM      6  C   UNL     1       1.830   8.563  18.305  0.00  0.00    +0.000 C 
ENDROOT
BRANCH   4   7
ATOM      7  C   UNL     1       1.104  11.653  19.951  0.00  0.00    +0.000 A 
ATOM      8  C   UNL     1       0.943  12.015  21.289  0.00  0.00    +0.000 A 
ATOM      9  N   UNL     1       1.002  13.380  21.311  0.00  0.00    +0.000 N 
ATOM     10  C   UNL     1       1.897  13.772  20.353  0.00  0.00    +0.000 A 
ATOM     11  C   UNL     1       2.586  14.991  20.235  0.00  0.00    +0.000 A 
ATOM     12  C   UNL     1       3.294  15.216  19.067  0.00  0.00    +0.000 A 
ATOM     13  C   UNL     1       3.246  14.272  18.034  0.00  0.00    +0.000 A 
ATOM     14  C   UNL     1       2.529  13.062  18.164  0.00  0.00    +0.000 A 
ATOM     15  C   UNL     1       1.876  12.751  19.388  0.00  0.00    +0.000 A 
BRANCH   9  16
ATOM     16  C   UNL     1      -0.133  14.203  21.738  0.00  0.00    +0.000 C 
BRANCH  16  17
ATOM     17  C   UNL     1      -1.435  13.639  21.298  0.00  0.00    +0.000 A 
ATOM     18  C   UNL     1      -1.841  13.301  20.021  0.00  0.00    +0.000 A 
ATOM     19  C   UNL     1      -3.186  12.830  19.996  0.00  0.00    +0.000 A 
ATOM     20  C   UNL     1      -3.747  12.858  21.244  0.00  0.00    +0.000 A 
ATOM     21 CL   UNL     1      -5.346  12.402  21.665  0.00  0.00    +0.000 Cl
ATOM     22  S   UNL     1      -2.694  13.419  22.442  0.00  0.00    +0.000 S 
ENDBRANCH  16  17
ENDBRANCH   9  16
ENDBRANCH   4   7
BRANCH   1  23
ATOM     23  C   UNL     1       2.848   6.812  19.681  0.00  0.00    +0.000 C 
BRANCH  23  28
ATOM     24  C   UNL     1       3.090   2.977  19.668  0.00  0.00    +0.000 A 
ATOM     25  C   UNL     1       1.872   2.612  20.247  0.00  0.00    +0.000 A 
ATOM     26  C   UNL     1       0.985   3.609  20.652  0.00  0.00    +0.000 A 
ATOM     27  C   UNL     1       1.305   4.952  20.468  0.00  0.00    +0.000 A 
ATOM     28  C   UNL     1       2.521   5.338  19.879  0.00  0.00    +0.000 A 
ATOM     29  C   UNL     1       3.410   4.330  19.471  0.00  0.00    +0.000 A 
BRANCH  24  31
ATOM     30  O   UNL     1       3.747   1.125  18.330  0.00  0.00    +0.000 OA
ATOM     31  C   UNL     1       4.003   1.897  19.237  0.00  0.00    +0.000 C 
BRANCH  31  32
ATOM     32  O   UNL     1       5.129   1.829  19.987  0.00  0.00    +0.000 OA
ATOM     33  H   UNL     1       5.790   1.200  19.635  0.00  0.00    +0.000 HD
ENDBRANCH  31  32
ENDBRANCH  24  31
ENDBRANCH  23  28
ENDBRANCH   1  23
TORSDOF 7
ENDMDL
MODEL 8
REMARK VINA RESULT:      -7.8      2.322      3.825
REMARK  Name = 
REMARK  7 active torsions:
REMARK  status: ('A' for Active; 'I' for Inactive)
REMARK    1  A    between atoms: C_2  and  O_3
REMARK    2  A    between atoms: C_2  and  C_4
REMARK    3  A    between atoms: C_8  and  C_9
REMARK    4  A    between atoms: C_9  and  N_10
REMARK    5  A    between atoms: C_13  and  C_14
REMARK    6  A    between atoms: N_16  and  C_17
REMARK    7  A    between atoms: C_17  and  C_18
REMARK                            x       y       z     vdW  Elec       q    Type
REMARK                         _______ _______ _______ _____ _____    ______ ____
ROOT
ATOM      1  N   UNL     1       1.987   8.521  18.760  0.00  0.00    +0.000 NA
ATOM      2  C   UNL     1       1.728   9.639  17.860  0.00  0.00    +0.000 C 
ATOM      3  C   UNL     1       1.851  10.979  18.565  0.00  0.00    +0.000 C 
ATOM      4  C   UNL     1       0.876  11.096  19.750  0.00  0.00    +0.000 C 
ATOM      5  C   UNL     1       1.121   9.933  20.700  0.00  0.00    +0.000 C 
ATOM      6  C   UNL     1       1.285   8.556  20.039  0.00  0.00    +0.000 C 
ENDROOT
BRANCH   4   7
ATOM      7  C   UNL     1      -0.530  11.565  19.379  0.00  0.00    +0.000 A 
ATOM      8  C   UNL     1      -1.048  12.699  20.004  0.00  0.00    +0.000 A 
ATOM      9  N   UNL     1      -2.396  12.490  20.090  0.00  0.00    +0.000 N 
ATOM     10  C   UNL     1      -2.780  11.799  18.973  0.00  0.00    +0.000 A 
ATOM     11  C   UNL     1      -4.061  11.680  18.407  0.00  0.00    +0.000 A 
ATOM     12  C   UNL     1      -4.224  10.766  17.380  0.00  0.00    +0.000 A 
ATOM     13  C   UNL     1      -3.148   9.957  16.994  0.00  0.00    +0.000 A 
ATOM     14  C   UNL     1      -1.874  10.078  17.591  0.00  0.00    +0.000 A 
ATOM     15  C   UNL     1      -1.643  11.077  18.576  0.00  0.00    +0.000 A 
BRANCH   9  16
ATOM     16  C   UNL     1      -3.089  12.391  21.377  0.00  0.00    +0.000 C 
BRANCH  16  17
ATOM     17  C   UNL     1      -3.620  13.701  21.833  0.00  0.00    +0.000 A 
ATOM     18  C   UNL     1      -3.959  14.806  21.075  0.00  0.00    +0.000 A 
ATOM     19  C   UNL     1      -4.392  15.896  21.884  0.00  0.00    +0.000 A 
ATOM     20  C   UNL     1      -4.337  15.581  23.215  0.00  0.00    +0.000 A 
ATOM     21 CL   UNL     1      -4.744  16.602  24.533  0.00  0.00    +0.000 Cl
ATOM     22  S   UNL     1      -3.794  14.008  23.513  0.00  0.00    +0.000 S 
ENDBRANCH  16  17
ENDBRANCH   9  16
ENDBRANCH   4   7
BRANCH   1  23
ATOM     23  C   UNL     1       1.899   7.208  18.089  0.00  0.00    +0.000 C 
BRANCH  23  28
ATOM     24  C   UNL     1       4.119   4.239  19.099  0.00  0.00    +0.000 A 
ATOM     25  C   UNL     1       5.343   4.589  18.525  0.00  0.00    +0.000 A 
ATOM     26  C   UNL     1       5.440   5.777  17.801  0.00  0.00    +0.000 A 
ATOM     27  C   UNL     1       4.333   6.611  17.666  0.00  0.00    +0.000 A 
ATOM     28  C   UNL     1       3.096   6.279  18.244  0.00  0.00    +0.000 A 
ATOM     29  C   UNL     1       3.003   5.082  18.974  0.00  0.00    +0.000 A 
BRANCH  24  31
ATOM     30  O   UNL     1       3.145   2.714  20.641  0.00  0.00    +0.000 OA
ATOM     31  C   UNL     1       4.052   2.980  19.871  0.00  0.00    +0.000 C 
BRANCH  31  32
ATOM     32  O   UNL     1       5.124   2.178  19.667  0.00  0.00    +0.000 OA
ATOM     33  H   UNL     1       5.809   2.586  19.099  0.00  0.00    +0.000 HD
ENDBRANCH  31  32
ENDBRANCH  24  31
ENDBRANCH  23  28
ENDBRANCH   1  23
TORSDOF 7
ENDMDL
MODEL 9
REMARK VINA RESULT:      -7.7      1.404      1.670
REMARK  Name = 
REMARK  7 active torsions:
REMARK  status: ('A' for Active; 'I' for Inactive)
REMARK    1  A    between atoms: C_2  and  O_3
REMARK    2  A    between atoms: C_2  and  C_4
REMARK    3  A    between atoms: C_8  and  C_9
REMARK    4  A    between atoms: C_9  and  N_10
REMARK    5  A    between atoms: C_13  and  C_14
REMARK    6  A    between atoms: N_16  and  C_17
REMARK    7  A    between atoms: C_17  and  C_18
REMARK                            x       y       z     vdW  Elec       q    Type
REMARK                         _______ _______ _______ _____ _____    ______ ____
ROOT
ATOM      1  N   UNL     1       1.412   8.140  19.321  0.00  0.00    +0.000 NA
ATOM      2  C   UNL     1       1.176   8.736  20.632  0.00  0.00    +0.000 C 
ATOM      3  C   UNL     1      -0.058   9.622  20.642  0.00  0.00    +0.000 C 
ATOM      4  C   UNL     1       0.050  10.767  19.619  0.00  0.00    +0.000 C 
ATOM      5  C   UNL     1       0.305  10.170  18.242  0.00  0.00    +0.000 C 
ATOM      6  C   UNL     1       1.361   9.056  18.187  0.00  0.00    +0.000 C 
ENDROOT
BRANCH   4   7
ATOM      7  C   UNL     1       0.788  12.008  20.121  0.00  0.00    +0.000 A 
ATOM      8  C   UNL     1       0.507  12.486  21.401  0.00  0.00    +0.000 A 
ATOM      9  N   UNL     1       0.668  13.841  21.332  0.00  0.00    +0.000 N 
ATOM     10  C   UNL     1       1.691  14.093  20.460  0.00  0.00    +0.000 A 
ATOM     11  C   UNL     1       2.481  15.249  20.338  0.00  0.00    +0.000 A 
ATOM     12  C   UNL     1       3.331  15.331  19.248  0.00  0.00    +0.000 A 
ATOM     13  C   UNL     1       3.326  14.314  18.286  0.00  0.00    +0.000 A 
ATOM     14  C   UNL     1       2.508  13.170  18.417  0.00  0.00    +0.000 A 
ATOM     15  C   UNL     1       1.700  13.003  19.575  0.00  0.00    +0.000 A 
BRANCH   9  16
ATOM     16  C   UNL     1      -0.441  14.771  21.563  0.00  0.00    +0.000 C 
BRANCH  16  17
ATOM     17  C   UNL     1      -1.687  14.072  21.970  0.00  0.00    +0.000 A 
ATOM     18  C   UNL     1      -1.988  13.483  23.183  0.00  0.00    +0.000 A 
ATOM     19  C   UNL     1      -3.275  12.869  23.174  0.00  0.00    +0.000 A 
ATOM     20  C   UNL     1      -3.879  12.998  21.952  0.00  0.00    +0.000 A 
ATOM     21 CL   UNL     1      -5.417  12.391  21.496  0.00  0.00    +0.000 Cl
ATOM     22  S   UNL     1      -2.946  13.846  20.826  0.00  0.00    +0.000 S 
ENDBRANCH  16  17
ENDBRANCH   9  16
ENDBRANCH   4   7
BRANCH   1  23
ATOM     23  C   UNL     1       2.592   7.253  19.295  0.00  0.00    +0.000 C 
BRANCH  23  28
ATOM     24  C   UNL     1       2.139   3.576  20.317  0.00  0.00    +0.000 A 
ATOM     25  C   UNL     1       1.830   2.976  19.095  0.00  0.00    +0.000 A 
ATOM     26  C   UNL     1       1.756   3.766  17.948  0.00  0.00    +0.000 A 
ATOM     27  C   UNL     1       2.001   5.135  18.019  0.00  0.00    +0.000 A 
ATOM     28  C   UNL     1       2.321   5.755  19.239  0.00  0.00    +0.000 A 
ATOM     29  C   UNL     1       2.397   4.955  20.391  0.00  0.00    +0.000 A 
BRANCH  24  31
ATOM     30  O   UNL     1       1.291   2.532  22.277  0.00  0.00    +0.000 OA
ATOM     31  C   UNL     1       2.223   2.710  21.512  0.00  0.00    +0.000 C 
BRANCH  31  32
ATOM     32  O   UNL     1       3.455   2.177  21.691  0.00  0.00    +0.000 OA
ATOM     33  H   UNL     1       4.163   2.680  21.240  0.00  0.00    +0.000 HD
ENDBRANCH  31  32
ENDBRANCH  24  31
ENDBRANCH  23  28
ENDBRANCH   1  23
TORSDOF 7
ENDMDL
