MODEL 1
REMARK VINA RESULT:      -6.9      0.000      0.000
REMARK  Name = 
REMARK  8 active torsions:
REMARK  status: ('A' for Active; 'I' for Inactive)
REMARK    1  A    between atoms: C_1  and  O_2
REMARK    2  A    between atoms: O_2  and  C_3
REMARK    3  A    between atoms: C_6  and  N_7
REMARK    4  A    between atoms: N_10  and  S_11
REMARK    5  A    between atoms: S_11  and  C_14
REMARK    6  A    between atoms: C_14  and  C_15
REMARK    7  A    between atoms: C_22  and  C_23
REMARK    8  A    between atoms: C_22  and  C_24
REMARK                            x       y       z     vdW  Elec       q    Type
REMARK                         _______ _______ _______ _____ _____    ______ ____
ROOT
ATOM      1  N   UNL     1       1.490   8.561  19.935  0.00  0.00    +0.000 N 
ATOM      2  C   UNL     1       0.994   9.772  19.269  0.00  0.00    +0.000 C 
ATOM      3  C   UNL     1      -0.511   9.947  19.552  0.00  0.00    +0.000 C 
ATOM      4  N   UNL     1      -0.835   9.936  21.014  0.00  0.00    +0.000 NA
ATOM      5  C   UNL     1      -0.314   8.651  21.625  0.00  0.00    +0.000 C 
ATOM      6  C   UNL     1       1.197   8.456  21.376  0.00  0.00    +0.000 C 
ENDROOT
BRANCH   1  10
ATOM      7  C   UNL     1       3.825   5.819  17.755  0.00  0.00    +0.000 A 
ATOM      8  C   UNL     1       3.638   7.113  17.283  0.00  0.00    +0.000 A 
ATOM      9  C   UNL     1       2.912   8.037  18.040  0.00  0.00    +0.000 A 
ATOM     10  C   UNL     1       2.324   7.692  19.263  0.00  0.00    +0.000 A 
ATOM     11  C   UNL     1       2.551   6.392  19.731  0.00  0.00    +0.000 A 
ATOM     12  C   UNL     1       3.288   5.458  18.987  0.00  0.00    +0.000 A 
BRANCH   7  14
ATOM     13  C   UNL     1       5.283   5.635  15.911  0.00  0.00    +0.000 C 
ATOM     14  O   UNL     1       4.504   4.987  16.908  0.00  0.00    +0.000 OA
ENDBRANCH   7  14
ENDBRANCH   1  10
BRANCH   4  15
ATOM     15  S   UNL     1      -0.454  11.331  21.922  0.00  0.00    +0.000 S 
ATOM     16  O   UNL     1      -0.542  10.916  23.302  0.00  0.00    +0.000 OA
ATOM     17  O   UNL     1       0.775  11.872  21.385  0.00  0.00    +0.000 OA
BRANCH  15  18
ATOM     18  C   UNL     1      -1.813  12.449  21.509  0.00  0.00    +0.000 C 
BRANCH  18  19
ATOM     19  C   UNL     1      -2.167  13.452  22.598  0.00  0.00    +0.000 C 
ATOM     20  C   UNL     1      -1.011  13.955  23.499  0.00  0.00    +0.000 C 
ATOM     21  C   UNL     1      -1.605  15.211  24.174  0.00  0.00    +0.000 C 
ATOM     22  C   UNL     1      -3.026  15.305  23.570  0.00  0.00    +0.000 C 
ATOM     23  C   UNL     1      -3.880  14.209  24.237  0.00  0.00    +0.000 C 
ATOM     24  C   UNL     1      -3.242  13.002  23.592  0.00  0.00    +0.000 C 
ATOM     25  O   UNL     1      -3.562  11.857  23.851  0.00  0.00    +0.000 OA
ATOM     26  C   UNL     1      -2.821  14.795  22.116  0.00  0.00    +0.000 C 
ATOM     27  C   UNL     1      -4.129  14.627  21.313  0.00  0.00    +0.000 C 
ATOM     28  C   UNL     1      -1.921  15.731  21.283  0.00  0.00    +0.000 C 
ENDBRANCH  18  19
ENDBRANCH  15  18
ENDBRANCH   4  15
TORSDOF 5
ENDMDL
MODEL 2
REMARK VINA RESULT:      -6.9      0.480      1.032
REMARK  Name = 
REMARK  8 active torsions:
REMARK  status: ('A' for Active; 'I' for Inactive)
REMARK    1  A    between atoms: C_1  and  O_2
REMARK    2  A    between atoms: O_2  and  C_3
REMARK    3  A    between atoms: C_6  and  N_7
REMARK    4  A    between atoms: N_10  and  S_11
REMARK    5  A    between atoms: S_11  and  C_14
REMARK    6  A    between atoms: C_14  and  C_15
REMARK    7  A    between atoms: C_22  and  C_23
REMARK    8  A    between atoms: C_22  and  C_24
REMARK                            x       y       z     vdW  Elec       q    Type
REMARK                         _______ _______ _______ _____ _____    ______ ____
ROOT
ATOM      1  N   UNL     1       1.442   8.595  19.874  0.00  0.00    +0.000 N 
ATOM      2  C   UNL     1       0.945   9.809  19.214  0.00  0.00    +0.000 C 
ATOM      3  C   UNL     1      -0.551  10.001  19.530  0.00  0.00    +0.000 C 
ATOM      4  N   UNL     1      -0.843   9.998  20.999  0.00  0.00    +0.000 NA
ATOM      5  C   UNL     1      -0.323   8.710  21.603  0.00  0.00    +0.000 C 
ATOM      6  C   UNL     1       1.180   8.497  21.322  0.00  0.00    +0.000 C 
ENDROOT
BRANCH   1  10
ATOM      7  C   UNL     1       4.118   6.009  17.903  0.00  0.00    +0.000 A 
ATOM      8  C   UNL     1       3.519   5.624  19.097  0.00  0.00    +0.000 A 
ATOM      9  C   UNL     1       2.587   6.461  19.716  0.00  0.00    +0.000 A 
ATOM     10  C   UNL     1       2.251   7.714  19.187  0.00  0.00    +0.000 A 
ATOM     11  C   UNL     1       2.845   8.067  17.969  0.00  0.00    +0.000 A 
ATOM     12  C   UNL     1       3.774   7.230  17.331  0.00  0.00    +0.000 A 
BRANCH   7  14
ATOM     13  C   UNL     1       4.643   3.778  17.351  0.00  0.00    +0.000 C 
ATOM     14  O   UNL     1       5.053   5.138  17.416  0.00  0.00    +0.000 OA
ENDBRANCH   7  14
ENDBRANCH   1  10
BRANCH   4  15
ATOM     15  S   UNL     1      -0.427  11.392  21.893  0.00  0.00    +0.000 S 
ATOM     16  O   UNL     1      -0.504  10.986  23.277  0.00  0.00    +0.000 OA
ATOM     17  O   UNL     1       0.805  11.909  21.338  0.00  0.00    +0.000 OA
BRANCH  15  18
ATOM     18  C   UNL     1      -1.771  12.531  21.491  0.00  0.00    +0.000 C 
BRANCH  18  19
ATOM     19  C   UNL     1      -2.134  13.508  22.601  0.00  0.00    +0.000 C 
ATOM     20  C   UNL     1      -0.983  13.995  23.517  0.00  0.00    +0.000 C 
ATOM     21  C   UNL     1      -1.585  15.233  24.218  0.00  0.00    +0.000 C 
ATOM     22  C   UNL     1      -3.003  15.335  23.610  0.00  0.00    +0.000 C 
ATOM     23  C   UNL     1      -3.856  14.222  24.249  0.00  0.00    +0.000 C 
ATOM     24  C   UNL     1      -3.211  13.032  23.580  0.00  0.00    +0.000 C 
ATOM     25  O   UNL     1      -3.527  11.880  23.812  0.00  0.00    +0.000 OA
ATOM     26  C   UNL     1      -2.791  14.859  22.146  0.00  0.00    +0.000 C 
ATOM     27  C   UNL     1      -4.094  14.704  21.335  0.00  0.00    +0.000 C 
ATOM     28  C   UNL     1      -1.891  15.817  21.338  0.00  0.00    +0.000 C 
ENDBRANCH  18  19
ENDBRANCH  15  18
ENDBRANCH   4  15
TORSDOF 5
ENDMDL
MODEL 3
REMARK VINA RESULT:      -6.7      0.977      1.741
REMARK  Name = 
REMARK  8 active torsions:
REMARK  status: ('A' for Active; 'I' for Inactive)
REMARK    1  A    between atoms: C_1  and  O_2
REMARK    2  A    between atoms: O_2  and  C_3
REMARK    3  A    between atoms: C_6  and  N_7
REMARK    4  A    between atoms: N_10  and  S_11
REMARK    5  A    between atoms: S_11  and  C_14
REMARK    6  A    between atoms: C_14  and  C_15
REMARK    7  A    between atoms: C_22  and  C_23
REMARK    8  A    between atoms: C_22  and  C_24
REMARK                            x       y       z     vdW  Elec       q    Type
REMARK                         _______ _______ _______ _____ _____    ______ ____
ROOT
ATOM      1  N   UNL     1       1.521   8.627  19.816  0.00  0.00    +0.000 N 
ATOM      2  C   UNL     1       1.156   9.874  19.132  0.00  0.00    +0.000 C 
ATOM      3  C   UNL     1      -0.329  10.198  19.389  0.00  0.00    +0.000 C 
ATOM      4  N   UNL     1      -0.675  10.233  20.846  0.00  0.00    +0.000 NA
ATOM      5  C   UNL     1      -0.291   8.910  21.477  0.00  0.00    +0.000 C 
ATOM      6  C   UNL     1       1.197   8.565  21.253  0.00  0.00    +0.000 C 
ENDROOT
BRANCH   1  10
ATOM      7  C   UNL     1       4.034   5.803  17.962  0.00  0.00    +0.000 A 
ATOM      8  C   UNL     1       3.359   5.481  19.134  0.00  0.00    +0.000 A 
ATOM      9  C   UNL     1       2.480   6.401  19.712  0.00  0.00    +0.000 A 
ATOM     10  C   UNL     1       2.276   7.674  19.165  0.00  0.00    +0.000 A 
ATOM     11  C   UNL     1       2.943   7.964  17.970  0.00  0.00    +0.000 A 
ATOM     12  C   UNL     1       3.820   7.045  17.372  0.00  0.00    +0.000 A 
BRANCH   7  14
ATOM     13  C   UNL     1       5.117   4.827  16.109  0.00  0.00    +0.000 C 
ATOM     14  O   UNL     1       4.907   4.850  17.516  0.00  0.00    +0.000 OA
ENDBRANCH   7  14
ENDBRANCH   1  10
BRANCH   4  15
ATOM     15  S   UNL     1      -0.172  11.593  21.748  0.00  0.00    +0.000 S 
ATOM     16  O   UNL     1      -0.377  11.224  23.129  0.00  0.00    +0.000 OA
ATOM     17  O   UNL     1       1.138  11.970  21.266  0.00  0.00    +0.000 OA
BRANCH  15  18
ATOM     18  C   UNL     1      -1.364  12.856  21.246  0.00  0.00    +0.000 C 
BRANCH  18  19
ATOM     19  C   UNL     1      -2.568  12.999  22.167  0.00  0.00    +0.000 C 
ATOM     20  C   UNL     1      -2.747  11.925  23.268  0.00  0.00    +0.000 C 
ATOM     21  C   UNL     1      -3.762  12.572  24.237  0.00  0.00    +0.000 C 
ATOM     22  C   UNL     1      -4.034  13.955  23.599  0.00  0.00    +0.000 C 
ATOM     23  C   UNL     1      -4.940  13.722  22.375  0.00  0.00    +0.000 C 
ATOM     24  C   UNL     1      -3.933  13.050  21.473  0.00  0.00    +0.000 C 
ATOM     25  O   UNL     1      -4.204  12.624  20.366  0.00  0.00    +0.000 OA
ATOM     26  C   UNL     1      -2.657  14.334  22.987  0.00  0.00    +0.000 C 
ATOM     27  C   UNL     1      -2.676  15.620  22.134  0.00  0.00    +0.000 C 
ATOM     28  C   UNL     1      -1.571  14.547  24.063  0.00  0.00    +0.000 C 
ENDBRANCH  18  19
ENDBRANCH  15  18
ENDBRANCH   4  15
TORSDOF 5
ENDMDL
MODEL 4
REMARK VINA RESULT:      -6.5      1.671      2.161
REMARK  Name = 
REMARK  8 active torsions:
REMARK  status: ('A' for Active; 'I' for Inactive)
REMARK    1  A    between atoms: C_1  and  O_2
REMARK    2  A    between atoms: O_2  and  C_3
REMARK    3  A    between atoms: C_6  and  N_7
REMARK    4  A    between atoms: N_10  and  S_11
REMARK    5  A    between atoms: S_11  and  C_14
REMARK    6  A    between atoms: C_14  and  C_15
REMARK    7  A    between atoms: C_22  and  C_23
REMARK    8  A    between atoms: C_22  and  C_24
REMARK                            x       y       z     vdW  Elec       q    Type
REMARK                         _______ _______ _______ _____ _____    ______ ____
ROOT
ATOM      1  N   UNL     1       1.947   8.002  19.390  0.00  0.00    +0.000 N 
ATOM      2  C   UNL     1       1.969   9.069  18.382  0.00  0.00    +0.000 C 
ATOM      3  C   UNL     1       0.587   9.746  18.305  0.00  0.00    +0.000 C 
ATOM      4  N   UNL     1       0.102  10.237  19.635  0.00  0.00    +0.000 NA
ATOM      5  C   UNL     1       0.085   9.080  20.612  0.00  0.00    +0.000 C 
ATOM      6  C   UNL     1       1.462   8.391  20.728  0.00  0.00    +0.000 C 
ENDROOT
BRANCH   1  10
ATOM      7  C   UNL     1       3.471   4.200  18.417  0.00  0.00    +0.000 A 
ATOM      8  C   UNL     1       3.738   5.294  17.602  0.00  0.00    +0.000 A 
ATOM      9  C   UNL     1       3.280   6.564  17.961  0.00  0.00    +0.000 A 
ATOM     10  C   UNL     1       2.516   6.776  19.116  0.00  0.00    +0.000 A 
ATOM     11  C   UNL     1       2.285   5.665  19.935  0.00  0.00    +0.000 A 
ATOM     12  C   UNL     1       2.749   4.385  19.592  0.00  0.00    +0.000 A 
BRANCH   7  14
ATOM     13  C   UNL     1       3.319   1.849  18.523  0.00  0.00    +0.000 C 
ATOM     14  O   UNL     1       3.920   2.999  17.941  0.00  0.00    +0.000 OA
ENDBRANCH   7  14
ENDBRANCH   1  10
BRANCH   4  15
ATOM     15  S   UNL     1       0.814  11.656  20.265  0.00  0.00    +0.000 S 
ATOM     16  O   UNL     1       1.306  11.281  21.570  0.00  0.00    +0.000 OA
ATOM     17  O   UNL     1       1.710  12.174  19.254  0.00  0.00    +0.000 OA
BRANCH  15  18
ATOM     18  C   UNL     1      -0.601  12.769  20.417  0.00  0.00    +0.000 C 
BRANCH  18  19
ATOM     19  C   UNL     1      -0.425  13.891  21.431  0.00  0.00    +0.000 C 
ATOM     20  C   UNL     1       1.010  14.437  21.638  0.00  0.00    +0.000 C 
ATOM     21  C   UNL     1       0.781  15.778  22.370  0.00  0.00    +0.000 C 
ATOM     22  C   UNL     1      -0.760  15.866  22.481  0.00  0.00    +0.000 C 
ATOM     23  C   UNL     1      -1.196  14.878  23.581  0.00  0.00    +0.000 C 
ATOM     24  C   UNL     1      -0.914  13.588  22.850  0.00  0.00    +0.000 C 
ATOM     25  O   UNL     1      -1.064  12.488  23.350  0.00  0.00    +0.000 OA
ATOM     26  C   UNL     1      -1.243  15.203  21.161  0.00  0.00    +0.000 C 
ATOM     27  C   UNL     1      -2.771  15.007  21.073  0.00  0.00    +0.000 C 
ATOM     28  C   UNL     1      -0.840  16.013  19.911  0.00  0.00    +0.000 C 
ENDBRANCH  18  19
ENDBRANCH  15  18
ENDBRANCH   4  15
TORSDOF 5
ENDMDL
MODEL 5
REMARK VINA RESULT:      -6.5      1.445      2.085
REMARK  Name = 
REMARK  8 active torsions:
REMARK  status: ('A' for Active; 'I' for Inactive)
REMARK    1  A    between atoms: C_1  and  O_2
REMARK    2  A    between atoms: O_2  and  C_3
REMARK    3  A    between atoms: C_6  and  N_7
REMARK    4  A    between atoms: N_10  and  S_11
REMARK    5  A    between atoms: S_11  and  C_14
REMARK    6  A    between atoms: C_14  and  C_15
REMARK    7  A    between atoms: C_22  and  C_23
REMARK    8  A    between atoms: C_22  and  C_24
REMARK                            x       y       z     vdW  Elec       q    Type
REMARK                         _______ _______ _______ _____ _____    ______ ____
ROOT
ATOM      1  N   UNL     1       1.755   8.376  19.348  0.00  0.00    +0.000 N 
ATOM      2  C   UNL     1       1.688   9.401  18.298  0.00  0.00    +0.000 C 
ATOM      3  C   UNL     1       0.264   9.983  18.224  0.00  0.00    +0.000 C 
ATOM      4  N   UNL     1      -0.227  10.496  19.543  0.00  0.00    +0.000 NA
ATOM      5  C   UNL     1      -0.150   9.381  20.566  0.00  0.00    +0.000 C 
ATOM      6  C   UNL     1       1.272   8.788  20.679  0.00  0.00    +0.000 C 
ENDROOT
BRANCH   1  10
ATOM      7  C   UNL     1       3.927   4.818  18.757  0.00  0.00    +0.000 A 
ATOM      8  C   UNL     1       3.086   4.954  19.856  0.00  0.00    +0.000 A 
ATOM      9  C   UNL     1       2.322   6.113  20.015  0.00  0.00    +0.000 A 
ATOM     10  C   UNL     1       2.399   7.180  19.111  0.00  0.00    +0.000 A 
ATOM     11  C   UNL     1       3.231   7.008  17.998  0.00  0.00    +0.000 A 
ATOM     12  C   UNL     1       3.994   5.844  17.820  0.00  0.00    +0.000 A 
BRANCH   7  14
ATOM     13  C   UNL     1       4.316   2.697  19.711  0.00  0.00    +0.000 C 
ATOM     14  O   UNL     1       4.666   3.668  18.731  0.00  0.00    +0.000 OA
ENDBRANCH   7  14
ENDBRANCH   1  10
BRANCH   4  15
ATOM     15  S   UNL     1       0.402  11.982  20.101  0.00  0.00    +0.000 S 
ATOM     16  O   UNL     1       1.158  11.649  21.285  0.00  0.00    +0.000 OA
ATOM     17  O   UNL     1       1.034  12.633  18.974  0.00  0.00    +0.000 OA
BRANCH  15  18
ATOM     18  C   UNL     1      -1.092  12.898  20.541  0.00  0.00    +0.000 C 
BRANCH  18  19
ATOM     19  C   UNL     1      -0.920  13.888  21.685  0.00  0.00    +0.000 C 
ATOM     20  C   UNL     1       0.463  14.571  21.826  0.00  0.00    +0.000 C 
ATOM     21  C   UNL     1       0.178  15.765  22.765  0.00  0.00    +0.000 C 
ATOM     22  C   UNL     1      -1.340  15.650  23.039  0.00  0.00    +0.000 C 
ATOM     23  C   UNL     1      -1.540  14.480  24.021  0.00  0.00    +0.000 C 
ATOM     24  C   UNL     1      -1.208  13.342  23.086  0.00  0.00    +0.000 C 
ATOM     25  O   UNL     1      -1.183  12.175  23.433  0.00  0.00    +0.000 OA
ATOM     26  C   UNL     1      -1.899  15.115  21.691  0.00  0.00    +0.000 C 
ATOM     27  C   UNL     1      -3.398  14.749  21.727  0.00  0.00    +0.000 C 
ATOM     28  C   UNL     1      -1.731  16.128  20.538  0.00  0.00    +0.000 C 
ENDBRANCH  18  19
ENDBRANCH  15  18
ENDBRANCH   4  15
TORSDOF 5
ENDMDL
MODEL 6
REMARK VINA RESULT:      -6.5      1.502      1.868
REMARK  Name = 
REMARK  8 active torsions:
REMARK  status: ('A' for Active; 'I' for Inactive)
REMARK    1  A    between atoms: C_1  and  O_2
REMARK    2  A    between atoms: O_2  and  C_3
REMARK    3  A    between atoms: C_6  and  N_7
REMARK    4  A    between atoms: N_10  and  S_11
REMARK    5  A    between atoms: S_11  and  C_14
REMARK    6  A    between atoms: C_14  and  C_15
REMARK    7  A    between atoms: C_22  and  C_23
REMARK    8  A    between atoms: C_22  and  C_24
REMARK                            x       y       z     vdW  Elec       q    Type
REMARK                         _______ _______ _______ _____ _____    ______ ____
ROOT
ATOM      1  N   UNL     1       2.162   8.124  18.850  0.00  0.00    +0.000 N 
ATOM      2  C   UNL     1       1.975   9.292  17.980  0.00  0.00    +0.000 C 
ATOM      3  C   UNL     1       0.534   9.821  18.116  0.00  0.00    +0.000 C 
ATOM      4  N   UNL     1       0.148  10.108  19.535  0.00  0.00    +0.000 NA
ATOM      5  C   UNL     1       0.346   8.854  20.363  0.00  0.00    +0.000 C 
ATOM      6  C   UNL     1       1.787   8.309  20.264  0.00  0.00    +0.000 C 
ENDROOT
BRANCH   1  10
ATOM      7  C   UNL     1       4.005   4.720  17.193  0.00  0.00    +0.000 A 
ATOM      8  C   UNL     1       4.532   5.986  16.965  0.00  0.00    +0.000 A 
ATOM      9  C   UNL     1       3.952   7.106  17.566  0.00  0.00    +0.000 A 
ATOM     10  C   UNL     1       2.815   7.005  18.378  0.00  0.00    +0.000 A 
ATOM     11  C   UNL     1       2.320   5.717  18.617  0.00  0.00    +0.000 A 
ATOM     12  C   UNL     1       2.901   4.582  18.029  0.00  0.00    +0.000 A 
BRANCH   7  14
ATOM     13  C   UNL     1       5.644   4.108  15.613  0.00  0.00    +0.000 C 
ATOM     14  O   UNL     1       4.619   3.705  16.513  0.00  0.00    +0.000 OA
ENDBRANCH   7  14
ENDBRANCH   1  10
BRANCH   4  15
ATOM     15  S   UNL     1       0.784  11.516  20.261  0.00  0.00    +0.000 S 
ATOM     16  O   UNL     1       1.254  11.090  21.558  0.00  0.00    +0.000 OA
ATOM     17  O   UNL     1       1.685  12.124  19.306  0.00  0.00    +0.000 OA
BRANCH  15  18
ATOM     18  C   UNL     1      -0.680  12.563  20.430  0.00  0.00    +0.000 C 
BRANCH  18  19
ATOM     19  C   UNL     1      -0.554  13.674  21.463  0.00  0.00    +0.000 C 
ATOM     20  C   UNL     1       0.852  14.288  21.672  0.00  0.00    +0.000 C 
ATOM     21  C   UNL     1       0.560  15.602  22.430  0.00  0.00    +0.000 C 
ATOM     22  C   UNL     1      -0.983  15.610  22.550  0.00  0.00    +0.000 C 
ATOM     23  C   UNL     1      -1.361  14.582  23.634  0.00  0.00    +0.000 C 
ATOM     24  C   UNL     1      -1.019  13.321  22.879  0.00  0.00    +0.000 C 
ATOM     25  O   UNL     1      -1.110  12.207  23.359  0.00  0.00    +0.000 OA
ATOM     26  C   UNL     1      -1.440  14.947  21.221  0.00  0.00    +0.000 C 
ATOM     27  C   UNL     1      -2.957  14.675  21.138  0.00  0.00    +0.000 C 
ATOM     28  C   UNL     1      -1.086  15.799  19.984  0.00  0.00    +0.000 C 
ENDBRANCH  18  19
ENDBRANCH  15  18
ENDBRANCH   4  15
TORSDOF 5
ENDMDL
MODEL 7
REMARK VINA RESULT:      -6.4      1.071      1.948
REMARK  Name = 
REMARK  8 active torsions:
REMARK  status: ('A' for Active; 'I' for Inactive)
REMARK    1  A    between atoms: C_1  and  O_2
REMARK    2  A    between atoms: O_2  and  C_3
REMARK    3  A    between atoms: C_6  and  N_7
REMARK    4  A    between atoms: N_10  and  S_11
REMARK    5  A    between atoms: S_11  and  C_14
REMARK    6  A    between atoms: C_14  and  C_15
REMARK    7  A    between atoms: C_22  and  C_23
REMARK    8  A    between atoms: C_22  and  C_24
REMARK                            x       y       z     vdW  Elec       q    Type
REMARK                         _______ _______ _______ _____ _____    ______ ____
ROOT
ATOM      1  N   UNL     1       1.436   8.498  19.981  0.00  0.00    +0.000 N 
ATOM      2  C   UNL     1       1.110   9.873  19.579  0.00  0.00    +0.000 C 
ATOM      3  C   UNL     1      -0.385  10.151  19.825  0.00  0.00    +0.000 C 
ATOM      4  N   UNL     1      -0.810   9.860  21.232  0.00  0.00    +0.000 NA
ATOM      5  C   UNL     1      -0.464   8.423  21.565  0.00  0.00    +0.000 C 
ATOM      6  C   UNL     1       1.034   8.117  21.348  0.00  0.00    +0.000 C 
ENDROOT
BRANCH   1  10
ATOM      7  C   UNL     1       4.049   6.175  17.636  0.00  0.00    +0.000 A 
ATOM      8  C   UNL     1       3.512   5.660  18.810  0.00  0.00    +0.000 A 
ATOM      9  C   UNL     1       2.599   6.412  19.553  0.00  0.00    +0.000 A 
ATOM     10  C   UNL     1       2.223   7.706  19.171  0.00  0.00    +0.000 A 
ATOM     11  C   UNL     1       2.754   8.192  17.971  0.00  0.00    +0.000 A 
ATOM     12  C   UNL     1       3.663   7.442  17.209  0.00  0.00    +0.000 A 
BRANCH   7  14
ATOM     13  C   UNL     1       6.328   5.635  17.360  0.00  0.00    +0.000 C 
ATOM     14  O   UNL     1       4.971   5.375  17.020  0.00  0.00    +0.000 OA
ENDBRANCH   7  14
ENDBRANCH   1  10
BRANCH   4  15
ATOM     15  S   UNL     1      -0.355  10.973  22.444  0.00  0.00    +0.000 S 
ATOM     16  O   UNL     1       0.268  10.174  23.473  0.00  0.00    +0.000 OA
ATOM     17  O   UNL     1       0.368  12.045  21.795  0.00  0.00    +0.000 OA
BRANCH  15  18
ATOM     18  C   UNL     1      -1.951  11.605  23.011  0.00  0.00    +0.000 C 
BRANCH  18  19
ATOM     19  C   UNL     1      -2.289  13.009  22.528  0.00  0.00    +0.000 C 
ATOM     20  C   UNL     1      -1.902  13.367  21.071  0.00  0.00    +0.000 C 
ATOM     21  C   UNL     1      -2.727  14.642  20.786  0.00  0.00    +0.000 C 
ATOM     22  C   UNL     1      -3.514  14.861  22.099  0.00  0.00    +0.000 C 
ATOM     23  C   UNL     1      -2.520  15.410  23.141  0.00  0.00    +0.000 C 
ATOM     24  C   UNL     1      -1.706  14.157  23.358  0.00  0.00    +0.000 C 
ATOM     25  O   UNL     1      -0.737  14.106  24.092  0.00  0.00    +0.000 OA
ATOM     26  C   UNL     1      -3.805  13.412  22.578  0.00  0.00    +0.000 C 
ATOM     27  C   UNL     1      -4.453  13.324  23.976  0.00  0.00    +0.000 C 
ATOM     28  C   UNL     1      -4.745  12.650  21.619  0.00  0.00    +0.000 C 
ENDBRANCH  18  19
ENDBRANCH  15  18
ENDBRANCH   4  15
TORSDOF 5
ENDMDL
MODEL 8
REMARK VINA RESULT:      -6.4      1.948      2.634
REMARK  Name = 
REMARK  8 active torsions:
REMARK  status: ('A' for Active; 'I' for Inactive)
REMARK    1  A    between atoms: C_1  and  O_2
REMARK    2  A    between atoms: O_2  and  C_3
REMARK    3  A    between atoms: C_6  and  N_7
REMARK    4  A    between atoms: N_10  and  S_11
REMARK    5  A    between atoms: S_11  and  C_14
REMARK    6  A    between atoms: C_14  and  C_15
REMARK    7  A    between atoms: C_22  and  C_23
REMARK    8  A    between atoms: C_22  and  C_24
REMARK                            x       y       z     vdW  Elec       q    Type
REMARK                         _______ _______ _______ _____ _____    ______ ____
ROOT
ATOM      1  N   UNL     1       0.616  10.611  19.445  0.00  0.00    +0.000 N 
ATOM      2  C   UNL     1       1.313  11.903  19.483  0.00  0.00    +0.000 C 
ATOM      3  C   UNL     1       0.554  12.934  18.625  0.00  0.00    +0.000 C 
ATOM      4  N   UNL     1      -0.890  13.061  19.006  0.00  0.00    +0.000 NA
ATOM      5  C   UNL     1      -1.545  11.697  18.921  0.00  0.00    +0.000 C 
ATOM      6  C   UNL     1      -0.818  10.645  19.787  0.00  0.00    +0.000 C 
ENDROOT
BRANCH   1  10
ATOM      7  C   UNL     1       2.569   6.931  18.840  0.00  0.00    +0.000 A 
ATOM      8  C   UNL     1       2.507   7.870  17.817  0.00  0.00    +0.000 A 
ATOM      9  C   UNL     1       1.910   9.113  18.041  0.00  0.00    +0.000 A 
ATOM     10  C   UNL     1       1.329   9.443  19.273  0.00  0.00    +0.000 A 
ATOM     11  C   UNL     1       1.430   8.493  20.296  0.00  0.00    +0.000 A 
ATOM     12  C   UNL     1       2.038   7.245  20.086  0.00  0.00    +0.000 A 
BRANCH   7  14
ATOM     13  C   UNL     1       2.230   4.785  17.923  0.00  0.00    +0.000 C 
ATOM     14  O   UNL     1       3.126   5.731  18.492  0.00  0.00    +0.000 OA
ENDBRANCH   7  14
ENDBRANCH   1  10
BRANCH   4  15
ATOM     15  S   UNL     1      -1.260  13.911  20.439  0.00  0.00    +0.000 S 
ATOM     16  O   UNL     1      -0.313  13.429  21.417  0.00  0.00    +0.000 OA
ATOM     17  O   UNL     1      -1.330  15.316  20.101  0.00  0.00    +0.000 OA
BRANCH  15  18
ATOM     18  C   UNL     1      -2.924  13.320  20.824  0.00  0.00    +0.000 C 
BRANCH  18  19
ATOM     19  C   UNL     1      -3.389  13.603  22.246  0.00  0.00    +0.000 C 
ATOM     20  C   UNL     1      -2.790  14.846  22.951  0.00  0.00    +0.000 C 
ATOM     21  C   UNL     1      -3.742  15.073  24.147  0.00  0.00    +0.000 C 
ATOM     22  C   UNL     1      -4.795  13.951  23.983  0.00  0.00    +0.000 C 
ATOM     23  C   UNL     1      -4.127  12.631  24.415  0.00  0.00    +0.000 C 
ATOM     24  C   UNL     1      -3.176  12.469  23.253  0.00  0.00    +0.000 C 
ATOM     25  O   UNL     1      -2.373  11.558  23.167  0.00  0.00    +0.000 OA
ATOM     26  C   UNL     1      -4.931  13.821  22.441  0.00  0.00    +0.000 C 
ATOM     27  C   UNL     1      -5.815  12.644  21.979  0.00  0.00    +0.000 C 
ATOM     28  C   UNL     1      -5.527  15.089  21.792  0.00  0.00    +0.000 C 
ENDBRANCH  18  19
ENDBRANCH  15  18
ENDBRANCH   4  15
TORSDOF 5
ENDMDL
MODEL 9
REMARK VINA RESULT:      -6.4      1.374      1.862
REMARK  Name = 
REMARK  8 active torsions:
REMARK  status: ('A' for Active; 'I' for Inactive)
REMARK    1  A    between atoms: C_1  and  O_2
REMARK    2  A    between atoms: O_2  and  C_3
REMARK    3  A    between atoms: C_6  and  N_7
REMARK    4  A    between atoms: N_10  and  S_11
REMARK    5  A    between atoms: S_11  and  C_14
REMARK    6  A    between atoms: C_14  and  C_15
REMARK    7  A    between atoms: C_22  and  C_23
REMARK    8  A    between atoms: C_22  and  C_24
REMARK                            x       y       z     vdW  Elec       q    Type
REMARK                         _______ _______ _______ _____ _____    ______ ____
ROOT
ATOM      1  N   UNL     1       1.892   8.331  19.204  0.00  0.00    +0.000 N 
ATOM      2  C   UNL     1       1.690   9.476  18.307  0.00  0.00    +0.000 C 
ATOM      3  C   UNL     1       0.242   9.989  18.432  0.00  0.00    +0.000 C 
ATOM      4  N   UNL     1      -0.147  10.304  19.843  0.00  0.00    +0.000 NA
ATOM      5  C   UNL     1       0.067   9.073  20.701  0.00  0.00    +0.000 C 
ATOM      6  C   UNL     1       1.515   8.544  20.614  0.00  0.00    +0.000 C 
ENDROOT
BRANCH   1  10
ATOM      7  C   UNL     1       3.742   4.880  17.656  0.00  0.00    +0.000 A 
ATOM      8  C   UNL     1       4.101   6.139  17.189  0.00  0.00    +0.000 A 
ATOM      9  C   UNL     1       3.527   7.284  17.748  0.00  0.00    +0.000 A 
ATOM     10  C   UNL     1       2.559   7.209  18.757  0.00  0.00    +0.000 A 
ATOM     11  C   UNL     1       2.235   5.932  19.231  0.00  0.00    +0.000 A 
ATOM     12  C   UNL     1       2.813   4.775  18.686  0.00  0.00    +0.000 A 
BRANCH   7  14
ATOM     13  C   UNL     1       5.310   4.186  16.038  0.00  0.00    +0.000 C 
ATOM     14  O   UNL     1       4.325   3.831  17.001  0.00  0.00    +0.000 OA
ENDBRANCH   7  14
ENDBRANCH   1  10
BRANCH   4  15
ATOM     15  S   UNL     1       0.472  11.737  20.536  0.00  0.00    +0.000 S 
ATOM     16  O   UNL     1       0.616  11.443  21.942  0.00  0.00    +0.000 OA
ATOM     17  O   UNL     1       1.609  12.144  19.741  0.00  0.00    +0.000 OA
BRANCH  15  18
ATOM     18  C   UNL     1      -0.876  12.912  20.270  0.00  0.00    +0.000 C 
BRANCH  18  19
ATOM     19  C   UNL     1      -1.983  12.860  21.313  0.00  0.00    +0.000 C 
ATOM     20  C   UNL     1      -1.923  11.712  22.351  0.00  0.00    +0.000 C 
ATOM     21  C   UNL     1      -2.894  12.179  23.458  0.00  0.00    +0.000 C 
ATOM     22  C   UNL     1      -3.385  13.554  22.947  0.00  0.00    +0.000 C 
ATOM     23  C   UNL     1      -4.385  13.286  21.806  0.00  0.00    +0.000 C 
ATOM     24  C   UNL     1      -3.411  12.789  20.764  0.00  0.00    +0.000 C 
ATOM     25  O   UNL     1      -3.750  12.396  19.663  0.00  0.00    +0.000 OA
ATOM     26  C   UNL     1      -2.133  14.127  22.228  0.00  0.00    +0.000 C 
ATOM     27  C   UNL     1      -2.385  15.447  21.471  0.00  0.00    +0.000 C 
ATOM     28  C   UNL     1      -0.968  14.405  23.202  0.00  0.00    +0.000 C 
ENDBRANCH  18  19
ENDBRANCH  15  18
ENDBRANCH   4  15
TORSDOF 5
ENDMDL
