MODEL 1
REMARK VINA RESULT:      -7.2      0.000      0.000
REMARK  Name = 
REMARK  9 active torsions:
REMARK  status: ('A' for Active; 'I' for Inactive)
REMARK    1  A    between atoms: C_1  and  C_2
REMARK    2  A    between atoms: C_2  and  C_3
REMARK    3  A    between atoms: C_3  and  C_4
REMARK    4  A    between atoms: C_4  and  O_5
REMARK    5  A    between atoms: O_5  and  C_6
REMARK    6  A    between atoms: C_6  and  C_8
REMARK    7  A    between atoms: C_8  and  C_9
REMARK    8  A    between atoms: C_21  and  C_23
REMARK    9  A    between atoms: C_26  and  C_27
REMARK                            x       y       z     vdW  Elec       q    Type
REMARK                         _______ _______ _______ _____ _____    ______ ____
ROOT
ATOM      1  C   UNL     1       4.519   5.066  17.686  0.00  0.00    +0.000 C 
ATOM      2  C   UNL     1       4.018   3.640  17.903  0.00  0.00    +0.000 A 
ATOM      3  C   UNL     1       4.647   2.428  17.654  0.00  0.00    +0.000 A 
ATOM      4  C   UNL     1       4.001   1.229  18.025  0.00  0.00    +0.000 A 
ATOM      5  C   UNL     1       2.735   1.232  18.634  0.00  0.00    +0.000 A 
ATOM      6  C   UNL     1       2.089   2.430  18.850  0.00  0.00    +0.000 A 
ATOM      7 CL   UNL     1       0.551   2.434  19.631  0.00  0.00    +0.000 Cl
ATOM      8  C   UNL     1       2.746   3.580  18.463  0.00  0.00    +0.000 A 
ATOM      9  S   UNL     1       2.158   5.149  18.825  0.00  0.00    +0.000 S 
ATOM     10  O   UNL     1       1.055   5.429  17.954  0.00  0.00    +0.000 OA
ATOM     11  O   UNL     1       2.104   5.200  20.271  0.00  0.00    +0.000 OA
ATOM     12  N   UNL     1       3.513   6.025  18.309  0.00  0.00    +0.000 N 
ATOM     13  C   UNL     1       3.487   7.435  18.025  0.00  0.00    +0.000 C 
ATOM     14  O   UNL     1       4.415   7.960  17.416  0.00  0.00    +0.000 OA
ENDROOT
BRANCH  13  15
ATOM     15  C   UNL     1       2.322   8.297  18.450  0.00  0.00    +0.000 A 
ATOM     16  C   UNL     1       1.506   8.991  17.553  0.00  0.00    +0.000 A 
ATOM     17  C   UNL     1       0.560   9.926  17.957  0.00  0.00    +0.000 A 
ATOM     18  C   UNL     1       0.241  10.057  19.300  0.00  0.00    +0.000 A 
ATOM     19  C   UNL     1       0.966   9.293  20.231  0.00  0.00    +0.000 A 
ATOM     20  C   UNL     1       2.017   8.445  19.812  0.00  0.00    +0.000 A 
BRANCH  18  21
ATOM     21  C   UNL     1      -0.930  10.922  19.686  0.00  0.00    +0.000 C 
ATOM     22  F   UNL     1      -2.087  10.580  19.035  0.00  0.00    +0.000 F 
ATOM     23  F   UNL     1      -1.222  10.822  21.013  0.00  0.00    +0.000 F 
ATOM     24  F   UNL     1      -0.739  12.239  19.431  0.00  0.00    +0.000 F 
ENDBRANCH  18  21
ENDBRANCH  13  15
BRANCH   1  25
ATOM     25  C   UNL     1       5.954   5.321  18.156  0.00  0.00    +0.000 C 
BRANCH  25  26
ATOM     26  C   UNL     1       6.979   5.006  17.103  0.00  0.00    +0.000 C 
ATOM     27  O   UNL     1       8.040   4.446  17.340  0.00  0.00    +0.000 OA
BRANCH  26  28
ATOM     28  O   UNL     1       6.568   5.436  15.881  0.00  0.00    +0.000 OA
BRANCH  28  29
ATOM     29  C   UNL     1       6.920   4.591  14.774  0.00  0.00    +0.000 C 
BRANCH  29  30
ATOM     30  C   UNL     1       5.676   4.116  14.024  0.00  0.00    +0.000 C 
BRANCH  30  32
ATOM     31  C   UNL     1       4.833   3.244  11.808  0.00  0.00    +0.000 C 
ATOM     32  C   UNL     1       6.050   3.471  12.690  0.00  0.00    +0.000 C 
ENDBRANCH  30  32
ENDBRANCH  29  30
ENDBRANCH  28  29
ENDBRANCH  26  28
ENDBRANCH  25  26
ENDBRANCH   1  25
TORSDOF 8
ENDMDL
MODEL 2
REMARK VINA RESULT:      -7.1      1.379      1.911
REMARK  Name = 
REMARK  9 active torsions:
REMARK  status: ('A' for Active; 'I' for Inactive)
REMARK    1  A    between atoms: C_1  and  C_2
REMARK    2  A    between atoms: C_2  and  C_3
REMARK    3  A    between atoms: C_3  and  C_4
REMARK    4  A    between atoms: C_4  and  O_5
REMARK    5  A    between atoms: O_5  and  C_6
REMARK    6  A    between atoms: C_6  and  C_8
REMARK    7  A    between atoms: C_8  and  C_9
REMARK    8  A    between atoms: C_21  and  C_23
REMARK    9  A    between atoms: C_26  and  C_27
REMARK                            x       y       z     vdW  Elec       q    Type
REMARK                         _______ _______ _______ _____ _____    ______ ____
ROOT
ATOM      1  C   UNL     1       3.563   5.529  17.728  0.00  0.00    +0.000 C 
ATOM      2  C   UNL     1       3.392   4.061  18.111  0.00  0.00    +0.000 A 
ATOM      3  C   UNL     1       3.953   2.923  17.547  0.00  0.00    +0.000 A 
ATOM      4  C   UNL     1       3.705   1.667  18.142  0.00  0.00    +0.000 A 
ATOM      5  C   UNL     1       2.900   1.540  19.286  0.00  0.00    +0.000 A 
ATOM      6  C   UNL     1       2.311   2.662  19.829  0.00  0.00    +0.000 A 
ATOM      7 CL   UNL     1       1.352   2.509  21.255  0.00  0.00    +0.000 Cl
ATOM      8  C   UNL     1       2.565   3.870  19.213  0.00  0.00    +0.000 A 
ATOM      9  S   UNL     1       2.055   5.370  19.867  0.00  0.00    +0.000 S 
ATOM     10  O   UNL     1       0.645   5.500  19.647  0.00  0.00    +0.000 OA
ATOM     11  O   UNL     1       2.702   5.449  21.160  0.00  0.00    +0.000 OA
ATOM     12  N   UNL     1       2.884   6.382  18.791  0.00  0.00    +0.000 N 
ATOM     13  C   UNL     1       2.567   7.772  18.604  0.00  0.00    +0.000 C 
ATOM     14  O   UNL     1       3.020   8.385  17.641  0.00  0.00    +0.000 OA
ENDROOT
BRANCH  13  15
ATOM     15  C   UNL     1       1.665   8.506  19.568  0.00  0.00    +0.000 A 
ATOM     16  C   UNL     1       0.692   9.425  19.168  0.00  0.00    +0.000 A 
ATOM     17  C   UNL     1      -0.002  10.231  20.064  0.00  0.00    +0.000 A 
ATOM     18  C   UNL     1       0.101  10.003  21.428  0.00  0.00    +0.000 A 
ATOM     19  C   UNL     1       0.990   9.008  21.869  0.00  0.00    +0.000 A 
ATOM     20  C   UNL     1       1.787   8.289  20.950  0.00  0.00    +0.000 A 
BRANCH  18  21
ATOM     21  C   UNL     1      -0.818  10.750  22.359  0.00  0.00    +0.000 C 
ATOM     22  F   UNL     1      -0.261  11.900  22.855  0.00  0.00    +0.000 F 
ATOM     23  F   UNL     1      -1.963  11.148  21.734  0.00  0.00    +0.000 F 
ATOM     24  F   UNL     1      -1.200  10.028  23.440  0.00  0.00    +0.000 F 
ENDBRANCH  18  21
ENDBRANCH  13  15
BRANCH   1  25
ATOM     25  C   UNL     1       5.008   5.958  17.454  0.00  0.00    +0.000 C 
BRANCH  25  26
ATOM     26  C   UNL     1       5.333   6.018  15.989  0.00  0.00    +0.000 C 
ATOM     27  O   UNL     1       4.960   6.919  15.250  0.00  0.00    +0.000 OA
BRANCH  26  28
ATOM     28  O   UNL     1       6.076   4.944  15.611  0.00  0.00    +0.000 OA
BRANCH  28  29
ATOM     29  C   UNL     1       5.546   4.172  14.523  0.00  0.00    +0.000 C 
BRANCH  29  30
ATOM     30  C   UNL     1       6.501   4.170  13.330  0.00  0.00    +0.000 C 
BRANCH  30  32
ATOM     31  C   UNL     1       4.680   3.408  11.753  0.00  0.00    +0.000 C 
ATOM     32  C   UNL     1       6.077   3.136  12.287  0.00  0.00    +0.000 C 
ENDBRANCH  30  32
ENDBRANCH  29  30
ENDBRANCH  28  29
ENDBRANCH  26  28
ENDBRANCH  25  26
ENDBRANCH   1  25
TORSDOF 8
ENDMDL
MODEL 3
REMARK VINA RESULT:      -7.1      1.311      1.855
REMARK  Name = 
REMARK  9 active torsions:
REMARK  status: ('A' for Active; 'I' for Inactive)
REMARK    1  A    between atoms: C_1  and  C_2
REMARK    2  A    between atoms: C_2  and  C_3
REMARK    3  A    between atoms: C_3  and  C_4
REMARK    4  A    between atoms: C_4  and  O_5
REMARK    5  A    between atoms: O_5  and  C_6
REMARK    6  A    between atoms: C_6  and  C_8
REMARK    7  A    between atoms: C_8  and  C_9
REMARK    8  A    between atoms: C_21  and  C_23
REMARK    9  A    between atoms: C_26  and  C_27
REMARK                            x       y       z     vdW  Elec       q    Type
REMARK                         _______ _______ _______ _____ _____    ______ ____
ROOT
ATOM      1  C   UNL     1       3.647   5.370  17.586  0.00  0.00    +0.000 C 
ATOM      2  C   UNL     1       3.432   3.918  18.005  0.00  0.00    +0.000 A 
ATOM      3  C   UNL     1       3.950   2.750  17.464  0.00  0.00    +0.000 A 
ATOM      4  C   UNL     1       3.666   1.517  18.092  0.00  0.00    +0.000 A 
ATOM      5  C   UNL     1       2.869   1.444  19.246  0.00  0.00    +0.000 A 
ATOM      6  C   UNL     1       2.323   2.597  19.767  0.00  0.00    +0.000 A 
ATOM      7 CL   UNL     1       1.374   2.509  21.205  0.00  0.00    +0.000 Cl
ATOM      8  C   UNL     1       2.611   3.780  19.119  0.00  0.00    +0.000 A 
ATOM      9  S   UNL     1       2.156   5.311  19.743  0.00  0.00    +0.000 S 
ATOM     10  O   UNL     1       0.749   5.483  19.532  0.00  0.00    +0.000 OA
ATOM     11  O   UNL     1       2.818   5.400  21.027  0.00  0.00    +0.000 OA
ATOM     12  N   UNL     1       3.007   6.270  18.634  0.00  0.00    +0.000 N 
ATOM     13  C   UNL     1       2.734   7.665  18.417  0.00  0.00    +0.000 C 
ATOM     14  O   UNL     1       3.196   8.239  17.435  0.00  0.00    +0.000 OA
ENDROOT
BRANCH  13  15
ATOM     15  C   UNL     1       1.866   8.451  19.371  0.00  0.00    +0.000 A 
ATOM     16  C   UNL     1       1.825   8.220  20.748  0.00  0.00    +0.000 A 
ATOM     17  C   UNL     1       0.891   8.816  21.588  0.00  0.00    +0.000 A 
ATOM     18  C   UNL     1       0.081   9.838  21.115  0.00  0.00    +0.000 A 
ATOM     19  C   UNL     1       0.170  10.178  19.754  0.00  0.00    +0.000 A 
ATOM     20  C   UNL     1       1.031   9.470  18.885  0.00  0.00    +0.000 A 
BRANCH  18  21
ATOM     21  C   UNL     1      -0.768  10.602  22.097  0.00  0.00    +0.000 C 
ATOM     22  F   UNL     1      -1.896  11.135  21.529  0.00  0.00    +0.000 F 
ATOM     23  F   UNL     1      -1.218   9.808  23.109  0.00  0.00    +0.000 F 
ATOM     24  F   UNL     1      -0.122  11.642  22.679  0.00  0.00    +0.000 F 
ENDBRANCH  18  21
ENDBRANCH  13  15
BRANCH   1  25
ATOM     25  C   UNL     1       5.102   5.745  17.288  0.00  0.00    +0.000 C 
BRANCH  25  26
ATOM     26  C   UNL     1       5.390   5.854  15.818  0.00  0.00    +0.000 C 
ATOM     27  O   UNL     1       5.055   6.810  15.133  0.00  0.00    +0.000 OA
BRANCH  26  28
ATOM     28  O   UNL     1       6.052   4.754  15.369  0.00  0.00    +0.000 OA
BRANCH  28  29
ATOM     29  C   UNL     1       5.435   4.060  14.274  0.00  0.00    +0.000 C 
BRANCH  29  30
ATOM     30  C   UNL     1       6.410   3.884  13.112  0.00  0.00    +0.000 C 
BRANCH  30  32
ATOM     31  C   UNL     1       4.425   3.382  11.631  0.00  0.00    +0.000 C 
ATOM     32  C   UNL     1       5.829   2.964  12.039  0.00  0.00    +0.000 C 
ENDBRANCH  30  32
ENDBRANCH  29  30
ENDBRANCH  28  29
ENDBRANCH  26  28
ENDBRANCH  25  26
ENDBRANCH   1  25
TORSDOF 8
ENDMDL
MODEL 4
REMARK VINA RESULT:      -6.9      1.498      2.057
REMARK  Name = 
REMARK  9 active torsions:
REMARK  status: ('A' for Active; 'I' for Inactive)
REMARK    1  A    between atoms: C_1  and  C_2
REMARK    2  A    between atoms: C_2  and  C_3
REMARK    3  A    between atoms: C_3  and  C_4
REMARK    4  A    between atoms: C_4  and  O_5
REMARK    5  A    between atoms: O_5  and  C_6
REMARK    6  A    between atoms: C_6  and  C_8
REMARK    7  A    between atoms: C_8  and  C_9
REMARK    8  A    between atoms: C_21  and  C_23
REMARK    9  A    between atoms: C_26  and  C_27
REMARK                            x       y       z     vdW  Elec       q    Type
REMARK                         _______ _______ _______ _____ _____    ______ ____
ROOT
ATOM      1  C   UNL     1       3.328   5.650  17.834  0.00  0.00    +0.000 C 
ATOM      2  C   UNL     1       3.175   4.184  18.231  0.00  0.00    +0.000 A 
ATOM      3  C   UNL     1       3.723   3.045  17.656  0.00  0.00    +0.000 A 
ATOM      4  C   UNL     1       3.499   1.791  18.267  0.00  0.00    +0.000 A 
ATOM      5  C   UNL     1       2.731   1.669  19.438  0.00  0.00    +0.000 A 
ATOM      6  C   UNL     1       2.155   2.792  19.992  0.00  0.00    +0.000 A 
ATOM      7 CL   UNL     1       1.243   2.644  21.449  0.00  0.00    +0.000 Cl
ATOM      8  C   UNL     1       2.385   3.996  19.360  0.00  0.00    +0.000 A 
ATOM      9  S   UNL     1       1.890   5.498  20.022  0.00  0.00    +0.000 S 
ATOM     10  O   UNL     1       0.473   5.622  19.846  0.00  0.00    +0.000 OA
ATOM     11  O   UNL     1       2.578   5.588  21.293  0.00  0.00    +0.000 OA
ATOM     12  N   UNL     1       2.680   6.507  18.913  0.00  0.00    +0.000 N 
ATOM     13  C   UNL     1       2.351   7.895  18.728  0.00  0.00    +0.000 C 
ATOM     14  O   UNL     1       2.770   8.503  17.747  0.00  0.00    +0.000 OA
ENDROOT
BRANCH  13  15
ATOM     15  C   UNL     1       1.478   8.631  19.715  0.00  0.00    +0.000 A 
ATOM     16  C   UNL     1       0.367   9.394  19.346  0.00  0.00    +0.000 A 
ATOM     17  C   UNL     1      -0.316  10.216  20.235  0.00  0.00    +0.000 A 
ATOM     18  C   UNL     1      -0.043  10.151  21.593  0.00  0.00    +0.000 A 
ATOM     19  C   UNL     1       0.999   9.309  22.021  0.00  0.00    +0.000 A 
ATOM     20  C   UNL     1       1.771   8.581  21.087  0.00  0.00    +0.000 A 
BRANCH  18  21
ATOM     21  C   UNL     1      -0.938  10.895  22.549  0.00  0.00    +0.000 C 
ATOM     22  F   UNL     1      -0.387  12.067  22.998  0.00  0.00    +0.000 F 
ATOM     23  F   UNL     1      -2.118  11.254  21.967  0.00  0.00    +0.000 F 
ATOM     24  F   UNL     1      -1.255  10.186  23.660  0.00  0.00    +0.000 F 
ENDBRANCH  18  21
ENDBRANCH  13  15
BRANCH   1  25
ATOM     25  C   UNL     1       4.761   6.082  17.511  0.00  0.00    +0.000 C 
BRANCH  25  26
ATOM     26  C   UNL     1       5.783   5.433  18.400  0.00  0.00    +0.000 C 
ATOM     27  O   UNL     1       5.744   5.481  19.621  0.00  0.00    +0.000 OA
BRANCH  26  28
ATOM     28  O   UNL     1       6.741   4.809  17.664  0.00  0.00    +0.000 OA
BRANCH  28  29
ATOM     29  C   UNL     1       6.930   5.312  16.333  0.00  0.00    +0.000 C 
BRANCH  29  30
ATOM     30  C   UNL     1       6.853   4.188  15.301  0.00  0.00    +0.000 C 
BRANCH  30  32
ATOM     31  C   UNL     1       5.825   3.603  13.068  0.00  0.00    +0.000 C 
ATOM     32  C   UNL     1       5.661   4.380  14.365  0.00  0.00    +0.000 C 
ENDBRANCH  30  32
ENDBRANCH  29  30
ENDBRANCH  28  29
ENDBRANCH  26  28
ENDBRANCH  25  26
ENDBRANCH   1  25
TORSDOF 8
ENDMDL
MODEL 5
REMARK VINA RESULT:      -6.9      1.520      2.202
REMARK  Name = 
REMARK  9 active torsions:
REMARK  status: ('A' for Active; 'I' for Inactive)
REMARK    1  A    between atoms: C_1  and  C_2
REMARK    2  A    between atoms: C_2  and  C_3
REMARK    3  A    between atoms: C_3  and  C_4
REMARK    4  A    between atoms: C_4  and  O_5
REMARK    5  A    between atoms: O_5  and  C_6
REMARK    6  A    between atoms: C_6  and  C_8
REMARK    7  A    between atoms: C_8  and  C_9
REMARK    8  A    between atoms: C_21  and  C_23
REMARK    9  A    between atoms: C_26  and  C_27
REMARK                            x       y       z     vdW  Elec       q    Type
REMARK                         _______ _______ _______ _____ _____    ______ ____
ROOT
ATOM      1  C   UNL     1       3.450   5.384  17.727  0.00  0.00    +0.000 C 
ATOM      2  C   UNL     1       3.255   3.940  18.182  0.00  0.00    +0.000 A 
ATOM      3  C   UNL     1       3.752   2.762  17.640  0.00  0.00    +0.000 A 
ATOM      4  C   UNL     1       3.498   1.541  18.302  0.00  0.00    +0.000 A 
ATOM      5  C   UNL     1       2.750   1.488  19.490  0.00  0.00    +0.000 A 
ATOM      6  C   UNL     1       2.224   2.650  20.012  0.00  0.00    +0.000 A 
ATOM      7 CL   UNL     1       1.336   2.587  21.491  0.00  0.00    +0.000 Cl
ATOM      8  C   UNL     1       2.482   3.821  19.332  0.00  0.00    +0.000 A 
ATOM      9  S   UNL     1       2.051   5.363  19.946  0.00  0.00    +0.000 S 
ATOM     10  O   UNL     1       0.636   5.529  19.792  0.00  0.00    +0.000 OA
ATOM     11  O   UNL     1       2.766   5.476  21.199  0.00  0.00    +0.000 OA
ATOM     12  N   UNL     1       2.853   6.302  18.785  0.00  0.00    +0.000 N 
ATOM     13  C   UNL     1       2.568   7.693  18.555  0.00  0.00    +0.000 C 
ATOM     14  O   UNL     1       2.987   8.250  17.544  0.00  0.00    +0.000 OA
ENDROOT
BRANCH  13  15
ATOM     15  C   UNL     1       1.739   8.495  19.530  0.00  0.00    +0.000 A 
ATOM     16  C   UNL     1       1.755   8.288  20.911  0.00  0.00    +0.000 A 
ATOM     17  C   UNL     1       0.857   8.898  21.779  0.00  0.00    +0.000 A 
ATOM     18  C   UNL     1       0.027   9.911  21.322  0.00  0.00    +0.000 A 
ATOM     19  C   UNL     1       0.060  10.228  19.953  0.00  0.00    +0.000 A 
ATOM     20  C   UNL     1       0.884   9.505  19.061  0.00  0.00    +0.000 A 
BRANCH  18  21
ATOM     21  C   UNL     1      -0.781  10.693  22.325  0.00  0.00    +0.000 C 
ATOM     22  F   UNL     1      -0.166  11.851  22.724  0.00  0.00    +0.000 F 
ATOM     23  F   UNL     1      -1.984  11.083  21.816  0.00  0.00    +0.000 F 
ATOM     24  F   UNL     1      -1.047  10.006  23.462  0.00  0.00    +0.000 F 
ENDBRANCH  18  21
ENDBRANCH  13  15
BRANCH   1  25
ATOM     25  C   UNL     1       4.890   5.755  17.362  0.00  0.00    +0.000 C 
BRANCH  25  26
ATOM     26  C   UNL     1       5.113   5.846  15.879  0.00  0.00    +0.000 C 
ATOM     27  O   UNL     1       5.170   6.905  15.269  0.00  0.00    +0.000 OA
BRANCH  26  28
ATOM     28  O   UNL     1       5.228   4.609  15.328  0.00  0.00    +0.000 OA
BRANCH  28  29
ATOM     29  C   UNL     1       6.459   4.348  14.636  0.00  0.00    +0.000 C 
BRANCH  29  30
ATOM     30  C   UNL     1       6.203   3.681  13.285  0.00  0.00    +0.000 C 
BRANCH  30  32
ATOM     31  C   UNL     1       8.010   5.360  12.739  0.00  0.00    +0.000 C 
ATOM     32  C   UNL     1       7.044   4.326  12.184  0.00  0.00    +0.000 C 
ENDBRANCH  30  32
ENDBRANCH  29  30
ENDBRANCH  28  29
ENDBRANCH  26  28
ENDBRANCH  25  26
ENDBRANCH   1  25
TORSDOF 8
ENDMDL
MODEL 6
REMARK VINA RESULT:      -6.9      1.804      2.942
REMARK  Name = 
REMARK  9 active torsions:
REMARK  status: ('A' for Active; 'I' for Inactive)
REMARK    1  A    between atoms: C_1  and  C_2
REMARK    2  A    between atoms: C_2  and  C_3
REMARK    3  A    between atoms: C_3  and  C_4
REMARK    4  A    between atoms: C_4  and  O_5
REMARK    5  A    between atoms: O_5  and  C_6
REMARK    6  A    between atoms: C_6  and  C_8
REMARK    7  A    between atoms: C_8  and  C_9
REMARK    8  A    between atoms: C_21  and  C_23
REMARK    9  A    between atoms: C_26  and  C_27
REMARK                            x       y       z     vdW  Elec       q    Type
REMARK                         _______ _______ _______ _____ _____    ______ ____
ROOT
ATOM      1  C   UNL     1       4.554   5.163  17.756  0.00  0.00    +0.000 C 
ATOM      2  C   UNL     1       4.046   3.731  17.899  0.00  0.00    +0.000 A 
ATOM      3  C   UNL     1       4.698   2.528  17.665  0.00  0.00    +0.000 A 
ATOM      4  C   UNL     1       4.032   1.317  17.957  0.00  0.00    +0.000 A 
ATOM      5  C   UNL     1       2.725   1.300  18.471  0.00  0.00    +0.000 A 
ATOM      6  C   UNL     1       2.060   2.490  18.670  0.00  0.00    +0.000 A 
ATOM      7 CL   UNL     1       0.468   2.468  19.336  0.00  0.00    +0.000 Cl
ATOM      8  C   UNL     1       2.736   3.652  18.363  0.00  0.00    +0.000 A 
ATOM      9  S   UNL     1       2.115   5.209  18.721  0.00  0.00    +0.000 S 
ATOM     10  O   UNL     1       1.078   5.507  17.778  0.00  0.00    +0.000 OA
ATOM     11  O   UNL     1       1.955   5.222  20.160  0.00  0.00    +0.000 OA
ATOM     12  N   UNL     1       3.500   6.103  18.328  0.00  0.00    +0.000 N 
ATOM     13  C   UNL     1       3.487   7.519  18.080  0.00  0.00    +0.000 C 
ATOM     14  O   UNL     1       4.454   8.063  17.554  0.00  0.00    +0.000 OA
ENDROOT
BRANCH  13  15
ATOM     15  C   UNL     1       2.289   8.366  18.439  0.00  0.00    +0.000 A 
ATOM     16  C   UNL     1       1.526   9.064  17.501  0.00  0.00    +0.000 A 
ATOM     17  C   UNL     1       0.547   9.986  17.855  0.00  0.00    +0.000 A 
ATOM     18  C   UNL     1       0.143  10.097  19.177  0.00  0.00    +0.000 A 
ATOM     19  C   UNL     1       0.813   9.327  20.143  0.00  0.00    +0.000 A 
ATOM     20  C   UNL     1       1.897   8.494  19.782  0.00  0.00    +0.000 A 
BRANCH  18  21
ATOM     21  C   UNL     1      -1.058  10.948  19.498  0.00  0.00    +0.000 C 
ATOM     22  F   UNL     1      -2.226  10.439  18.992  0.00  0.00    +0.000 F 
ATOM     23  F   UNL     1      -1.265  11.051  20.841  0.00  0.00    +0.000 F 
ATOM     24  F   UNL     1      -0.970  12.213  19.022  0.00  0.00    +0.000 F 
ENDBRANCH  18  21
ENDBRANCH  13  15
BRANCH   1  25
ATOM     25  C   UNL     1       5.949   5.411  18.336  0.00  0.00    +0.000 C 
BRANCH  25  26
ATOM     26  C   UNL     1       7.013   5.512  17.280  0.00  0.00    +0.000 C 
ATOM     27  O   UNL     1       7.539   4.541  16.756  0.00  0.00    +0.000 OA
BRANCH  26  28
ATOM     28  O   UNL     1       7.304   6.812  17.007  0.00  0.00    +0.000 OA
BRANCH  28  29
ATOM     29  C   UNL     1       8.014   7.520  18.035  0.00  0.00    +0.000 C 
BRANCH  29  30
ATOM     30  C   UNL     1       7.989   9.027  17.785  0.00  0.00    +0.000 C 
BRANCH  30  32
ATOM     31  C   UNL     1       9.419  11.074  18.174  0.00  0.00    +0.000 C 
ATOM     32  C   UNL     1       8.918   9.761  18.752  0.00  0.00    +0.000 C 
ENDBRANCH  30  32
ENDBRANCH  29  30
ENDBRANCH  28  29
ENDBRANCH  26  28
ENDBRANCH  25  26
ENDBRANCH   1  25
TORSDOF 8
ENDMDL
MODEL 7
REMARK VINA RESULT:      -6.8      0.570      1.232
REMARK  Name = 
REMARK  9 active torsions:
REMARK  status: ('A' for Active; 'I' for Inactive)
REMARK    1  A    between atoms: C_1  and  C_2
REMARK    2  A    between atoms: C_2  and  C_3
REMARK    3  A    between atoms: C_3  and  C_4
REMARK    4  A    between atoms: C_4  and  O_5
REMARK    5  A    between atoms: O_5  and  C_6
REMARK    6  A    between atoms: C_6  and  C_8
REMARK    7  A    between atoms: C_8  and  C_9
REMARK    8  A    between atoms: C_21  and  C_23
REMARK    9  A    between atoms: C_26  and  C_27
REMARK                            x       y       z     vdW  Elec       q    Type
REMARK                         _______ _______ _______ _____ _____    ______ ____
ROOT
ATOM      1  C   UNL     1       4.383   5.090  17.484  0.00  0.00    +0.000 C 
ATOM      2  C   UNL     1       3.917   3.684  17.854  0.00  0.00    +0.000 A 
ATOM      3  C   UNL     1       4.490   2.453  17.569  0.00  0.00    +0.000 A 
ATOM      4  C   UNL     1       3.908   1.282  18.103  0.00  0.00    +0.000 A 
ATOM      5  C   UNL     1       2.760   1.334  18.911  0.00  0.00    +0.000 A 
ATOM      6  C   UNL     1       2.166   2.551  19.168  0.00  0.00    +0.000 A 
ATOM      7 CL   UNL     1       0.777   2.616  20.191  0.00  0.00    +0.000 Cl
ATOM      8  C   UNL     1       2.755   3.670  18.619  0.00  0.00    +0.000 A 
ATOM      9  S   UNL     1       2.243   5.264  18.990  0.00  0.00    +0.000 S 
ATOM     10  O   UNL     1       1.013   5.514  18.299  0.00  0.00    +0.000 OA
ATOM     11  O   UNL     1       2.430   5.389  20.421  0.00  0.00    +0.000 OA
ATOM     12  N   UNL     1       3.500   6.094  18.212  0.00  0.00    +0.000 N 
ATOM     13  C   UNL     1       3.434   7.487  17.864  0.00  0.00    +0.000 C 
ATOM     14  O   UNL     1       4.251   7.968  17.083  0.00  0.00    +0.000 OA
ENDROOT
BRANCH  13  15
ATOM     15  C   UNL     1       2.360   8.386  18.429  0.00  0.00    +0.000 A 
ATOM     16  C   UNL     1       2.085   8.500  19.793  0.00  0.00    +0.000 A 
ATOM     17  C   UNL     1       0.979   9.181  20.289  0.00  0.00    +0.000 A 
ATOM     18  C   UNL     1       0.206   9.961  19.443  0.00  0.00    +0.000 A 
ATOM     19  C   UNL     1       0.517   9.962  18.073  0.00  0.00    +0.000 A 
ATOM     20  C   UNL     1       1.564   9.158  17.567  0.00  0.00    +0.000 A 
BRANCH  18  21
ATOM     21  C   UNL     1      -0.854  10.848  20.043  0.00  0.00    +0.000 C 
ATOM     22  F   UNL     1      -0.500  12.172  20.055  0.00  0.00    +0.000 F 
ATOM     23  F   UNL     1      -2.020  10.796  19.339  0.00  0.00    +0.000 F 
ATOM     24  F   UNL     1      -1.161  10.536  21.325  0.00  0.00    +0.000 F 
ENDBRANCH  18  21
ENDBRANCH  13  15
BRANCH   1  25
ATOM     25  C   UNL     1       5.877   5.349  17.696  0.00  0.00    +0.000 C 
BRANCH  25  26
ATOM     26  C   UNL     1       6.574   5.814  16.449  0.00  0.00    +0.000 C 
ATOM     27  O   UNL     1       7.646   6.402  16.454  0.00  0.00    +0.000 OA
BRANCH  26  28
ATOM     28  O   UNL     1       5.849   5.503  15.342  0.00  0.00    +0.000 OA
BRANCH  28  29
ATOM     29  C   UNL     1       6.578   4.876  14.276  0.00  0.00    +0.000 C 
BRANCH  29  30
ATOM     30  C   UNL     1       5.886   3.596  13.811  0.00  0.00    +0.000 C 
BRANCH  30  32
ATOM     31  C   UNL     1       4.640   3.213  11.647  0.00  0.00    +0.000 C 
ATOM     32  C   UNL     1       5.998   3.428  12.297  0.00  0.00    +0.000 C 
ENDBRANCH  30  32
ENDBRANCH  29  30
ENDBRANCH  28  29
ENDBRANCH  26  28
ENDBRANCH  25  26
ENDBRANCH   1  25
TORSDOF 8
ENDMDL
MODEL 8
REMARK VINA RESULT:      -6.8      2.196      3.186
REMARK  Name = 
REMARK  9 active torsions:
REMARK  status: ('A' for Active; 'I' for Inactive)
REMARK    1  A    between atoms: C_1  and  C_2
REMARK    2  A    between atoms: C_2  and  C_3
REMARK    3  A    between atoms: C_3  and  C_4
REMARK    4  A    between atoms: C_4  and  O_5
REMARK    5  A    between atoms: O_5  and  C_6
REMARK    6  A    between atoms: C_6  and  C_8
REMARK    7  A    between atoms: C_8  and  C_9
REMARK    8  A    between atoms: C_21  and  C_23
REMARK    9  A    between atoms: C_26  and  C_27
REMARK                            x       y       z     vdW  Elec       q    Type
REMARK                         _______ _______ _______ _____ _____    ______ ____
ROOT
ATOM      1  C   UNL     1       3.205   5.520  17.830  0.00  0.00    +0.000 C 
ATOM      2  C   UNL     1       3.051   4.065  18.266  0.00  0.00    +0.000 A 
ATOM      3  C   UNL     1       3.570   2.907  17.703  0.00  0.00    +0.000 A 
ATOM      4  C   UNL     1       3.354   1.671  18.351  0.00  0.00    +0.000 A 
ATOM      5  C   UNL     1       2.622   1.584  19.547  0.00  0.00    +0.000 A 
ATOM      6  C   UNL     1       2.074   2.725  20.091  0.00  0.00    +0.000 A 
ATOM      7 CL   UNL     1       1.206   2.621  21.579  0.00  0.00    +0.000 Cl
ATOM      8  C   UNL     1       2.295   3.912  19.424  0.00  0.00    +0.000 A 
ATOM      9  S   UNL     1       1.834   5.434  20.064  0.00  0.00    +0.000 S 
ATOM     10  O   UNL     1       0.413   5.567  19.928  0.00  0.00    +0.000 OA
ATOM     11  O   UNL     1       2.561   5.548  21.310  0.00  0.00    +0.000 OA
ATOM     12  N   UNL     1       2.598   6.408  18.907  0.00  0.00    +0.000 N 
ATOM     13  C   UNL     1       2.276   7.794  18.699  0.00  0.00    +0.000 C 
ATOM     14  O   UNL     1       2.670   8.375  17.691  0.00  0.00    +0.000 OA
ENDROOT
BRANCH  13  15
ATOM     15  C   UNL     1       1.440   8.562  19.694  0.00  0.00    +0.000 A 
ATOM     16  C   UNL     1       0.388   9.406  19.332  0.00  0.00    +0.000 A 
ATOM     17  C   UNL     1      -0.252  10.250  20.234  0.00  0.00    +0.000 A 
ATOM     18  C   UNL     1      -0.001  10.133  21.593  0.00  0.00    +0.000 A 
ATOM     19  C   UNL     1       0.976   9.213  22.011  0.00  0.00    +0.000 A 
ATOM     20  C   UNL     1       1.711   8.459  21.068  0.00  0.00    +0.000 A 
BRANCH  18  21
ATOM     21  C   UNL     1      -0.859  10.911  22.557  0.00  0.00    +0.000 C 
ATOM     22  F   UNL     1      -0.298  12.105  22.930  0.00  0.00    +0.000 F 
ATOM     23  F   UNL     1      -2.067  11.236  22.017  0.00  0.00    +0.000 F 
ATOM     24  F   UNL     1      -1.116  10.249  23.711  0.00  0.00    +0.000 F 
ENDBRANCH  18  21
ENDBRANCH  13  15
BRANCH   1  25
ATOM     25  C   UNL     1       4.631   5.931  17.453  0.00  0.00    +0.000 C 
BRANCH  25  26
ATOM     26  C   UNL     1       5.653   5.496  18.465  0.00  0.00    +0.000 C 
ATOM     27  O   UNL     1       5.449   5.492  19.671  0.00  0.00    +0.000 OA
BRANCH  26  28
ATOM     28  O   UNL     1       6.812   5.128  17.858  0.00  0.00    +0.000 OA
BRANCH  28  29
ATOM     29  C   UNL     1       7.549   6.188  17.230  0.00  0.00    +0.000 C 
BRANCH  29  30
ATOM     30  C   UNL     1       7.987   7.237  18.251  0.00  0.00    +0.000 C 
BRANCH  30  32
ATOM     31  C   UNL     1       8.696   9.654  18.453  0.00  0.00    +0.000 C 
ATOM     32  C   UNL     1       7.857   8.649  17.681  0.00  0.00    +0.000 C 
ENDBRANCH  30  32
ENDBRANCH  29  30
ENDBRANCH  28  29
ENDBRANCH  26  28
ENDBRANCH  25  26
ENDBRANCH   1  25
TORSDOF 8
ENDMDL
MODEL 9
REMARK VINA RESULT:      -6.6      2.019      3.336
REMARK  Name = 
REMARK  9 active torsions:
REMARK  status: ('A' for Active; 'I' for Inactive)
REMARK    1  A    between atoms: C_1  and  C_2
REMARK    2  A    between atoms: C_2  and  C_3
REMARK    3  A    between atoms: C_3  and  C_4
REMARK    4  A    between atoms: C_4  and  O_5
REMARK    5  A    between atoms: O_5  and  C_6
REMARK    6  A    between atoms: C_6  and  C_8
REMARK    7  A    between atoms: C_8  and  C_9
REMARK    8  A    between atoms: C_21  and  C_23
REMARK    9  A    between atoms: C_26  and  C_27
REMARK                            x       y       z     vdW  Elec       q    Type
REMARK                         _______ _______ _______ _____ _____    ______ ____
ROOT
ATOM      1  C   UNL     1       3.525   5.110  17.433  0.00  0.00    +0.000 C 
ATOM      2  C   UNL     1       3.338   3.701  17.989  0.00  0.00    +0.000 A 
ATOM      3  C   UNL     1       3.817   2.487  17.515  0.00  0.00    +0.000 A 
ATOM      4  C   UNL     1       3.577   1.314  18.264  0.00  0.00    +0.000 A 
ATOM      5  C   UNL     1       2.862   1.344  19.472  0.00  0.00    +0.000 A 
ATOM      6  C   UNL     1       2.353   2.541  19.929  0.00  0.00    +0.000 A 
ATOM      7 CL   UNL     1       1.506   2.583  21.432  0.00  0.00    +0.000 Cl
ATOM      8  C   UNL     1       2.596   3.663  19.165  0.00  0.00    +0.000 A 
ATOM      9  S   UNL     1       2.186   5.245  19.685  0.00  0.00    +0.000 S 
ATOM     10  O   UNL     1       0.768   5.407  19.558  0.00  0.00    +0.000 OA
ATOM     11  O   UNL     1       2.936   5.438  20.908  0.00  0.00    +0.000 OA
ATOM     12  N   UNL     1       2.959   6.100  18.443  0.00  0.00    +0.000 N 
ATOM     13  C   UNL     1       2.672   7.474  18.127  0.00  0.00    +0.000 C 
ATOM     14  O   UNL     1       3.066   7.959  17.070  0.00  0.00    +0.000 OA
ENDROOT
BRANCH  13  15
ATOM     15  C   UNL     1       1.872   8.343  19.068  0.00  0.00    +0.000 A 
ATOM     16  C   UNL     1       1.886   8.196  20.456  0.00  0.00    +0.000 A 
ATOM     17  C   UNL     1       1.010   8.872  21.299  0.00  0.00    +0.000 A 
ATOM     18  C   UNL     1       0.212   9.890  20.800  0.00  0.00    +0.000 A 
ATOM     19  C   UNL     1       0.250  10.146  19.418  0.00  0.00    +0.000 A 
ATOM     20  C   UNL     1       1.048   9.359  18.557  0.00  0.00    +0.000 A 
BRANCH  18  21
ATOM     21  C   UNL     1      -0.568  10.740  21.768  0.00  0.00    +0.000 C 
ATOM     22  F   UNL     1       0.117  11.854  22.176  0.00  0.00    +0.000 F 
ATOM     23  F   UNL     1      -1.722  11.211  21.218  0.00  0.00    +0.000 F 
ATOM     24  F   UNL     1      -0.919  10.087  22.902  0.00  0.00    +0.000 F 
ENDBRANCH  18  21
ENDBRANCH  13  15
BRANCH   1  25
ATOM     25  C   UNL     1       4.955   5.449  17.005  0.00  0.00    +0.000 C 
BRANCH  25  26
ATOM     26  C   UNL     1       5.877   5.675  18.170  0.00  0.00    +0.000 C 
ATOM     27  O   UNL     1       6.183   4.801  18.969  0.00  0.00    +0.000 OA
BRANCH  26  28
ATOM     28  O   UNL     1       6.301   6.966  18.210  0.00  0.00    +0.000 OA
BRANCH  28  29
ATOM     29  C   UNL     1       7.706   7.167  17.988  0.00  0.00    +0.000 C 
BRANCH  29  30
ATOM     30  C   UNL     1       8.006   8.621  17.630  0.00  0.00    +0.000 C 
BRANCH  30  32
ATOM     31  C   UNL     1       9.261  10.699  18.334  0.00  0.00    +0.000 C 
ATOM     32  C   UNL     1       8.790   9.312  18.744  0.00  0.00    +0.000 C 
ENDBRANCH  30  32
ENDBRANCH  29  30
ENDBRANCH  28  29
ENDBRANCH  26  28
ENDBRANCH  25  26
ENDBRANCH   1  25
TORSDOF 8
ENDMDL
