MODEL 1
REMARK VINA RESULT:      -6.9      0.000      0.000
REMARK  Name = 
REMARK  7 active torsions:
REMARK  status: ('A' for Active; 'I' for Inactive)
REMARK    1  A    between atoms: C_1  and  C_2
REMARK    2  A    between atoms: C_2  and  S_3
REMARK    3  A    between atoms: S_3  and  N_6
REMARK    4  A    between atoms: N_6  and  C_7
REMARK    5  A    between atoms: C_7  and  C_8
REMARK    6  A    between atoms: C_15  and  C_16
REMARK    7  A    between atoms: N_17  and  C_18
REMARK                            x       y       z     vdW  Elec       q    Type
REMARK                         _______ _______ _______ _____ _____    ______ ____
ROOT
ATOM      1  C   UNL     1       3.817   6.305  17.775  0.00  0.00    +0.000 A 
ATOM      2  C   UNL     1       3.459   5.830  19.042  0.00  0.00    +0.000 A 
ATOM      3  C   UNL     1       2.581   6.528  19.866  0.00  0.00    +0.000 A 
ATOM      4  C   UNL     1       2.093   7.761  19.405  0.00  0.00    +0.000 A 
ATOM      5  C   UNL     1       2.437   8.268  18.153  0.00  0.00    +0.000 A 
ATOM      6  C   UNL     1       3.302   7.530  17.322  0.00  0.00    +0.000 A 
ATOM      7  C   UNL     1       1.782   9.521  18.022  0.00  0.00    +0.000 A 
ATOM      8  C   UNL     1       1.068   9.762  19.178  0.00  0.00    +0.000 A 
ATOM      9  C   UNL     1       0.238  10.939  19.544  0.00  0.00    +0.000 C 
ATOM     10  N   UNL     1       1.255   8.674  20.003  0.00  0.00    +0.000 N 
ATOM     11  C   UNL     1       0.690   8.491  21.324  0.00  0.00    +0.000 C 
ENDROOT
BRANCH   1  12
ATOM     12  C   UNL     1       4.760   5.517  16.901  0.00  0.00    +0.000 C 
BRANCH  12  13
ATOM     13  N   UNL     1       5.766   4.706  17.646  0.00  0.00    +0.000 NA
ATOM     14  H   UNL     1       5.562   4.701  18.642  0.00  0.00    +0.000 HD
BRANCH  13  15
ATOM     15  S   UNL     1       7.362   5.152  17.276  0.00  0.00    +0.000 S 
ATOM     16  O   UNL     1       7.330   5.703  15.933  0.00  0.00    +0.000 OA
ATOM     17  O   UNL     1       8.246   4.083  17.657  0.00  0.00    +0.000 OA
BRANCH  15  19
ATOM     18  C   UNL     1       7.655   7.814  17.602  0.00  0.00    +0.000 C 
ATOM     19  C   UNL     1       7.647   6.517  18.389  0.00  0.00    +0.000 C 
ENDBRANCH  15  19
ENDBRANCH  13  15
ENDBRANCH  12  13
ENDBRANCH   1  12
TORSDOF 4
ENDMDL
MODEL 2
REMARK VINA RESULT:      -6.9      1.537      1.788
REMARK  Name = 
REMARK  7 active torsions:
REMARK  status: ('A' for Active; 'I' for Inactive)
REMARK    1  A    between atoms: C_1  and  C_2
REMARK    2  A    between atoms: C_2  and  S_3
REMARK    3  A    between atoms: S_3  and  N_6
REMARK    4  A    between atoms: N_6  and  C_7
REMARK    5  A    between atoms: C_7  and  C_8
REMARK    6  A    between atoms: C_15  and  C_16
REMARK    7  A    between atoms: N_17  and  C_18
REMARK                            x       y       z     vdW  Elec       q    Type
REMARK                         _______ _______ _______ _____ _____    ______ ____
ROOT
ATOM      1  C   UNL     1       3.741   5.157  18.622  0.00  0.00    +0.000 A 
ATOM      2  C   UNL     1       3.194   5.105  19.909  0.00  0.00    +0.000 A 
ATOM      3  C   UNL     1       2.389   6.125  20.406  0.00  0.00    +0.000 A 
ATOM      4  C   UNL     1       2.174   7.245  19.589  0.00  0.00    +0.000 A 
ATOM      5  C   UNL     1       2.712   7.336  18.306  0.00  0.00    +0.000 A 
ATOM      6  C   UNL     1       3.498   6.276  17.810  0.00  0.00    +0.000 A 
ATOM      7  C   UNL     1       2.309   8.590  17.777  0.00  0.00    +0.000 A 
ATOM      8  C   UNL     1       1.553   9.241  18.730  0.00  0.00    +0.000 A 
ATOM      9  C   UNL     1       0.922  10.586  18.674  0.00  0.00    +0.000 C 
ATOM     10  N   UNL     1       1.467   8.403  19.821  0.00  0.00    +0.000 N 
ATOM     11  C   UNL     1       0.766   8.674  21.059  0.00  0.00    +0.000 C 
ENDROOT
BRANCH   1  12
ATOM     12  C   UNL     1       4.597   4.027  18.107  0.00  0.00    +0.000 C 
BRANCH  12  13
ATOM     13  N   UNL     1       6.008   4.049  18.587  0.00  0.00    +0.000 NA
ATOM     14  H   UNL     1       6.071   4.470  19.511  0.00  0.00    +0.000 HD
BRANCH  13  15
ATOM     15  S   UNL     1       7.070   4.733  17.452  0.00  0.00    +0.000 S 
ATOM     16  O   UNL     1       8.351   4.079  17.646  0.00  0.00    +0.000 OA
ATOM     17  O   UNL     1       6.916   6.164  17.471  0.00  0.00    +0.000 OA
BRANCH  15  19
ATOM     18  C   UNL     1       5.942   5.316  15.072  0.00  0.00    +0.000 C 
ATOM     19  C   UNL     1       6.412   4.137  15.904  0.00  0.00    +0.000 C 
ENDBRANCH  15  19
ENDBRANCH  13  15
ENDBRANCH  12  13
ENDBRANCH   1  12
TORSDOF 4
ENDMDL
MODEL 3
REMARK VINA RESULT:      -6.8      3.826      4.660
REMARK  Name = 
REMARK  7 active torsions:
REMARK  status: ('A' for Active; 'I' for Inactive)
REMARK    1  A    between atoms: C_1  and  C_2
REMARK    2  A    between atoms: C_2  and  S_3
REMARK    3  A    between atoms: S_3  and  N_6
REMARK    4  A    between atoms: N_6  and  C_7
REMARK    5  A    between atoms: C_7  and  C_8
REMARK    6  A    between atoms: C_15  and  C_16
REMARK    7  A    between atoms: N_17  and  C_18
REMARK                            x       y       z     vdW  Elec       q    Type
REMARK                         _______ _______ _______ _____ _____    ______ ____
ROOT
ATOM      1  C   UNL     1       5.210   5.600  17.614  0.00  0.00    +0.000 A 
ATOM      2  C   UNL     1       5.468   5.431  18.979  0.00  0.00    +0.000 A 
ATOM      3  C   UNL     1       4.655   4.643  19.788  0.00  0.00    +0.000 A 
ATOM      4  C   UNL     1       3.526   4.051  19.201  0.00  0.00    +0.000 A 
ATOM      5  C   UNL     1       3.232   4.207  17.847  0.00  0.00    +0.000 A 
ATOM      6  C   UNL     1       4.087   4.983  17.040  0.00  0.00    +0.000 A 
ATOM      7  C   UNL     1       2.030   3.493  17.601  0.00  0.00    +0.000 A 
ATOM      8  C   UNL     1       1.609   2.929  18.787  0.00  0.00    +0.000 A 
ATOM      9  C   UNL     1       0.400   2.109  19.064  0.00  0.00    +0.000 C 
ATOM     10  N   UNL     1       2.538   3.265  19.748  0.00  0.00    +0.000 N 
ATOM     11  C   UNL     1       2.504   2.886  21.146  0.00  0.00    +0.000 C 
ENDROOT
BRANCH   1  12
ATOM     12  C   UNL     1       6.119   6.449  16.762  0.00  0.00    +0.000 C 
BRANCH  12  13
ATOM     13  N   UNL     1       6.034   6.174  15.299  0.00  0.00    +0.000 NA
ATOM     14  H   UNL     1       5.079   5.961  15.024  0.00  0.00    +0.000 HD
BRANCH  13  15
ATOM     15  S   UNL     1       7.167   5.016  14.790  0.00  0.00    +0.000 S 
ATOM     16  O   UNL     1       7.766   4.473  15.996  0.00  0.00    +0.000 OA
ATOM     17  O   UNL     1       7.948   5.568  13.714  0.00  0.00    +0.000 OA
BRANCH  15  19
ATOM     18  C   UNL     1       6.341   3.668  12.605  0.00  0.00    +0.000 C 
ATOM     19  C   UNL     1       6.128   3.738  14.106  0.00  0.00    +0.000 C 
ENDBRANCH  15  19
ENDBRANCH  13  15
ENDBRANCH  12  13
ENDBRANCH   1  12
TORSDOF 4
ENDMDL
MODEL 4
REMARK VINA RESULT:      -6.8      3.654      4.761
REMARK  Name = 
REMARK  7 active torsions:
REMARK  status: ('A' for Active; 'I' for Inactive)
REMARK    1  A    between atoms: C_1  and  C_2
REMARK    2  A    between atoms: C_2  and  S_3
REMARK    3  A    between atoms: S_3  and  N_6
REMARK    4  A    between atoms: N_6  and  C_7
REMARK    5  A    between atoms: C_7  and  C_8
REMARK    6  A    between atoms: C_15  and  C_16
REMARK    7  A    between atoms: N_17  and  C_18
REMARK                            x       y       z     vdW  Elec       q    Type
REMARK                         _______ _______ _______ _____ _____    ______ ____
ROOT
ATOM      1  C   UNL     1       5.965   4.784  17.907  0.00  0.00    +0.000 A 
ATOM      2  C   UNL     1       5.543   5.539  19.007  0.00  0.00    +0.000 A 
ATOM      3  C   UNL     1       4.332   5.294  19.645  0.00  0.00    +0.000 A 
ATOM      4  C   UNL     1       3.510   4.283  19.121  0.00  0.00    +0.000 A 
ATOM      5  C   UNL     1       3.894   3.518  18.020  0.00  0.00    +0.000 A 
ATOM      6  C   UNL     1       5.139   3.763  17.410  0.00  0.00    +0.000 A 
ATOM      7  C   UNL     1       2.833   2.612  17.759  0.00  0.00    +0.000 A 
ATOM      8  C   UNL     1       1.831   2.838  18.679  0.00  0.00    +0.000 A 
ATOM      9  C   UNL     1       0.509   2.171  18.815  0.00  0.00    +0.000 C 
ATOM     10  N   UNL     1       2.264   3.847  19.511  0.00  0.00    +0.000 N 
ATOM     11  C   UNL     1       1.537   4.412  20.628  0.00  0.00    +0.000 C 
ENDROOT
BRANCH   1  12
ATOM     12  C   UNL     1       7.291   5.067  17.247  0.00  0.00    +0.000 C 
BRANCH  12  13
ATOM     13  N   UNL     1       7.524   4.321  15.977  0.00  0.00    +0.000 NA
ATOM     14  H   UNL     1       8.502   4.057  15.885  0.00  0.00    +0.000 HD
BRANCH  13  15
ATOM     15  S   UNL     1       6.907   5.139  14.622  0.00  0.00    +0.000 S 
ATOM     16  O   UNL     1       8.049   5.463  13.787  0.00  0.00    +0.000 OA
ATOM     17  O   UNL     1       5.961   6.129  15.066  0.00  0.00    +0.000 OA
BRANCH  15  19
ATOM     18  C   UNL     1       6.568   3.665  12.389  0.00  0.00    +0.000 C 
ATOM     19  C   UNL     1       5.996   3.856  13.782  0.00  0.00    +0.000 C 
ENDBRANCH  15  19
ENDBRANCH  13  15
ENDBRANCH  12  13
ENDBRANCH   1  12
TORSDOF 4
ENDMDL
MODEL 5
REMARK VINA RESULT:      -6.7      0.878      1.008
REMARK  Name = 
REMARK  7 active torsions:
REMARK  status: ('A' for Active; 'I' for Inactive)
REMARK    1  A    between atoms: C_1  and  C_2
REMARK    2  A    between atoms: C_2  and  S_3
REMARK    3  A    between atoms: S_3  and  N_6
REMARK    4  A    between atoms: N_6  and  C_7
REMARK    5  A    between atoms: C_7  and  C_8
REMARK    6  A    between atoms: C_15  and  C_16
REMARK    7  A    between atoms: N_17  and  C_18
REMARK                            x       y       z     vdW  Elec       q    Type
REMARK                         _______ _______ _______ _____ _____    ______ ____
ROOT
ATOM      1  C   UNL     1       4.059   5.374  18.126  0.00  0.00    +0.000 A 
ATOM      2  C   UNL     1       3.651   5.133  19.442  0.00  0.00    +0.000 A 
ATOM      3  C   UNL     1       2.797   6.000  20.117  0.00  0.00    +0.000 A 
ATOM      4  C   UNL     1       2.388   7.164  19.449  0.00  0.00    +0.000 A 
ATOM      5  C   UNL     1       2.784   7.442  18.141  0.00  0.00    +0.000 A 
ATOM      6  C   UNL     1       3.622   6.534  17.466  0.00  0.00    +0.000 A 
ATOM      7  C   UNL     1       2.202   8.689  17.790  0.00  0.00    +0.000 A 
ATOM      8  C   UNL     1       1.480   9.152  18.871  0.00  0.00    +0.000 A 
ATOM      9  C   UNL     1       0.710  10.414  19.018  0.00  0.00    +0.000 C 
ATOM     10  N   UNL     1       1.590   8.205  19.867  0.00  0.00    +0.000 N 
ATOM     11  C   UNL     1       0.990   8.270  21.183  0.00  0.00    +0.000 C 
ENDROOT
BRANCH   1  12
ATOM     12  C   UNL     1       4.974   4.406  17.418  0.00  0.00    +0.000 C 
BRANCH  12  13
ATOM     13  N   UNL     1       5.560   4.921  16.147  0.00  0.00    +0.000 NA
ATOM     14  H   UNL     1       5.319   4.317  15.365  0.00  0.00    +0.000 HD
BRANCH  13  15
ATOM     15  S   UNL     1       7.223   5.236  16.281  0.00  0.00    +0.000 S 
ATOM     16  O   UNL     1       7.680   5.585  14.948  0.00  0.00    +0.000 OA
ATOM     17  O   UNL     1       7.834   4.196  17.065  0.00  0.00    +0.000 OA
BRANCH  15  19
ATOM     18  C   UNL     1       7.867   6.443  18.606  0.00  0.00    +0.000 C 
ATOM     19  C   UNL     1       7.253   6.735  17.248  0.00  0.00    +0.000 C 
ENDBRANCH  15  19
ENDBRANCH  13  15
ENDBRANCH  12  13
ENDBRANCH   1  12
TORSDOF 4
ENDMDL
MODEL 6
REMARK VINA RESULT:      -6.6      1.094      1.227
REMARK  Name = 
REMARK  7 active torsions:
REMARK  status: ('A' for Active; 'I' for Inactive)
REMARK    1  A    between atoms: C_1  and  C_2
REMARK    2  A    between atoms: C_2  and  S_3
REMARK    3  A    between atoms: S_3  and  N_6
REMARK    4  A    between atoms: N_6  and  C_7
REMARK    5  A    between atoms: C_7  and  C_8
REMARK    6  A    between atoms: C_15  and  C_16
REMARK    7  A    between atoms: N_17  and  C_18
REMARK                            x       y       z     vdW  Elec       q    Type
REMARK                         _______ _______ _______ _____ _____    ______ ____
ROOT
ATOM      1  C   UNL     1       3.616   6.050  18.127  0.00  0.00    +0.000 A 
ATOM      2  C   UNL     1       3.131   5.773  19.410  0.00  0.00    +0.000 A 
ATOM      3  C   UNL     1       2.287   6.652  20.082  0.00  0.00    +0.000 A 
ATOM      4  C   UNL     1       1.968   7.863  19.448  0.00  0.00    +0.000 A 
ATOM      5  C   UNL     1       2.442   8.177  18.176  0.00  0.00    +0.000 A 
ATOM      6  C   UNL     1       3.269   7.257  17.501  0.00  0.00    +0.000 A 
ATOM      7  C   UNL     1       1.939   9.465  17.854  0.00  0.00    +0.000 A 
ATOM      8  C   UNL     1       1.187   9.916  18.919  0.00  0.00    +0.000 A 
ATOM      9  C   UNL     1       0.471  11.208  19.086  0.00  0.00    +0.000 C 
ATOM     10  N   UNL     1       1.201   8.924  19.875  0.00  0.00    +0.000 N 
ATOM     11  C   UNL     1       0.540   8.961  21.163  0.00  0.00    +0.000 C 
ENDROOT
BRANCH   1  12
ATOM     12  C   UNL     1       4.518   5.069  17.421  0.00  0.00    +0.000 C 
BRANCH  12  13
ATOM     13  N   UNL     1       5.207   5.615  16.216  0.00  0.00    +0.000 NA
ATOM     14  H   UNL     1       5.065   5.009  15.412  0.00  0.00    +0.000 HD
BRANCH  13  15
ATOM     15  S   UNL     1       6.837   5.987  16.514  0.00  0.00    +0.000 S 
ATOM     16  O   UNL     1       6.864   7.368  16.962  0.00  0.00    +0.000 OA
ATOM     17  O   UNL     1       7.633   5.510  15.414  0.00  0.00    +0.000 OA
BRANCH  15  19
ATOM     18  C   UNL     1       7.789   5.843  19.033  0.00  0.00    +0.000 C 
ATOM     19  C   UNL     1       7.209   4.973  17.934  0.00  0.00    +0.000 C 
ENDBRANCH  15  19
ENDBRANCH  13  15
ENDBRANCH  12  13
ENDBRANCH   1  12
TORSDOF 4
ENDMDL
MODEL 7
REMARK VINA RESULT:      -6.6      3.101      4.351
REMARK  Name = 
REMARK  7 active torsions:
REMARK  status: ('A' for Active; 'I' for Inactive)
REMARK    1  A    between atoms: C_1  and  C_2
REMARK    2  A    between atoms: C_2  and  S_3
REMARK    3  A    between atoms: S_3  and  N_6
REMARK    4  A    between atoms: N_6  and  C_7
REMARK    5  A    between atoms: C_7  and  C_8
REMARK    6  A    between atoms: C_15  and  C_16
REMARK    7  A    between atoms: N_17  and  C_18
REMARK                            x       y       z     vdW  Elec       q    Type
REMARK                         _______ _______ _______ _____ _____    ______ ____
ROOT
ATOM      1  C   UNL     1       2.611   6.943  18.570  0.00  0.00    +0.000 A 
ATOM      2  C   UNL     1       2.353   8.026  17.722  0.00  0.00    +0.000 A 
ATOM      3  C   UNL     1       1.712   9.175  18.173  0.00  0.00    +0.000 A 
ATOM      4  C   UNL     1       1.283   9.203  19.509  0.00  0.00    +0.000 A 
ATOM      5  C   UNL     1       1.514   8.138  20.379  0.00  0.00    +0.000 A 
ATOM      6  C   UNL     1       2.193   6.997  19.910  0.00  0.00    +0.000 A 
ATOM      7  C   UNL     1       0.943   8.496  21.629  0.00  0.00    +0.000 A 
ATOM      8  C   UNL     1       0.374   9.747  21.505  0.00  0.00    +0.000 A 
ATOM      9  C   UNL     1      -0.363  10.550  22.515  0.00  0.00    +0.000 C 
ATOM     10  N   UNL     1       0.603  10.170  20.214  0.00  0.00    +0.000 N 
ATOM     11  C   UNL     1       0.185  11.430  19.635  0.00  0.00    +0.000 C 
ENDROOT
BRANCH   1  12
ATOM     12  C   UNL     1       3.321   5.717  18.053  0.00  0.00    +0.000 C 
BRANCH  12  13
ATOM     13  N   UNL     1       3.171   4.506  18.909  0.00  0.00    +0.000 NA
ATOM     14  H   UNL     1       4.065   4.038  19.037  0.00  0.00    +0.000 HD
BRANCH  13  15
ATOM     15  S   UNL     1       1.933   3.477  18.367  0.00  0.00    +0.000 S 
ATOM     16  O   UNL     1       2.544   2.177  18.162  0.00  0.00    +0.000 OA
ATOM     17  O   UNL     1       1.180   4.153  17.344  0.00  0.00    +0.000 OA
BRANCH  15  19
ATOM     18  C   UNL     1       1.729   3.543  21.055  0.00  0.00    +0.000 C 
ATOM     19  C   UNL     1       0.890   3.340  19.807  0.00  0.00    +0.000 C 
ENDBRANCH  15  19
ENDBRANCH  13  15
ENDBRANCH  12  13
ENDBRANCH   1  12
TORSDOF 4
ENDMDL
MODEL 8
REMARK VINA RESULT:      -6.6      1.538      2.410
REMARK  Name = 
REMARK  7 active torsions:
REMARK  status: ('A' for Active; 'I' for Inactive)
REMARK    1  A    between atoms: C_1  and  C_2
REMARK    2  A    between atoms: C_2  and  S_3
REMARK    3  A    between atoms: S_3  and  N_6
REMARK    4  A    between atoms: N_6  and  C_7
REMARK    5  A    between atoms: C_7  and  C_8
REMARK    6  A    between atoms: C_15  and  C_16
REMARK    7  A    between atoms: N_17  and  C_18
REMARK                            x       y       z     vdW  Elec       q    Type
REMARK                         _______ _______ _______ _____ _____    ______ ____
ROOT
ATOM      1  C   UNL     1       3.900   5.575  18.485  0.00  0.00    +0.000 A 
ATOM      2  C   UNL     1       3.846   6.564  17.497  0.00  0.00    +0.000 A 
ATOM      3  C   UNL     1       3.105   7.729  17.664  0.00  0.00    +0.000 A 
ATOM      4  C   UNL     1       2.365   7.869  18.849  0.00  0.00    +0.000 A 
ATOM      5  C   UNL     1       2.387   6.898  19.850  0.00  0.00    +0.000 A 
ATOM      6  C   UNL     1       3.170   5.741  19.673  0.00  0.00    +0.000 A 
ATOM      7  C   UNL     1       1.528   7.354  20.884  0.00  0.00    +0.000 A 
ATOM      8  C   UNL     1       0.995   8.568  20.504  0.00  0.00    +0.000 A 
ATOM      9  C   UNL     1       0.028   9.439  21.222  0.00  0.00    +0.000 C 
ATOM     10  N   UNL     1       1.526   8.875  19.270  0.00  0.00    +0.000 N 
ATOM     11  C   UNL     1       1.250  10.062  18.486  0.00  0.00    +0.000 C 
ENDROOT
BRANCH   1  12
ATOM     12  C   UNL     1       4.724   4.329  18.278  0.00  0.00    +0.000 C 
BRANCH  12  13
ATOM     13  N   UNL     1       6.134   4.431  18.754  0.00  0.00    +0.000 NA
ATOM     14  H   UNL     1       6.199   5.035  19.570  0.00  0.00    +0.000 HD
BRANCH  13  15
ATOM     15  S   UNL     1       7.211   4.847  17.508  0.00  0.00    +0.000 S 
ATOM     16  O   UNL     1       8.397   4.035  17.707  0.00  0.00    +0.000 OA
ATOM     17  O   UNL     1       7.260   6.281  17.393  0.00  0.00    +0.000 OA
BRANCH  15  19
ATOM     18  C   UNL     1       7.002   4.833  14.819  0.00  0.00    +0.000 C 
ATOM     19  C   UNL     1       6.385   4.214  16.059  0.00  0.00    +0.000 C 
ENDBRANCH  15  19
ENDBRANCH  13  15
ENDBRANCH  12  13
ENDBRANCH   1  12
TORSDOF 4
ENDMDL
MODEL 9
REMARK VINA RESULT:      -6.5      3.465      5.160
REMARK  Name = 
REMARK  7 active torsions:
REMARK  status: ('A' for Active; 'I' for Inactive)
REMARK    1  A    between atoms: C_1  and  C_2
REMARK    2  A    between atoms: C_2  and  S_3
REMARK    3  A    between atoms: S_3  and  N_6
REMARK    4  A    between atoms: N_6  and  C_7
REMARK    5  A    between atoms: C_7  and  C_8
REMARK    6  A    between atoms: C_15  and  C_16
REMARK    7  A    between atoms: N_17  and  C_18
REMARK                            x       y       z     vdW  Elec       q    Type
REMARK                         _______ _______ _______ _____ _____    ______ ____
ROOT
ATOM      1  C   UNL     1       5.483   4.953  15.665  0.00  0.00    +0.000 A 
ATOM      2  C   UNL     1       5.303   6.288  16.044  0.00  0.00    +0.000 A 
ATOM      3  C   UNL     1       4.458   6.646  17.089  0.00  0.00    +0.000 A 
ATOM      4  C   UNL     1       3.746   5.623  17.734  0.00  0.00    +0.000 A 
ATOM      5  C   UNL     1       3.893   4.284  17.376  0.00  0.00    +0.000 A 
ATOM      6  C   UNL     1       4.778   3.941  16.335  0.00  0.00    +0.000 A 
ATOM      7  C   UNL     1       3.027   3.535  18.215  0.00  0.00    +0.000 A 
ATOM      8  C   UNL     1       2.367   4.411  19.052  0.00  0.00    +0.000 A 
ATOM      9  C   UNL     1       1.343   4.130  20.092  0.00  0.00    +0.000 C 
ATOM     10  N   UNL     1       2.827   5.676  18.758  0.00  0.00    +0.000 N 
ATOM     11  C   UNL     1       2.413   6.911  19.392  0.00  0.00    +0.000 C 
ENDROOT
BRANCH   1  12
ATOM     12  C   UNL     1       6.418   4.597  14.536  0.00  0.00    +0.000 C 
BRANCH  12  13
ATOM     13  N   UNL     1       6.149   3.275  13.901  0.00  0.00    +0.000 NA
ATOM     14  H   UNL     1       6.734   2.550  14.309  0.00  0.00    +0.000 HD
BRANCH  13  15
ATOM     15  S   UNL     1       6.226   3.342  12.206  0.00  0.00    +0.000 S 
ATOM     16  O   UNL     1       6.235   1.966  11.743  0.00  0.00    +0.000 OA
ATOM     17  O   UNL     1       7.231   4.298  11.821  0.00  0.00    +0.000 OA
BRANCH  15  19
ATOM     18  C   UNL     1       3.823   2.975  11.038  0.00  0.00    +0.000 C 
ATOM     19  C   UNL     1       4.635   4.023  11.776  0.00  0.00    +0.000 C 
ENDBRANCH  15  19
ENDBRANCH  13  15
ENDBRANCH  12  13
ENDBRANCH   1  12
TORSDOF 4
ENDMDL
