MODEL 1
REMARK VINA RESULT:      -8.3      0.000      0.000
REMARK  Name = 
REMARK  14 active torsions:
REMARK  status: ('A' for Active; 'I' for Inactive)
REMARK    1  A    between atoms: C_1  and  O_2
REMARK    2  A    between atoms: O_2  and  C_3
REMARK    3  A    between atoms: C_6  and  C_7
REMARK    4  A    between atoms: C_7  and  O_8
REMARK    5  A    between atoms: O_8  and  C_9
REMARK    6  A    between atoms: C_12  and  C_13
REMARK    7  A    between atoms: C_13  and  O_15
REMARK    8  A    between atoms: C_16  and  O_17
REMARK    9  A    between atoms: O_17  and  C_18
REMARK   10  A    between atoms: C_18  and  C_19
REMARK   11  A    between atoms: C_18  and  C_24
REMARK   12  A    between atoms: C_19  and  C_20
REMARK   13  A    between atoms: C_20  and  C_21
REMARK   14  A    between atoms: C_21  and  O_23
REMARK                            x       y       z     vdW  Elec       q    Type
REMARK                         _______ _______ _______ _____ _____    ______ ____
ROOT
ATOM      1  C   UNL     1       2.107   6.979  19.685  0.00  0.00    +0.000 A 
ATOM      2  C   UNL     1       1.657   5.884  20.417  0.00  0.00    +0.000 A 
ATOM      3  C   UNL     1       1.835   4.589  19.931  0.00  0.00    +0.000 A 
ATOM      4  C   UNL     1       2.553   4.362  18.747  0.00  0.00    +0.000 A 
ATOM      5  C   UNL     1       3.116   5.461  18.068  0.00  0.00    +0.000 A 
ATOM      6  C   UNL     1       2.800   6.765  18.493  0.00  0.00    +0.000 A 
ENDROOT
BRANCH   4   7
ATOM      7  C   UNL     1       2.674   2.934  18.313  0.00  0.00    +0.000 C 
ATOM      8  O   UNL     1       3.099   2.059  19.050  0.00  0.00    +0.000 OA
BRANCH   7   9
ATOM      9  O   UNL     1       2.254   2.666  17.059  0.00  0.00    +0.000 OA
ATOM     10  H   UNL     1       2.000   1.728  16.938  0.00  0.00    +0.000 HD
ENDBRANCH   7   9
ENDBRANCH   4   7
BRANCH   1  11
ATOM     11  O   UNL     1       1.891   8.187  20.284  0.00  0.00    +0.000 OA
BRANCH  11  12
ATOM     12  C   UNL     1       1.436   8.200  21.636  0.00  0.00    +0.000 C 
BRANCH  12  16
ATOM     13  C   UNL     1      -1.022  11.712  22.268  0.00  0.00    +0.000 A 
ATOM     14  C   UNL     1      -1.072  10.637  23.155  0.00  0.00    +0.000 A 
ATOM     15  C   UNL     1      -0.284   9.502  22.945  0.00  0.00    +0.000 A 
ATOM     16  C   UNL     1       0.564   9.418  21.832  0.00  0.00    +0.000 A 
ATOM     17  C   UNL     1       0.588  10.488  20.928  0.00  0.00    +0.000 A 
ATOM     18  C   UNL     1      -0.199  11.628  21.144  0.00  0.00    +0.000 A 
BRANCH  13  20
ATOM     19  C   UNL     1      -3.137  12.425  23.049  0.00  0.00    +0.000 C 
ATOM     20  O   UNL     1      -1.839  12.765  22.577  0.00  0.00    +0.000 OA
ENDBRANCH  13  20
ENDBRANCH  12  16
ENDBRANCH  11  12
ENDBRANCH   1  11
BRANCH   5  21
ATOM     21  O   UNL     1       3.969   5.189  17.021  0.00  0.00    +0.000 OA
BRANCH  21  22
ATOM     22  C   UNL     1       5.213   4.511  17.300  0.00  0.00    +0.000 C 
BRANCH  22  23
ATOM     23  C   UNL     1       6.229   5.573  17.689  0.00  0.00    +0.000 A 
ATOM     24  C   UNL     1       7.157   5.310  18.708  0.00  0.00    +0.000 A 
ATOM     25  C   UNL     1       8.110   6.266  19.066  0.00  0.00    +0.000 A 
ATOM     26  C   UNL     1       8.148   7.494  18.409  0.00  0.00    +0.000 A 
ATOM     27  C   UNL     1       7.232   7.770  17.397  0.00  0.00    +0.000 A 
ATOM     28  C   UNL     1       6.275   6.818  17.041  0.00  0.00    +0.000 A 
ENDBRANCH  22  23
BRANCH  22  29
ATOM     29  C   UNL     1       5.708   3.713  16.073  0.00  0.00    +0.000 C 
BRANCH  29  30
ATOM     30  C   UNL     1       5.471   4.376  14.713  0.00  0.00    +0.000 C 
BRANCH  30  31
ATOM     31  C   UNL     1       6.730   4.618  13.916  0.00  0.00    +0.000 C 
ATOM     32  O   UNL     1       7.665   5.318  14.270  0.00  0.00    +0.000 OA
BRANCH  31  33
ATOM     33  O   UNL     1       6.723   3.965  12.732  0.00  0.00    +0.000 OA
ATOM     34  H   UNL     1       6.341   3.067  12.767  0.00  0.00    +0.000 HD
ENDBRANCH  31  33
ENDBRANCH  30  31
ENDBRANCH  29  30
ENDBRANCH  22  29
ENDBRANCH  21  22
ENDBRANCH   5  21
TORSDOF 13
ENDMDL
MODEL 2
REMARK VINA RESULT:      -8.3      2.045      3.833
REMARK  Name = 
REMARK  14 active torsions:
REMARK  status: ('A' for Active; 'I' for Inactive)
REMARK    1  A    between atoms: C_1  and  O_2
REMARK    2  A    between atoms: O_2  and  C_3
REMARK    3  A    between atoms: C_6  and  C_7
REMARK    4  A    between atoms: C_7  and  O_8
REMARK    5  A    between atoms: O_8  and  C_9
REMARK    6  A    between atoms: C_12  and  C_13
REMARK    7  A    between atoms: C_13  and  O_15
REMARK    8  A    between atoms: C_16  and  O_17
REMARK    9  A    between atoms: O_17  and  C_18
REMARK   10  A    between atoms: C_18  and  C_19
REMARK   11  A    between atoms: C_18  and  C_24
REMARK   12  A    between atoms: C_19  and  C_20
REMARK   13  A    between atoms: C_20  and  C_21
REMARK   14  A    between atoms: C_21  and  O_23
REMARK                            x       y       z     vdW  Elec       q    Type
REMARK                         _______ _______ _______ _____ _____    ______ ____
ROOT
ATOM      1  C   UNL     1       2.665   6.359  18.274  0.00  0.00    +0.000 A 
ATOM      2  C   UNL     1       2.289   5.569  19.357  0.00  0.00    +0.000 A 
ATOM      3  C   UNL     1       2.723   4.247  19.452  0.00  0.00    +0.000 A 
ATOM      4  C   UNL     1       3.621   3.721  18.510  0.00  0.00    +0.000 A 
ATOM      5  C   UNL     1       4.099   4.556  17.481  0.00  0.00    +0.000 A 
ATOM      6  C   UNL     1       3.537   5.835  17.319  0.00  0.00    +0.000 A 
ENDROOT
BRANCH   4   7
ATOM      7  C   UNL     1       4.012   2.288  18.702  0.00  0.00    +0.000 C 
ATOM      8  O   UNL     1       3.535   1.383  18.036  0.00  0.00    +0.000 OA
BRANCH   7   9
ATOM      9  O   UNL     1       4.953   2.060  19.643  0.00  0.00    +0.000 OA
ATOM     10  H   UNL     1       4.589   2.072  20.552  0.00  0.00    +0.000 HD
ENDBRANCH   7   9
ENDBRANCH   4   7
BRANCH   1  11
ATOM     11  O   UNL     1       2.191   7.639  18.316  0.00  0.00    +0.000 OA
BRANCH  11  12
ATOM     12  C   UNL     1       2.061   8.271  19.588  0.00  0.00    +0.000 C 
BRANCH  12  16
ATOM     13  C   UNL     1      -1.212  11.097  19.320  0.00  0.00    +0.000 A 
ATOM     14  C   UNL     1      -0.637  10.561  18.168  0.00  0.00    +0.000 A 
ATOM     15  C   UNL     1       0.424   9.655  18.257  0.00  0.00    +0.000 A 
ATOM     16  C   UNL     1       0.938   9.277  19.506  0.00  0.00    +0.000 A 
ATOM     17  C   UNL     1       0.376   9.843  20.658  0.00  0.00    +0.000 A 
ATOM     18  C   UNL     1      -0.692  10.747  20.566  0.00  0.00    +0.000 A 
BRANCH  13  20
ATOM     19  C   UNL     1      -2.588  12.801  20.211  0.00  0.00    +0.000 C 
ATOM     20  O   UNL     1      -2.241  11.974  19.107  0.00  0.00    +0.000 OA
ENDBRANCH  13  20
ENDBRANCH  12  16
ENDBRANCH  11  12
ENDBRANCH   1  11
BRANCH   5  21
ATOM     21  O   UNL     1       5.118   4.068  16.692  0.00  0.00    +0.000 OA
BRANCH  21  22
ATOM     22  C   UNL     1       6.111   4.990  16.196  0.00  0.00    +0.000 C 
BRANCH  22  23
ATOM     23  C   UNL     1       6.351   4.652  14.733  0.00  0.00    +0.000 A 
ATOM     24  C   UNL     1       7.455   5.200  14.062  0.00  0.00    +0.000 A 
ATOM     25  C   UNL     1       7.702   4.887  12.724  0.00  0.00    +0.000 A 
ATOM     26  C   UNL     1       6.850   4.022  12.042  0.00  0.00    +0.000 A 
ATOM     27  C   UNL     1       5.749   3.471  12.693  0.00  0.00    +0.000 A 
ATOM     28  C   UNL     1       5.497   3.787  14.029  0.00  0.00    +0.000 A 
ENDBRANCH  22  23
BRANCH  22  29
ATOM     29  C   UNL     1       7.429   4.885  16.997  0.00  0.00    +0.000 C 
BRANCH  29  30
ATOM     30  C   UNL     1       7.650   5.975  18.051  0.00  0.00    +0.000 C 
BRANCH  30  31
ATOM     31  C   UNL     1       7.396   5.523  19.469  0.00  0.00    +0.000 C 
ATOM     32  O   UNL     1       6.303   5.244  19.935  0.00  0.00    +0.000 OA
BRANCH  31  33
ATOM     33  O   UNL     1       8.532   5.459  20.200  0.00  0.00    +0.000 OA
ATOM     34  H   UNL     1       9.274   5.983  19.841  0.00  0.00    +0.000 HD
ENDBRANCH  31  33
ENDBRANCH  30  31
ENDBRANCH  29  30
ENDBRANCH  22  29
ENDBRANCH  21  22
ENDBRANCH   5  21
TORSDOF 13
ENDMDL
MODEL 3
REMARK VINA RESULT:      -8.2      2.463      3.954
REMARK  Name = 
REMARK  14 active torsions:
REMARK  status: ('A' for Active; 'I' for Inactive)
REMARK    1  A    between atoms: C_1  and  O_2
REMARK    2  A    between atoms: O_2  and  C_3
REMARK    3  A    between atoms: C_6  and  C_7
REMARK    4  A    between atoms: C_7  and  O_8
REMARK    5  A    between atoms: O_8  and  C_9
REMARK    6  A    between atoms: C_12  and  C_13
REMARK    7  A    between atoms: C_13  and  O_15
REMARK    8  A    between atoms: C_16  and  O_17
REMARK    9  A    between atoms: O_17  and  C_18
REMARK   10  A    between atoms: C_18  and  C_19
REMARK   11  A    between atoms: C_18  and  C_24
REMARK   12  A    between atoms: C_19  and  C_20
REMARK   13  A    between atoms: C_20  and  C_21
REMARK   14  A    between atoms: C_21  and  O_23
REMARK                            x       y       z     vdW  Elec       q    Type
REMARK                         _______ _______ _______ _____ _____    ______ ____
ROOT
ATOM      1  C   UNL     1       2.578   6.730  18.835  0.00  0.00    +0.000 A 
ATOM      2  C   UNL     1       2.265   5.870  19.883  0.00  0.00    +0.000 A 
ATOM      3  C   UNL     1       2.735   4.557  19.884  0.00  0.00    +0.000 A 
ATOM      4  C   UNL     1       3.606   4.109  18.879  0.00  0.00    +0.000 A 
ATOM      5  C   UNL     1       4.022   5.014  17.882  0.00  0.00    +0.000 A 
ATOM      6  C   UNL     1       3.423   6.285  17.817  0.00  0.00    +0.000 A 
ENDROOT
BRANCH   4   7
ATOM      7  C   UNL     1       4.039   2.679  18.972  0.00  0.00    +0.000 C 
ATOM      8  O   UNL     1       3.343   1.756  18.579  0.00  0.00    +0.000 OA
BRANCH   7   9
ATOM      9  O   UNL     1       5.266   2.471  19.494  0.00  0.00    +0.000 OA
ATOM     10  H   UNL     1       5.982   2.832  18.931  0.00  0.00    +0.000 HD
ENDBRANCH   7   9
ENDBRANCH   4   7
BRANCH   1  11
ATOM     11  O   UNL     1       2.076   7.993  18.969  0.00  0.00    +0.000 OA
BRANCH  11  12
ATOM     12  C   UNL     1       2.322   8.934  17.926  0.00  0.00    +0.000 C 
BRANCH  12  16
ATOM     13  C   UNL     1       0.018  12.489  18.831  0.00  0.00    +0.000 A 
ATOM     14  C   UNL     1      -0.593  11.236  18.783  0.00  0.00    +0.000 A 
ATOM     15  C   UNL     1       0.152  10.092  18.484  0.00  0.00    +0.000 A 
ATOM     16  C   UNL     1       1.524  10.183  18.214  0.00  0.00    +0.000 A 
ATOM     17  C   UNL     1       2.126  11.448  18.233  0.00  0.00    +0.000 A 
ATOM     18  C   UNL     1       1.379  12.594  18.540  0.00  0.00    +0.000 A 
BRANCH  13  20
ATOM     19  C   UNL     1      -0.222  14.828  19.082  0.00  0.00    +0.000 C 
ATOM     20  O   UNL     1      -0.812  13.535  19.133  0.00  0.00    +0.000 OA
ENDBRANCH  13  20
ENDBRANCH  12  16
ENDBRANCH  11  12
ENDBRANCH   1  11
BRANCH   5  21
ATOM     21  O   UNL     1       5.019   4.599  17.027  0.00  0.00    +0.000 OA
BRANCH  21  22
ATOM     22  C   UNL     1       5.695   5.587  16.220  0.00  0.00    +0.000 C 
BRANCH  22  23
ATOM     23  C   UNL     1       5.983   4.949  14.871  0.00  0.00    +0.000 A 
ATOM     24  C   UNL     1       7.207   5.193  14.231  0.00  0.00    +0.000 A 
ATOM     25  C   UNL     1       7.497   4.602  13.000  0.00  0.00    +0.000 A 
ATOM     26  C   UNL     1       6.568   3.758  12.395  0.00  0.00    +0.000 A 
ATOM     27  C   UNL     1       5.347   3.507  13.017  0.00  0.00    +0.000 A 
ATOM     28  C   UNL     1       5.053   4.102  14.245  0.00  0.00    +0.000 A 
ENDBRANCH  22  23
BRANCH  22  29
ATOM     29  C   UNL     1       7.008   6.057  16.887  0.00  0.00    +0.000 C 
BRANCH  29  30
ATOM     30  C   UNL     1       7.583   5.118  17.951  0.00  0.00    +0.000 C 
BRANCH  30  31
ATOM     31  C   UNL     1       7.899   5.792  19.264  0.00  0.00    +0.000 C 
ATOM     32  O   UNL     1       7.673   5.325  20.369  0.00  0.00    +0.000 OA
BRANCH  31  33
ATOM     33  O   UNL     1       8.474   7.004  19.095  0.00  0.00    +0.000 OA
ATOM     34  H   UNL     1       7.844   7.728  18.913  0.00  0.00    +0.000 HD
ENDBRANCH  31  33
ENDBRANCH  30  31
ENDBRANCH  29  30
ENDBRANCH  22  29
ENDBRANCH  21  22
ENDBRANCH   5  21
TORSDOF 13
ENDMDL
MODEL 4
REMARK VINA RESULT:      -8.1      1.818      3.582
REMARK  Name = 
REMARK  14 active torsions:
REMARK  status: ('A' for Active; 'I' for Inactive)
REMARK    1  A    between atoms: C_1  and  O_2
REMARK    2  A    between atoms: O_2  and  C_3
REMARK    3  A    between atoms: C_6  and  C_7
REMARK    4  A    between atoms: C_7  and  O_8
REMARK    5  A    between atoms: O_8  and  C_9
REMARK    6  A    between atoms: C_12  and  C_13
REMARK    7  A    between atoms: C_13  and  O_15
REMARK    8  A    between atoms: C_16  and  O_17
REMARK    9  A    between atoms: O_17  and  C_18
REMARK   10  A    between atoms: C_18  and  C_19
REMARK   11  A    between atoms: C_18  and  C_24
REMARK   12  A    between atoms: C_19  and  C_20
REMARK   13  A    between atoms: C_20  and  C_21
REMARK   14  A    between atoms: C_21  and  O_23
REMARK                            x       y       z     vdW  Elec       q    Type
REMARK                         _______ _______ _______ _____ _____    ______ ____
ROOT
ATOM      1  C   UNL     1       2.883   7.436  17.965  0.00  0.00    +0.000 A 
ATOM      2  C   UNL     1       1.985   6.562  18.570  0.00  0.00    +0.000 A 
ATOM      3  C   UNL     1       2.114   5.185  18.395  0.00  0.00    +0.000 A 
ATOM      4  C   UNL     1       3.202   4.652  17.687  0.00  0.00    +0.000 A 
ATOM      5  C   UNL     1       4.180   5.530  17.177  0.00  0.00    +0.000 A 
ATOM      6  C   UNL     1       3.954   6.917  17.236  0.00  0.00    +0.000 A 
ENDROOT
BRANCH   4   7
ATOM      7  C   UNL     1       3.235   3.162  17.551  0.00  0.00    +0.000 C 
ATOM      8  O   UNL     1       2.254   2.512  17.226  0.00  0.00    +0.000 OA
BRANCH   7   9
ATOM      9  O   UNL     1       4.430   2.579  17.783  0.00  0.00    +0.000 OA
ATOM     10  H   UNL     1       5.076   2.743  17.066  0.00  0.00    +0.000 HD
ENDBRANCH   7   9
ENDBRANCH   4   7
BRANCH   1  11
ATOM     11  O   UNL     1       2.658   8.756  18.236  0.00  0.00    +0.000 OA
BRANCH  11  12
ATOM     12  C   UNL     1       1.376   9.301  17.929  0.00  0.00    +0.000 C 
BRANCH  12  16
ATOM     13  C   UNL     1       0.170  11.741  21.300  0.00  0.00    +0.000 A 
ATOM     14  C   UNL     1      -0.233  10.410  21.203  0.00  0.00    +0.000 A 
ATOM     15  C   UNL     1       0.151   9.627  20.110  0.00  0.00    +0.000 A 
ATOM     16  C   UNL     1       0.940  10.168  19.086  0.00  0.00    +0.000 A 
ATOM     17  C   UNL     1       1.316  11.515  19.174  0.00  0.00    +0.000 A 
ATOM     18  C   UNL     1       0.934  12.297  20.273  0.00  0.00    +0.000 A 
BRANCH  13  20
ATOM     19  C   UNL     1      -1.368  11.815  23.094  0.00  0.00    +0.000 C 
ATOM     20  O   UNL     1      -0.269  12.407  22.412  0.00  0.00    +0.000 OA
ENDBRANCH  13  20
ENDBRANCH  12  16
ENDBRANCH  11  12
ENDBRANCH   1  11
BRANCH   5  21
ATOM     21  O   UNL     1       5.325   4.968  16.656  0.00  0.00    +0.000 OA
BRANCH  21  22
ATOM     22  C   UNL     1       6.167   5.774  15.805  0.00  0.00    +0.000 C 
BRANCH  22  23
ATOM     23  C   UNL     1       6.338   5.022  14.495  0.00  0.00    +0.000 A 
ATOM     24  C   UNL     1       5.349   4.123  14.071  0.00  0.00    +0.000 A 
ATOM     25  C   UNL     1       5.480   3.437  12.863  0.00  0.00    +0.000 A 
ATOM     26  C   UNL     1       6.601   3.643  12.062  0.00  0.00    +0.000 A 
ATOM     27  C   UNL     1       7.594   4.531  12.469  0.00  0.00    +0.000 A 
ATOM     28  C   UNL     1       7.467   5.214  13.681  0.00  0.00    +0.000 A 
ENDBRANCH  22  23
BRANCH  22  29
ATOM     29  C   UNL     1       7.541   6.040  16.460  0.00  0.00    +0.000 C 
BRANCH  29  30
ATOM     30  C   UNL     1       7.500   6.515  17.915  0.00  0.00    +0.000 C 
BRANCH  30  31
ATOM     31  C   UNL     1       7.598   5.402  18.931  0.00  0.00    +0.000 C 
ATOM     32  O   UNL     1       7.488   5.539  20.138  0.00  0.00    +0.000 OA
BRANCH  31  33
ATOM     33  O   UNL     1       7.830   4.200  18.356  0.00  0.00    +0.000 OA
ATOM     34  H   UNL     1       8.508   3.661  18.806  0.00  0.00    +0.000 HD
ENDBRANCH  31  33
ENDBRANCH  30  31
ENDBRANCH  29  30
ENDBRANCH  22  29
ENDBRANCH  21  22
ENDBRANCH   5  21
TORSDOF 13
ENDMDL
MODEL 5
REMARK VINA RESULT:      -8.0      2.007      3.651
REMARK  Name = 
REMARK  14 active torsions:
REMARK  status: ('A' for Active; 'I' for Inactive)
REMARK    1  A    between atoms: C_1  and  O_2
REMARK    2  A    between atoms: O_2  and  C_3
REMARK    3  A    between atoms: C_6  and  C_7
REMARK    4  A    between atoms: C_7  and  O_8
REMARK    5  A    between atoms: O_8  and  C_9
REMARK    6  A    between atoms: C_12  and  C_13
REMARK    7  A    between atoms: C_13  and  O_15
REMARK    8  A    between atoms: C_16  and  O_17
REMARK    9  A    between atoms: O_17  and  C_18
REMARK   10  A    between atoms: C_18  and  C_19
REMARK   11  A    between atoms: C_18  and  C_24
REMARK   12  A    between atoms: C_19  and  C_20
REMARK   13  A    between atoms: C_20  and  C_21
REMARK   14  A    between atoms: C_21  and  O_23
REMARK                            x       y       z     vdW  Elec       q    Type
REMARK                         _______ _______ _______ _____ _____    ______ ____
ROOT
ATOM      1  C   UNL     1       2.851   7.125  18.577  0.00  0.00    +0.000 A 
ATOM      2  C   UNL     1       2.407   6.280  19.589  0.00  0.00    +0.000 A 
ATOM      3  C   UNL     1       2.794   4.941  19.612  0.00  0.00    +0.000 A 
ATOM      4  C   UNL     1       3.712   4.446  18.672  0.00  0.00    +0.000 A 
ATOM      5  C   UNL     1       4.257   5.329  17.720  0.00  0.00    +0.000 A 
ATOM      6  C   UNL     1       3.743   6.635  17.622  0.00  0.00    +0.000 A 
ENDROOT
BRANCH   4   7
ATOM      7  C   UNL     1       4.048   2.991  18.783  0.00  0.00    +0.000 C 
ATOM      8  O   UNL     1       4.077   2.405  19.854  0.00  0.00    +0.000 OA
BRANCH   7   9
ATOM      9  O   UNL     1       4.290   2.356  17.618  0.00  0.00    +0.000 OA
ATOM     10  H   UNL     1       4.543   2.970  16.898  0.00  0.00    +0.000 HD
ENDBRANCH   7   9
ENDBRANCH   4   7
BRANCH   1  11
ATOM     11  O   UNL     1       2.418   8.416  18.685  0.00  0.00    +0.000 OA
BRANCH  11  12
ATOM     12  C   UNL     1       1.537   8.920  17.683  0.00  0.00    +0.000 C 
BRANCH  12  16
ATOM     13  C   UNL     1      -1.461  11.377  19.617  0.00  0.00    +0.000 A 
ATOM     14  C   UNL     1      -0.234  11.133  20.233  0.00  0.00    +0.000 A 
ATOM     15  C   UNL     1       0.729  10.334  19.610  0.00  0.00    +0.000 A 
ATOM     16  C   UNL     1       0.475   9.753  18.360  0.00  0.00    +0.000 A 
ATOM     17  C   UNL     1      -0.772   9.977  17.761  0.00  0.00    +0.000 A 
ATOM     18  C   UNL     1      -1.734  10.783  18.384  0.00  0.00    +0.000 A 
BRANCH  13  20
ATOM     19  C   UNL     1      -1.890  12.553  21.623  0.00  0.00    +0.000 C 
ATOM     20  O   UNL     1      -2.324  12.172  20.323  0.00  0.00    +0.000 OA
ENDBRANCH  13  20
ENDBRANCH  12  16
ENDBRANCH  11  12
ENDBRANCH   1  11
BRANCH   5  21
ATOM     21  O   UNL     1       5.290   4.858  16.939  0.00  0.00    +0.000 OA
BRANCH  21  22
ATOM     22  C   UNL     1       5.966   5.779  16.056  0.00  0.00    +0.000 C 
BRANCH  22  23
ATOM     23  C   UNL     1       6.164   5.069  14.727  0.00  0.00    +0.000 A 
ATOM     24  C   UNL     1       7.329   5.297  13.981  0.00  0.00    +0.000 A 
ATOM     25  C   UNL     1       7.537   4.641  12.766  0.00  0.00    +0.000 A 
ATOM     26  C   UNL     1       6.584   3.747  12.285  0.00  0.00    +0.000 A 
ATOM     27  C   UNL     1       5.420   3.511  13.013  0.00  0.00    +0.000 A 
ATOM     28  C   UNL     1       5.208   4.171  14.225  0.00  0.00    +0.000 A 
ENDBRANCH  22  23
BRANCH  22  29
ATOM     29  C   UNL     1       7.327   6.223  16.640  0.00  0.00    +0.000 C 
BRANCH  29  30
ATOM     30  C   UNL     1       7.324   6.578  18.129  0.00  0.00    +0.000 C 
BRANCH  30  31
ATOM     31  C   UNL     1       7.652   5.421  19.041  0.00  0.00    +0.000 C 
ATOM     32  O   UNL     1       7.694   5.473  20.259  0.00  0.00    +0.000 OA
BRANCH  31  33
ATOM     33  O   UNL     1       7.907   4.282  18.357  0.00  0.00    +0.000 OA
ATOM     34  H   UNL     1       7.364   3.518  18.628  0.00  0.00    +0.000 HD
ENDBRANCH  31  33
ENDBRANCH  30  31
ENDBRANCH  29  30
ENDBRANCH  22  29
ENDBRANCH  21  22
ENDBRANCH   5  21
TORSDOF 13
ENDMDL
MODEL 6
REMARK VINA RESULT:      -8.0      1.231      1.881
REMARK  Name = 
REMARK  14 active torsions:
REMARK  status: ('A' for Active; 'I' for Inactive)
REMARK    1  A    between atoms: C_1  and  O_2
REMARK    2  A    between atoms: O_2  and  C_3
REMARK    3  A    between atoms: C_6  and  C_7
REMARK    4  A    between atoms: C_7  and  O_8
REMARK    5  A    between atoms: O_8  and  C_9
REMARK    6  A    between atoms: C_12  and  C_13
REMARK    7  A    between atoms: C_13  and  O_15
REMARK    8  A    between atoms: C_16  and  O_17
REMARK    9  A    between atoms: O_17  and  C_18
REMARK   10  A    between atoms: C_18  and  C_19
REMARK   11  A    between atoms: C_18  and  C_24
REMARK   12  A    between atoms: C_19  and  C_20
REMARK   13  A    between atoms: C_20  and  C_21
REMARK   14  A    between atoms: C_21  and  O_23
REMARK                            x       y       z     vdW  Elec       q    Type
REMARK                         _______ _______ _______ _____ _____    ______ ____
ROOT
ATOM      1  C   UNL     1       2.592   6.034  19.813  0.00  0.00    +0.000 A 
ATOM      2  C   UNL     1       1.809   4.925  20.121  0.00  0.00    +0.000 A 
ATOM      3  C   UNL     1       2.297   3.636  19.912  0.00  0.00    +0.000 A 
ATOM      4  C   UNL     1       3.615   3.432  19.478  0.00  0.00    +0.000 A 
ATOM      5  C   UNL     1       4.450   4.550  19.281  0.00  0.00    +0.000 A 
ATOM      6  C   UNL     1       3.897   5.841  19.355  0.00  0.00    +0.000 A 
ENDROOT
BRANCH   4   7
ATOM      7  C   UNL     1       4.030   2.007  19.276  0.00  0.00    +0.000 C 
ATOM      8  O   UNL     1       3.466   1.267  18.485  0.00  0.00    +0.000 OA
BRANCH   7   9
ATOM      9  O   UNL     1       5.089   1.597  20.004  0.00  0.00    +0.000 OA
ATOM     10  H   UNL     1       5.007   1.827  20.952  0.00  0.00    +0.000 HD
ENDBRANCH   7   9
ENDBRANCH   4   7
BRANCH   1  11
ATOM     11  O   UNL     1       2.005   7.236  20.087  0.00  0.00    +0.000 OA
BRANCH  11  12
ATOM     12  C   UNL     1       1.209   7.346  21.266  0.00  0.00    +0.000 C 
BRANCH  12  16
ATOM     13  C   UNL     1      -0.664  11.253  21.268  0.00  0.00    +0.000 A 
ATOM     14  C   UNL     1      -0.074  10.746  20.111  0.00  0.00    +0.000 A 
ATOM     15  C   UNL     1       0.536   9.488  20.115  0.00  0.00    +0.000 A 
ATOM     16  C   UNL     1       0.577   8.718  21.285  0.00  0.00    +0.000 A 
ATOM     17  C   UNL     1       0.010   9.246  22.453  0.00  0.00    +0.000 A 
ATOM     18  C   UNL     1      -0.607  10.505  22.445  0.00  0.00    +0.000 A 
BRANCH  13  20
ATOM     19  C   UNL     1      -2.560  12.619  21.628  0.00  0.00    +0.000 C 
ATOM     20  O   UNL     1      -1.228  12.493  21.143  0.00  0.00    +0.000 OA
ENDBRANCH  13  20
ENDBRANCH  12  16
ENDBRANCH  11  12
ENDBRANCH   1  11
BRANCH   5  21
ATOM     21  O   UNL     1       5.785   4.308  19.041  0.00  0.00    +0.000 OA
BRANCH  21  22
ATOM     22  C   UNL     1       6.334   4.672  17.756  0.00  0.00    +0.000 C 
BRANCH  22  23
ATOM     23  C   UNL     1       7.001   6.028  17.917  0.00  0.00    +0.000 A 
ATOM     24  C   UNL     1       6.643   7.087  17.069  0.00  0.00    +0.000 A 
ATOM     25  C   UNL     1       7.231   8.345  17.214  0.00  0.00    +0.000 A 
ATOM     26  C   UNL     1       8.182   8.560  18.209  0.00  0.00    +0.000 A 
ATOM     27  C   UNL     1       8.550   7.519  19.057  0.00  0.00    +0.000 A 
ATOM     28  C   UNL     1       7.967   6.259  18.910  0.00  0.00    +0.000 A 
ENDBRANCH  22  23
BRANCH  22  29
ATOM     29  C   UNL     1       5.236   4.735  16.670  0.00  0.00    +0.000 C 
BRANCH  29  30
ATOM     30  C   UNL     1       5.372   3.720  15.532  0.00  0.00    +0.000 C 
BRANCH  30  31
ATOM     31  C   UNL     1       6.266   4.174  14.403  0.00  0.00    +0.000 C 
ATOM     32  O   UNL     1       6.823   5.258  14.337  0.00  0.00    +0.000 OA
BRANCH  31  33
ATOM     33  O   UNL     1       6.393   3.236  13.438  0.00  0.00    +0.000 OA
ATOM     34  H   UNL     1       5.779   2.482  13.523  0.00  0.00    +0.000 HD
ENDBRANCH  31  33
ENDBRANCH  30  31
ENDBRANCH  29  30
ENDBRANCH  22  29
ENDBRANCH  21  22
ENDBRANCH   5  21
TORSDOF 13
ENDMDL
MODEL 7
REMARK VINA RESULT:      -8.0      0.813      1.323
REMARK  Name = 
REMARK  14 active torsions:
REMARK  status: ('A' for Active; 'I' for Inactive)
REMARK    1  A    between atoms: C_1  and  O_2
REMARK    2  A    between atoms: O_2  and  C_3
REMARK    3  A    between atoms: C_6  and  C_7
REMARK    4  A    between atoms: C_7  and  O_8
REMARK    5  A    between atoms: O_8  and  C_9
REMARK    6  A    between atoms: C_12  and  C_13
REMARK    7  A    between atoms: C_13  and  O_15
REMARK    8  A    between atoms: C_16  and  O_17
REMARK    9  A    between atoms: O_17  and  C_18
REMARK   10  A    between atoms: C_18  and  C_19
REMARK   11  A    between atoms: C_18  and  C_24
REMARK   12  A    between atoms: C_19  and  C_20
REMARK   13  A    between atoms: C_20  and  C_21
REMARK   14  A    between atoms: C_21  and  O_23
REMARK                            x       y       z     vdW  Elec       q    Type
REMARK                         _______ _______ _______ _____ _____    ______ ____
ROOT
ATOM      1  C   UNL     1       2.332   6.552  19.613  0.00  0.00    +0.000 A 
ATOM      2  C   UNL     1       2.073   5.450  20.422  0.00  0.00    +0.000 A 
ATOM      3  C   UNL     1       2.363   4.162  19.975  0.00  0.00    +0.000 A 
ATOM      4  C   UNL     1       3.007   3.960  18.745  0.00  0.00    +0.000 A 
ATOM      5  C   UNL     1       3.381   5.081  17.979  0.00  0.00    +0.000 A 
ATOM      6  C   UNL     1       2.949   6.359  18.376  0.00  0.00    +0.000 A 
ENDROOT
BRANCH   4   7
ATOM      7  C   UNL     1       3.260   2.535  18.360  0.00  0.00    +0.000 C 
ATOM      8  O   UNL     1       2.634   1.975  17.474  0.00  0.00    +0.000 OA
BRANCH   7   9
ATOM      9  O   UNL     1       4.249   1.913  19.035  0.00  0.00    +0.000 OA
ATOM     10  H   UNL     1       4.324   2.219  19.962  0.00  0.00    +0.000 HD
ENDBRANCH   7   9
ENDBRANCH   4   7
BRANCH   1  11
ATOM     11  O   UNL     1       2.024   7.756  20.180  0.00  0.00    +0.000 OA
BRANCH  11  12
ATOM     12  C   UNL     1       1.117   7.773  21.281  0.00  0.00    +0.000 C 
BRANCH  12  16
ATOM     13  C   UNL     1      -1.000  11.552  21.254  0.00  0.00    +0.000 A 
ATOM     14  C   UNL     1      -0.518  10.997  20.069  0.00  0.00    +0.000 A 
ATOM     15  C   UNL     1       0.172   9.781  20.082  0.00  0.00    +0.000 A 
ATOM     16  C   UNL     1       0.401   9.102  21.287  0.00  0.00    +0.000 A 
ATOM     17  C   UNL     1      -0.059   9.681  22.477  0.00  0.00    +0.000 A 
ATOM     18  C   UNL     1      -0.755  10.898  22.461  0.00  0.00    +0.000 A 
BRANCH  13  20
ATOM     19  C   UNL     1      -0.845  13.864  20.783  0.00  0.00    +0.000 C 
ATOM     20  O   UNL     1      -1.657  12.745  21.117  0.00  0.00    +0.000 OA
ENDBRANCH  13  20
ENDBRANCH  12  16
ENDBRANCH  11  12
ENDBRANCH   1  11
BRANCH   5  21
ATOM     21  O   UNL     1       4.176   4.857  16.876  0.00  0.00    +0.000 OA
BRANCH  21  22
ATOM     22  C   UNL     1       5.494   4.302  17.073  0.00  0.00    +0.000 C 
BRANCH  22  23
ATOM     23  C   UNL     1       6.391   5.428  17.561  0.00  0.00    +0.000 A 
ATOM     24  C   UNL     1       7.237   5.220  18.660  0.00  0.00    +0.000 A 
ATOM     25  C   UNL     1       8.081   6.236  19.111  0.00  0.00    +0.000 A 
ATOM     26  C   UNL     1       8.091   7.472  18.467  0.00  0.00    +0.000 A 
ATOM     27  C   UNL     1       7.255   7.695  17.376  0.00  0.00    +0.000 A 
ATOM     28  C   UNL     1       6.406   6.681  16.927  0.00  0.00    +0.000 A 
ENDBRANCH  22  23
BRANCH  22  29
ATOM     29  C   UNL     1       6.052   3.693  15.766  0.00  0.00    +0.000 C 
BRANCH  29  30
ATOM     30  C   UNL     1       5.725   4.466  14.485  0.00  0.00    +0.000 C 
BRANCH  30  31
ATOM     31  C   UNL     1       6.918   4.725  13.598  0.00  0.00    +0.000 C 
ATOM     32  O   UNL     1       7.863   5.443  13.879  0.00  0.00    +0.000 OA
BRANCH  31  33
ATOM     33  O   UNL     1       6.837   4.065  12.420  0.00  0.00    +0.000 OA
ATOM     34  H   UNL     1       5.936   3.776  12.180  0.00  0.00    +0.000 HD
ENDBRANCH  31  33
ENDBRANCH  30  31
ENDBRANCH  29  30
ENDBRANCH  22  29
ENDBRANCH  21  22
ENDBRANCH   5  21
TORSDOF 13
ENDMDL
MODEL 8
REMARK VINA RESULT:      -7.9      2.019      3.555
REMARK  Name = 
REMARK  14 active torsions:
REMARK  status: ('A' for Active; 'I' for Inactive)
REMARK    1  A    between atoms: C_1  and  O_2
REMARK    2  A    between atoms: O_2  and  C_3
REMARK    3  A    between atoms: C_6  and  C_7
REMARK    4  A    between atoms: C_7  and  O_8
REMARK    5  A    between atoms: O_8  and  C_9
REMARK    6  A    between atoms: C_12  and  C_13
REMARK    7  A    between atoms: C_13  and  O_15
REMARK    8  A    between atoms: C_16  and  O_17
REMARK    9  A    between atoms: O_17  and  C_18
REMARK   10  A    between atoms: C_18  and  C_19
REMARK   11  A    between atoms: C_18  and  C_24
REMARK   12  A    between atoms: C_19  and  C_20
REMARK   13  A    between atoms: C_20  and  C_21
REMARK   14  A    between atoms: C_21  and  O_23
REMARK                            x       y       z     vdW  Elec       q    Type
REMARK                         _______ _______ _______ _____ _____    ______ ____
ROOT
ATOM      1  C   UNL     1       2.528   6.678  18.782  0.00  0.00    +0.000 A 
ATOM      2  C   UNL     1       2.119   5.756  19.741  0.00  0.00    +0.000 A 
ATOM      3  C   UNL     1       2.337   4.392  19.548  0.00  0.00    +0.000 A 
ATOM      4  C   UNL     1       3.054   3.934  18.432  0.00  0.00    +0.000 A 
ATOM      5  C   UNL     1       3.575   4.875  17.522  0.00  0.00    +0.000 A 
ATOM      6  C   UNL     1       3.220   6.230  17.656  0.00  0.00    +0.000 A 
ENDROOT
BRANCH   4   7
ATOM      7  C   UNL     1       3.218   2.450  18.318  0.00  0.00    +0.000 C 
ATOM      8  O   UNL     1       2.355   1.666  18.679  0.00  0.00    +0.000 OA
BRANCH   7   9
ATOM      9  O   UNL     1       4.374   2.031  17.762  0.00  0.00    +0.000 OA
ATOM     10  H   UNL     1       4.345   2.034  16.783  0.00  0.00    +0.000 HD
ENDBRANCH   7   9
ENDBRANCH   4   7
BRANCH   1  11
ATOM     11  O   UNL     1       2.277   7.981  19.106  0.00  0.00    +0.000 OA
BRANCH  11  12
ATOM     12  C   UNL     1       2.189   8.936  18.050  0.00  0.00    +0.000 C 
BRANCH  12  16
ATOM     13  C   UNL     1      -0.183  12.254  19.511  0.00  0.00    +0.000 A 
ATOM     14  C   UNL     1      -0.624  10.940  19.666  0.00  0.00    +0.000 A 
ATOM     15  C   UNL     1       0.140   9.871  19.187  0.00  0.00    +0.000 A 
ATOM     16  C   UNL     1       1.358  10.101  18.531  0.00  0.00    +0.000 A 
ATOM     17  C   UNL     1       1.780  11.425  18.352  0.00  0.00    +0.000 A 
ATOM     18  C   UNL     1       1.015  12.495  18.838  0.00  0.00    +0.000 A 
BRANCH  13  20
ATOM     19  C   UNL     1      -2.376  12.831  20.183  0.00  0.00    +0.000 C 
ATOM     20  O   UNL     1      -1.016  13.214  20.018  0.00  0.00    +0.000 OA
ENDBRANCH  13  20
ENDBRANCH  12  16
ENDBRANCH  11  12
ENDBRANCH   1  11
BRANCH   5  21
ATOM     21  O   UNL     1       4.430   4.407  16.548  0.00  0.00    +0.000 OA
BRANCH  21  22
ATOM     22  C   UNL     1       5.611   5.176  16.236  0.00  0.00    +0.000 C 
BRANCH  22  23
ATOM     23  C   UNL     1       6.054   4.778  14.837  0.00  0.00    +0.000 A 
ATOM     24  C   UNL     1       5.253   3.918  14.070  0.00  0.00    +0.000 A 
ATOM     25  C   UNL     1       5.634   3.556  12.777  0.00  0.00    +0.000 A 
ATOM     26  C   UNL     1       6.818   4.050  12.234  0.00  0.00    +0.000 A 
ATOM     27  C   UNL     1       7.625   4.903  12.984  0.00  0.00    +0.000 A 
ATOM     28  C   UNL     1       7.249   5.262  14.279  0.00  0.00    +0.000 A 
ENDBRANCH  22  23
BRANCH  22  29
ATOM     29  C   UNL     1       6.742   4.912  17.256  0.00  0.00    +0.000 C 
BRANCH  29  30
ATOM     30  C   UNL     1       6.875   5.945  18.378  0.00  0.00    +0.000 C 
BRANCH  30  31
ATOM     31  C   UNL     1       7.777   7.108  18.044  0.00  0.00    +0.000 C 
ATOM     32  O   UNL     1       7.757   7.739  16.999  0.00  0.00    +0.000 OA
BRANCH  31  33
ATOM     33  O   UNL     1       8.642   7.392  19.043  0.00  0.00    +0.000 OA
ATOM     34  H   UNL     1       9.370   7.992  18.790  0.00  0.00    +0.000 HD
ENDBRANCH  31  33
ENDBRANCH  30  31
ENDBRANCH  29  30
ENDBRANCH  22  29
ENDBRANCH  21  22
ENDBRANCH   5  21
TORSDOF 13
ENDMDL
MODEL 9
REMARK VINA RESULT:      -7.9      1.094      1.679
REMARK  Name = 
REMARK  14 active torsions:
REMARK  status: ('A' for Active; 'I' for Inactive)
REMARK    1  A    between atoms: C_1  and  O_2
REMARK    2  A    between atoms: O_2  and  C_3
REMARK    3  A    between atoms: C_6  and  C_7
REMARK    4  A    between atoms: C_7  and  O_8
REMARK    5  A    between atoms: O_8  and  C_9
REMARK    6  A    between atoms: C_12  and  C_13
REMARK    7  A    between atoms: C_13  and  O_15
REMARK    8  A    between atoms: C_16  and  O_17
REMARK    9  A    between atoms: O_17  and  C_18
REMARK   10  A    between atoms: C_18  and  C_19
REMARK   11  A    between atoms: C_18  and  C_24
REMARK   12  A    between atoms: C_19  and  C_20
REMARK   13  A    between atoms: C_20  and  C_21
REMARK   14  A    between atoms: C_21  and  O_23
REMARK                            x       y       z     vdW  Elec       q    Type
REMARK                         _______ _______ _______ _____ _____    ______ ____
ROOT
ATOM      1  C   UNL     1       2.766   6.700  18.985  0.00  0.00    +0.000 A 
ATOM      2  C   UNL     1       2.473   5.703  19.911  0.00  0.00    +0.000 A 
ATOM      3  C   UNL     1       2.624   4.359  19.574  0.00  0.00    +0.000 A 
ATOM      4  C   UNL     1       3.163   3.989  18.332  0.00  0.00    +0.000 A 
ATOM      5  C   UNL     1       3.575   4.999  17.439  0.00  0.00    +0.000 A 
ATOM      6  C   UNL     1       3.278   6.341  17.737  0.00  0.00    +0.000 A 
ENDROOT
BRANCH   4   7
ATOM      7  C   UNL     1       3.271   2.519  18.071  0.00  0.00    +0.000 C 
ATOM      8  O   UNL     1       2.537   1.937  17.287  0.00  0.00    +0.000 OA
BRANCH   7   9
ATOM      9  O   UNL     1       4.254   1.877  18.736  0.00  0.00    +0.000 OA
ATOM     10  H   UNL     1       5.124   2.314  18.637  0.00  0.00    +0.000 HD
ENDBRANCH   7   9
ENDBRANCH   4   7
BRANCH   1  11
ATOM     11  O   UNL     1       2.598   7.972  19.451  0.00  0.00    +0.000 OA
BRANCH  11  12
ATOM     12  C   UNL     1       1.476   8.720  18.985  0.00  0.00    +0.000 C 
BRANCH  12  16
ATOM     13  C   UNL     1      -0.391  10.751  22.326  0.00  0.00    +0.000 A 
ATOM     14  C   UNL     1       0.184  11.475  21.282  0.00  0.00    +0.000 A 
ATOM     15  C   UNL     1       0.792  10.818  20.209  0.00  0.00    +0.000 A 
ATOM     16  C   UNL     1       0.846   9.418  20.167  0.00  0.00    +0.000 A 
ATOM     17  C   UNL     1       0.294   8.696  21.235  0.00  0.00    +0.000 A 
ATOM     18  C   UNL     1      -0.321   9.358  22.307  0.00  0.00    +0.000 A 
BRANCH  13  20
ATOM     19  C   UNL     1      -2.323  11.847  23.137  0.00  0.00    +0.000 C 
ATOM     20  O   UNL     1      -0.955  11.503  23.321  0.00  0.00    +0.000 OA
ENDBRANCH  13  20
ENDBRANCH  12  16
ENDBRANCH  11  12
ENDBRANCH   1  11
BRANCH   5  21
ATOM     21  O   UNL     1       4.270   4.606  16.317  0.00  0.00    +0.000 OA
BRANCH  21  22
ATOM     22  C   UNL     1       5.598   4.063  16.479  0.00  0.00    +0.000 C 
BRANCH  22  23
ATOM     23  C   UNL     1       6.430   5.111  17.199  0.00  0.00    +0.000 A 
ATOM     24  C   UNL     1       6.958   4.832  18.469  0.00  0.00    +0.000 A 
ATOM     25  C   UNL     1       7.740   5.775  19.138  0.00  0.00    +0.000 A 
ATOM     26  C   UNL     1       8.006   7.007  18.545  0.00  0.00    +0.000 A 
ATOM     27  C   UNL     1       7.488   7.301  17.286  0.00  0.00    +0.000 A 
ATOM     28  C   UNL     1       6.701   6.361  16.618  0.00  0.00    +0.000 A 
ENDBRANCH  22  23
BRANCH  22  29
ATOM     29  C   UNL     1       6.234   3.710  15.115  0.00  0.00    +0.000 C 
BRANCH  29  30
ATOM     30  C   UNL     1       5.601   4.386  13.896  0.00  0.00    +0.000 C 
BRANCH  30  31
ATOM     31  C   UNL     1       5.501   3.497  12.680  0.00  0.00    +0.000 C 
ATOM     32  O   UNL     1       4.525   3.403  11.954  0.00  0.00    +0.000 OA
BRANCH  31  33
ATOM     33  O   UNL     1       6.632   2.788  12.466  0.00  0.00    +0.000 OA
ATOM     34  H   UNL     1       6.909   2.740  11.531  0.00  0.00    +0.000 HD
ENDBRANCH  31  33
ENDBRANCH  30  31
ENDBRANCH  29  30
ENDBRANCH  22  29
ENDBRANCH  21  22
ENDBRANCH   5  21
TORSDOF 13
ENDMDL
