MODEL 1
REMARK VINA RESULT:      -7.3      0.000      0.000
REMARK  Name = 
REMARK  2 active torsions:
REMARK  status: ('A' for Active; 'I' for Inactive)
REMARK    1  A    between atoms: N_2  and  C_4
REMARK    2  A    between atoms: C_7  and  C_8
REMARK                            x       y       z     vdW  Elec       q    Type
REMARK                         _______ _______ _______ _____ _____    ______ ____
ROOT
ATOM      1  C   UNL     1       4.493   3.998  18.146  0.00  0.00    +0.000 A 
ATOM      2  N   UNL     1       3.226   4.358  18.095  0.00  0.00    +0.000 NA
ATOM      3  C   UNL     1       2.646   3.812  19.213  0.00  0.00    +0.000 A 
ATOM      4  C   UNL     1       1.313   3.864  19.643  0.00  0.00    +0.000 A 
ATOM      5  C   UNL     1       0.968   3.215  20.835  0.00  0.00    +0.000 A 
ATOM      6  C   UNL     1       1.931   2.536  21.585  0.00  0.00    +0.000 A 
ATOM      7  C   UNL     1       3.266   2.470  21.169  0.00  0.00    +0.000 A 
ATOM      8  C   UNL     1       3.581   3.118  19.972  0.00  0.00    +0.000 A 
ATOM      9  N   UNL     1       4.748   3.247  19.266  0.00  0.00    +0.000 N 
ATOM     10  H   UNL     1       5.649   2.856  19.502  0.00  0.00    +0.000 HD
ENDROOT
BRANCH   1  14
ATOM     11  C   UNL     1       6.815   4.709  15.214  0.00  0.00    +0.000 A 
ATOM     12  C   UNL     1       7.512   4.791  16.395  0.00  0.00    +0.000 A 
ATOM     13  N   UNL     1       6.754   4.564  17.534  0.00  0.00    +0.000 NA
ATOM     14  C   UNL     1       5.507   4.299  17.182  0.00  0.00    +0.000 A 
ATOM     15  S   UNL     1       5.186   4.328  15.493  0.00  0.00    +0.000 S 
BRANCH  11  17
ATOM     16  O   UNL     1       6.802   4.228  13.001  0.00  0.00    +0.000 OA
ATOM     17  N   UNL     1       7.330   4.903  13.896  0.00  0.00    +0.000 N 
ATOM     18  O   UNL     1       8.250   5.712  13.738  0.00  0.00    +0.000 OA
ENDBRANCH  11  17
ENDBRANCH   1  14
TORSDOF 2
ENDMDL
MODEL 2
REMARK VINA RESULT:      -7.2      0.141      1.604
REMARK  Name = 
REMARK  2 active torsions:
REMARK  status: ('A' for Active; 'I' for Inactive)
REMARK    1  A    between atoms: N_2  and  C_4
REMARK    2  A    between atoms: C_7  and  C_8
REMARK                            x       y       z     vdW  Elec       q    Type
REMARK                         _______ _______ _______ _____ _____    ______ ____
ROOT
ATOM      1  C   UNL     1       4.538   3.919  18.262  0.00  0.00    +0.000 A 
ATOM      2  N   UNL     1       4.741   3.246  19.377  0.00  0.00    +0.000 NA
ATOM      3  C   UNL     1       3.513   3.166  19.985  0.00  0.00    +0.000 A 
ATOM      4  C   UNL     1       3.157   2.578  21.206  0.00  0.00    +0.000 A 
ATOM      5  C   UNL     1       1.817   2.631  21.611  0.00  0.00    +0.000 A 
ATOM      6  C   UNL     1       0.854   3.251  20.813  0.00  0.00    +0.000 A 
ATOM      7  C   UNL     1       1.190   3.847  19.592  0.00  0.00    +0.000 A 
ATOM      8  C   UNL     1       2.535   3.787  19.217  0.00  0.00    +0.000 A 
ATOM      9  N   UNL     1       3.216   4.264  18.128  0.00  0.00    +0.000 N 
ATOM     10  H   UNL     1       2.836   4.791  17.355  0.00  0.00    +0.000 HD
ENDROOT
BRANCH   1  14
ATOM     11  C   UNL     1       6.809   4.744  15.320  0.00  0.00    +0.000 A 
ATOM     12  C   UNL     1       7.468   4.979  16.503  0.00  0.00    +0.000 A 
ATOM     13  N   UNL     1       6.723   4.724  17.644  0.00  0.00    +0.000 NA
ATOM     14  C   UNL     1       5.525   4.289  17.294  0.00  0.00    +0.000 A 
ATOM     15  S   UNL     1       5.233   4.181  15.602  0.00  0.00    +0.000 S 
BRANCH  11  17
ATOM     16  O   UNL     1       8.275   5.706  13.887  0.00  0.00    +0.000 OA
ATOM     17  N   UNL     1       7.320   4.924  14.000  0.00  0.00    +0.000 N 
ATOM     18  O   UNL     1       6.787   4.305  13.073  0.00  0.00    +0.000 OA
ENDBRANCH  11  17
ENDBRANCH   1  14
TORSDOF 2
ENDMDL
MODEL 3
REMARK VINA RESULT:      -7.0      1.160      1.234
REMARK  Name = 
REMARK  2 active torsions:
REMARK  status: ('A' for Active; 'I' for Inactive)
REMARK    1  A    between atoms: N_2  and  C_4
REMARK    2  A    between atoms: C_7  and  C_8
REMARK                            x       y       z     vdW  Elec       q    Type
REMARK                         _______ _______ _______ _____ _____    ______ ____
ROOT
ATOM      1  C   UNL     1       4.281   4.208  17.376  0.00  0.00    +0.000 A 
ATOM      2  N   UNL     1       3.311   3.338  17.177  0.00  0.00    +0.000 NA
ATOM      3  C   UNL     1       2.505   3.428  18.284  0.00  0.00    +0.000 A 
ATOM      4  C   UNL     1       1.343   2.713  18.604  0.00  0.00    +0.000 A 
ATOM      5  C   UNL     1       0.694   2.995  19.813  0.00  0.00    +0.000 A 
ATOM      6  C   UNL     1       1.189   3.972  20.680  0.00  0.00    +0.000 A 
ATOM      7  C   UNL     1       2.350   4.694  20.379  0.00  0.00    +0.000 A 
ATOM      8  C   UNL     1       2.982   4.386  19.171  0.00  0.00    +0.000 A 
ATOM      9  N   UNL     1       4.117   4.863  18.571  0.00  0.00    +0.000 N 
ATOM     10  H   UNL     1       4.748   5.565  18.932  0.00  0.00    +0.000 HD
ENDROOT
BRANCH   1  14
ATOM     11  C   UNL     1       6.890   4.821  14.672  0.00  0.00    +0.000 A 
ATOM     12  C   UNL     1       7.482   4.853  15.912  0.00  0.00    +0.000 A 
ATOM     13  N   UNL     1       6.614   4.655  16.976  0.00  0.00    +0.000 NA
ATOM     14  C   UNL     1       5.392   4.464  16.511  0.00  0.00    +0.000 A 
ATOM     15  S   UNL     1       5.224   4.528  14.800  0.00  0.00    +0.000 S 
BRANCH  11  17
ATOM     16  O   UNL     1       7.067   4.342  12.466  0.00  0.00    +0.000 OA
ATOM     17  N   UNL     1       7.529   5.000  13.409  0.00  0.00    +0.000 N 
ATOM     18  O   UNL     1       8.484   5.781  13.338  0.00  0.00    +0.000 OA
ENDBRANCH  11  17
ENDBRANCH   1  14
TORSDOF 2
ENDMDL
MODEL 4
REMARK VINA RESULT:      -7.0      1.051      1.355
REMARK  Name = 
REMARK  2 active torsions:
REMARK  status: ('A' for Active; 'I' for Inactive)
REMARK    1  A    between atoms: N_2  and  C_4
REMARK    2  A    between atoms: C_7  and  C_8
REMARK                            x       y       z     vdW  Elec       q    Type
REMARK                         _______ _______ _______ _____ _____    ______ ____
ROOT
ATOM      1  C   UNL     1       4.430   4.226  17.618  0.00  0.00    +0.000 A 
ATOM      2  N   UNL     1       4.276   4.776  18.806  0.00  0.00    +0.000 NA
ATOM      3  C   UNL     1       3.102   4.262  19.298  0.00  0.00    +0.000 A 
ATOM      4  C   UNL     1       2.452   4.522  20.511  0.00  0.00    +0.000 A 
ATOM      5  C   UNL     1       1.247   3.860  20.782  0.00  0.00    +0.000 A 
ATOM      6  C   UNL     1       0.707   2.956  19.865  0.00  0.00    +0.000 A 
ATOM      7  C   UNL     1       1.340   2.685  18.646  0.00  0.00    +0.000 A 
ATOM      8  C   UNL     1       2.535   3.365  18.399  0.00  0.00    +0.000 A 
ATOM      9  N   UNL     1       3.398   3.366  17.335  0.00  0.00    +0.000 N 
ATOM     10  H   UNL     1       3.306   2.844  16.475  0.00  0.00    +0.000 HD
ENDROOT
BRANCH   1  14
ATOM     11  C   UNL     1       6.897   4.818  14.779  0.00  0.00    +0.000 A 
ATOM     12  C   UNL     1       7.557   4.827  15.984  0.00  0.00    +0.000 A 
ATOM     13  N   UNL     1       6.745   4.635  17.093  0.00  0.00    +0.000 NA
ATOM     14  C   UNL     1       5.496   4.470  16.694  0.00  0.00    +0.000 A 
ATOM     15  S   UNL     1       5.235   4.553  14.996  0.00  0.00    +0.000 S 
BRANCH  11  17
ATOM     16  O   UNL     1       6.983   4.310  12.574  0.00  0.00    +0.000 OA
ATOM     17  N   UNL     1       7.469   4.996  13.483  0.00  0.00    +0.000 N 
ATOM     18  O   UNL     1       8.395   5.805  13.356  0.00  0.00    +0.000 OA
ENDBRANCH  11  17
ENDBRANCH   1  14
TORSDOF 2
ENDMDL
MODEL 5
REMARK VINA RESULT:      -6.9      0.947      1.731
REMARK  Name = 
REMARK  2 active torsions:
REMARK  status: ('A' for Active; 'I' for Inactive)
REMARK    1  A    between atoms: N_2  and  C_4
REMARK    2  A    between atoms: C_7  and  C_8
REMARK                            x       y       z     vdW  Elec       q    Type
REMARK                         _______ _______ _______ _____ _____    ______ ____
ROOT
ATOM      1  C   UNL     1       4.044   4.229  17.911  0.00  0.00    +0.000 A 
ATOM      2  N   UNL     1       4.499   3.452  18.873  0.00  0.00    +0.000 NA
ATOM      3  C   UNL     1       3.441   3.272  19.729  0.00  0.00    +0.000 A 
ATOM      4  C   UNL     1       3.375   2.552  20.929  0.00  0.00    +0.000 A 
ATOM      5  C   UNL     1       2.161   2.522  21.628  0.00  0.00    +0.000 A 
ATOM      6  C   UNL     1       1.038   3.192  21.138  0.00  0.00    +0.000 A 
ATOM      7  C   UNL     1       1.085   3.920  19.943  0.00  0.00    +0.000 A 
ATOM      8  C   UNL     1       2.310   3.939  19.272  0.00  0.00    +0.000 A 
ATOM      9  N   UNL     1       2.724   4.545  18.115  0.00  0.00    +0.000 N 
ATOM     10  H   UNL     1       2.175   5.137  17.508  0.00  0.00    +0.000 HD
ENDROOT
BRANCH   1  14
ATOM     11  C   UNL     1       6.205   5.053  14.887  0.00  0.00    +0.000 A 
ATOM     12  C   UNL     1       5.576   6.188  15.338  0.00  0.00    +0.000 A 
ATOM     13  N   UNL     1       4.746   5.997  16.433  0.00  0.00    +0.000 NA
ATOM     14  C   UNL     1       4.784   4.725  16.791  0.00  0.00    +0.000 A 
ATOM     15  S   UNL     1       5.787   3.708  15.833  0.00  0.00    +0.000 S 
BRANCH  11  17
ATOM     16  O   UNL     1       6.800   4.121  12.911  0.00  0.00    +0.000 OA
ATOM     17  N   UNL     1       7.103   4.948  13.782  0.00  0.00    +0.000 N 
ATOM     18  O   UNL     1       8.105   5.672  13.768  0.00  0.00    +0.000 OA
ENDBRANCH  11  17
ENDBRANCH   1  14
TORSDOF 2
ENDMDL
MODEL 6
REMARK VINA RESULT:      -6.9      0.981      1.303
REMARK  Name = 
REMARK  2 active torsions:
REMARK  status: ('A' for Active; 'I' for Inactive)
REMARK    1  A    between atoms: N_2  and  C_4
REMARK    2  A    between atoms: C_7  and  C_8
REMARK                            x       y       z     vdW  Elec       q    Type
REMARK                         _______ _______ _______ _____ _____    ______ ____
ROOT
ATOM      1  C   UNL     1       3.914   4.410  17.949  0.00  0.00    +0.000 A 
ATOM      2  N   UNL     1       2.655   4.709  18.200  0.00  0.00    +0.000 NA
ATOM      3  C   UNL     1       2.338   4.026  19.348  0.00  0.00    +0.000 A 
ATOM      4  C   UNL     1       1.126   3.967  20.047  0.00  0.00    +0.000 A 
ATOM      5  C   UNL     1       1.058   3.186  21.208  0.00  0.00    +0.000 A 
ATOM      6  C   UNL     1       2.176   2.486  21.665  0.00  0.00    +0.000 A 
ATOM      7  C   UNL     1       3.396   2.530  20.978  0.00  0.00    +0.000 A 
ATOM      8  C   UNL     1       3.432   3.309  19.819  0.00  0.00    +0.000 A 
ATOM      9  N   UNL     1       4.420   3.566  18.906  0.00  0.00    +0.000 N 
ATOM     10  H   UNL     1       5.362   3.201  18.908  0.00  0.00    +0.000 HD
ENDROOT
BRANCH   1  14
ATOM     11  C   UNL     1       6.154   5.094  14.948  0.00  0.00    +0.000 A 
ATOM     12  C   UNL     1       5.582   6.265  15.384  0.00  0.00    +0.000 A 
ATOM     13  N   UNL     1       4.730   6.127  16.470  0.00  0.00    +0.000 NA
ATOM     14  C   UNL     1       4.693   4.858  16.836  0.00  0.00    +0.000 A 
ATOM     15  S   UNL     1       5.651   3.781  15.897  0.00  0.00    +0.000 S 
BRANCH  11  17
ATOM     16  O   UNL     1       8.076   5.638  13.881  0.00  0.00    +0.000 OA
ATOM     17  N   UNL     1       7.057   4.932  13.855  0.00  0.00    +0.000 N 
ATOM     18  O   UNL     1       6.771   4.118  12.970  0.00  0.00    +0.000 OA
ENDBRANCH  11  17
ENDBRANCH   1  14
TORSDOF 2
ENDMDL
MODEL 7
REMARK VINA RESULT:      -6.6      3.662      4.265
REMARK  Name = 
REMARK  2 active torsions:
REMARK  status: ('A' for Active; 'I' for Inactive)
REMARK    1  A    between atoms: N_2  and  C_4
REMARK    2  A    between atoms: C_7  and  C_8
REMARK                            x       y       z     vdW  Elec       q    Type
REMARK                         _______ _______ _______ _____ _____    ______ ____
ROOT
ATOM      1  C   UNL     1       3.048   6.902  18.396  0.00  0.00    +0.000 A 
ATOM      2  N   UNL     1       2.526   7.986  17.858  0.00  0.00    +0.000 NA
ATOM      3  C   UNL     1       1.771   8.559  18.851  0.00  0.00    +0.000 A 
ATOM      4  C   UNL     1       0.982   9.717  18.819  0.00  0.00    +0.000 A 
ATOM      5  C   UNL     1       0.298  10.096  19.981  0.00  0.00    +0.000 A 
ATOM      6  C   UNL     1       0.403   9.340  21.151  0.00  0.00    +0.000 A 
ATOM      7  C   UNL     1       1.183   8.178  21.202  0.00  0.00    +0.000 A 
ATOM      8  C   UNL     1       1.847   7.820  20.026  0.00  0.00    +0.000 A 
ATOM      9  N   UNL     1       2.662   6.766  19.706  0.00  0.00    +0.000 N 
ATOM     10  H   UNL     1       2.936   6.003  20.308  0.00  0.00    +0.000 HD
ENDROOT
BRANCH   1  14
ATOM     11  C   UNL     1       5.596   4.781  16.525  0.00  0.00    +0.000 A 
ATOM     12  C   UNL     1       4.578   3.986  16.994  0.00  0.00    +0.000 A 
ATOM     13  N   UNL     1       3.598   4.660  17.708  0.00  0.00    +0.000 NA
ATOM     14  C   UNL     1       3.893   5.947  17.746  0.00  0.00    +0.000 A 
ATOM     15  S   UNL     1       5.349   6.404  16.953  0.00  0.00    +0.000 S 
BRANCH  11  17
ATOM     16  O   UNL     1       6.504   3.922  14.636  0.00  0.00    +0.000 OA
ATOM     17  N   UNL     1       6.735   4.364  15.771  0.00  0.00    +0.000 N 
ATOM     18  O   UNL     1       7.852   4.466  16.288  0.00  0.00    +0.000 OA
ENDBRANCH  11  17
ENDBRANCH   1  14
TORSDOF 2
ENDMDL
MODEL 8
REMARK VINA RESULT:      -6.5      3.695      4.469
REMARK  Name = 
REMARK  2 active torsions:
REMARK  status: ('A' for Active; 'I' for Inactive)
REMARK    1  A    between atoms: N_2  and  C_4
REMARK    2  A    between atoms: C_7  and  C_8
REMARK                            x       y       z     vdW  Elec       q    Type
REMARK                         _______ _______ _______ _____ _____    ______ ____
ROOT
ATOM      1  C   UNL     1       3.038   6.816  18.417  0.00  0.00    +0.000 A 
ATOM      2  N   UNL     1       2.616   6.699  19.661  0.00  0.00    +0.000 NA
ATOM      3  C   UNL     1       1.870   7.825  19.901  0.00  0.00    +0.000 A 
ATOM      4  C   UNL     1       1.206   8.225  21.068  0.00  0.00    +0.000 A 
ATOM      5  C   UNL     1       0.503   9.436  21.060  0.00  0.00    +0.000 A 
ATOM      6  C   UNL     1       0.459  10.229  19.911  0.00  0.00    +0.000 A 
ATOM      7  C   UNL     1       1.119   9.848  18.736  0.00  0.00    +0.000 A 
ATOM      8  C   UNL     1       1.819   8.640  18.776  0.00  0.00    +0.000 A 
ATOM      9  N   UNL     1       2.577   7.977  17.847  0.00  0.00    +0.000 N 
ATOM     10  H   UNL     1       2.785   8.275  16.905  0.00  0.00    +0.000 HD
ENDROOT
BRANCH   1  14
ATOM     11  C   UNL     1       5.616   4.795  16.478  0.00  0.00    +0.000 A 
ATOM     12  C   UNL     1       4.519   4.014  16.755  0.00  0.00    +0.000 A 
ATOM     13  N   UNL     1       3.520   4.652  17.476  0.00  0.00    +0.000 NA
ATOM     14  C   UNL     1       3.881   5.901  17.710  0.00  0.00    +0.000 A 
ATOM     15  S   UNL     1       5.422   6.361  17.101  0.00  0.00    +0.000 S 
BRANCH  11  17
ATOM     16  O   UNL     1       6.617   4.023  14.599  0.00  0.00    +0.000 OA
ATOM     17  N   UNL     1       6.790   4.406  15.764  0.00  0.00    +0.000 N 
ATOM     18  O   UNL     1       7.879   4.473  16.344  0.00  0.00    +0.000 OA
ENDBRANCH  11  17
ENDBRANCH   1  14
TORSDOF 2
ENDMDL
MODEL 9
REMARK VINA RESULT:      -6.4      4.943      5.945
REMARK  Name = 
REMARK  2 active torsions:
REMARK  status: ('A' for Active; 'I' for Inactive)
REMARK    1  A    between atoms: N_2  and  C_4
REMARK    2  A    between atoms: C_7  and  C_8
REMARK                            x       y       z     vdW  Elec       q    Type
REMARK                         _______ _______ _______ _____ _____    ______ ____
ROOT
ATOM      1  C   UNL     1       2.397   6.965  19.772  0.00  0.00    +0.000 A 
ATOM      2  N   UNL     1       2.185   7.937  18.907  0.00  0.00    +0.000 NA
ATOM      3  C   UNL     1       1.392   8.845  19.563  0.00  0.00    +0.000 A 
ATOM      4  C   UNL     1       0.850  10.053  19.106  0.00  0.00    +0.000 A 
ATOM      5  C   UNL     1       0.061  10.809  19.982  0.00  0.00    +0.000 A 
ATOM      6  C   UNL     1      -0.177  10.372  21.287  0.00  0.00    +0.000 A 
ATOM      7  C   UNL     1       0.352   9.165  21.761  0.00  0.00    +0.000 A 
ATOM      8  C   UNL     1       1.128   8.428  20.863  0.00  0.00    +0.000 A 
ATOM      9  N   UNL     1       1.775   7.225  20.968  0.00  0.00    +0.000 N 
ATOM     10  H   UNL     1       1.795   6.612  21.770  0.00  0.00    +0.000 HD
ENDROOT
BRANCH   1  14
ATOM     11  C   UNL     1       4.029   3.538  19.479  0.00  0.00    +0.000 A 
ATOM     12  C   UNL     1       4.787   4.477  18.820  0.00  0.00    +0.000 A 
ATOM     13  N   UNL     1       4.272   5.765  18.851  0.00  0.00    +0.000 NA
ATOM     14  C   UNL     1       3.148   5.768  19.546  0.00  0.00    +0.000 A 
ATOM     15  S   UNL     1       2.652   4.245  20.173  0.00  0.00    +0.000 S 
BRANCH  11  17
ATOM     16  O   UNL     1       3.745   1.401  18.788  0.00  0.00    +0.000 OA
ATOM     17  N   UNL     1       4.307   2.144  19.605  0.00  0.00    +0.000 N 
ATOM     18  O   UNL     1       5.071   1.775  20.504  0.00  0.00    +0.000 OA
ENDBRANCH  11  17
ENDBRANCH   1  14
TORSDOF 2
ENDMDL
