MODEL 1
REMARK VINA RESULT:      -7.3      0.000      0.000
REMARK  Name = 
REMARK  14 active torsions:
REMARK  status: ('A' for Active; 'I' for Inactive)
REMARK    1  A    between atoms: C_1  and  C_2
REMARK    2  A    between atoms: C_2  and  C_3
REMARK    3  A    between atoms: C_2  and  C_4
REMARK    4  A    between atoms: C_4  and  C_5
REMARK    5  A    between atoms: C_5  and  N_6
REMARK    6  A    between atoms: C_10  and  C_11
REMARK    7  A    between atoms: C_12  and  C_13
REMARK    8  A    between atoms: C_13  and  C_15
REMARK    9  A    between atoms: C_16  and  C_17
REMARK   10  A    between atoms: N_25  and  C_26
REMARK   11  A    between atoms: C_26  and  C_27
REMARK   12  A    between atoms: C_27  and  C_28
REMARK   13  A    between atoms: C_28  and  C_29
REMARK   14  A    between atoms: C_28  and  C_30
REMARK                            x       y       z     vdW  Elec       q    Type
REMARK                         _______ _______ _______ _____ _____    ______ ____
ROOT
ATOM      1  C   UNL     1       1.763   8.616  17.980  0.00  0.00    +0.000 C 
ATOM      2  C   UNL     1       2.810   7.860  18.367  0.00  0.00    +0.000 C 
ENDROOT
BRANCH   2   3
ATOM      3  C   UNL     1       2.738   6.435  18.304  0.00  0.00    +0.000 A 
ATOM      4  N   UNL     1       1.669   5.676  18.490  0.00  0.00    +0.000 NA
ATOM      5  C   UNL     1       2.070   4.378  18.311  0.00  0.00    +0.000 A 
ATOM      6  C   UNL     1       1.332   3.188  18.423  0.00  0.00    +0.000 A 
ATOM      7  C   UNL     1       1.970   1.966  18.185  0.00  0.00    +0.000 A 
ATOM      8  C   UNL     1       3.311   1.925  17.806  0.00  0.00    +0.000 A 
ATOM      9  C   UNL     1       4.060   3.099  17.686  0.00  0.00    +0.000 A 
ATOM     10  C   UNL     1       3.417   4.315  17.977  0.00  0.00    +0.000 A 
ATOM     11  N   UNL     1       3.848   5.631  18.056  0.00  0.00    +0.000 N 
BRANCH  11  12
ATOM     12  C   UNL     1       5.242   6.013  17.920  0.00  0.00    +0.000 C 
BRANCH  12  13
ATOM     13  C   UNL     1       5.705   6.455  16.527  0.00  0.00    +0.000 C 
BRANCH  13  14
ATOM     14  C   UNL     1       6.491   5.427  15.693  0.00  0.00    +0.000 C 
ATOM     15  C   UNL     1       7.310   4.458  16.545  0.00  0.00    +0.000 C 
ATOM     16  C   UNL     1       5.500   4.637  14.832  0.00  0.00    +0.000 C 
ENDBRANCH  13  14
ENDBRANCH  12  13
ENDBRANCH  11  12
ENDBRANCH   2   3
BRANCH   1  17
ATOM     17  C   UNL     1       1.819  10.107  18.073  0.00  0.00    +0.000 C 
ATOM     18  O   UNL     1       2.394  10.784  17.227  0.00  0.00    +0.000 OA
BRANCH  17  20
ATOM     19  C   UNL     1      -0.010  10.192  19.724  0.00  0.00    +0.000 C 
ATOM     20  C   UNL     1       1.132  10.728  19.249  0.00  0.00    +0.000 C 
BRANCH  19  25
ATOM     21  N   UNL     1      -1.599  11.744  20.781  0.00  0.00    +0.000 N 
ATOM     22  C   UNL     1      -2.021  12.044  22.055  0.00  0.00    +0.000 A 
ATOM     23  C   UNL     1      -1.327  11.194  22.874  0.00  0.00    +0.000 A 
ATOM     24  N   UNL     1      -0.492  10.394  22.142  0.00  0.00    +0.000 NA
ATOM     25  C   UNL     1      -0.651  10.735  20.874  0.00  0.00    +0.000 A 
BRANCH  21  26
ATOM     26  C   UNL     1      -2.086  12.459  19.608  0.00  0.00    +0.000 C 
BRANCH  26  27
ATOM     27  C   UNL     1      -3.462  11.988  19.132  0.00  0.00    +0.000 C 
BRANCH  27  29
ATOM     28  C   UNL     1      -3.066   9.915  17.778  0.00  0.00    +0.000 C 
ATOM     29  C   UNL     1      -3.452  11.395  17.710  0.00  0.00    +0.000 C 
ATOM     30  C   UNL     1      -4.801  11.542  17.001  0.00  0.00    +0.000 C 
ENDBRANCH  27  29
ENDBRANCH  26  27
ENDBRANCH  21  26
ENDBRANCH  19  25
ENDBRANCH  17  20
ENDBRANCH   1  17
TORSDOF 10
ENDMDL
MODEL 2
REMARK VINA RESULT:      -7.2      2.525      4.449
REMARK  Name = 
REMARK  14 active torsions:
REMARK  status: ('A' for Active; 'I' for Inactive)
REMARK    1  A    between atoms: C_1  and  C_2
REMARK    2  A    between atoms: C_2  and  C_3
REMARK    3  A    between atoms: C_2  and  C_4
REMARK    4  A    between atoms: C_4  and  C_5
REMARK    5  A    between atoms: C_5  and  N_6
REMARK    6  A    between atoms: C_10  and  C_11
REMARK    7  A    between atoms: C_12  and  C_13
REMARK    8  A    between atoms: C_13  and  C_15
REMARK    9  A    between atoms: C_16  and  C_17
REMARK   10  A    between atoms: N_25  and  C_26
REMARK   11  A    between atoms: C_26  and  C_27
REMARK   12  A    between atoms: C_27  and  C_28
REMARK   13  A    between atoms: C_28  and  C_29
REMARK   14  A    between atoms: C_28  and  C_30
REMARK                            x       y       z     vdW  Elec       q    Type
REMARK                         _______ _______ _______ _____ _____    ______ ____
ROOT
ATOM      1  C   UNL     1       1.164   9.300  21.584  0.00  0.00    +0.000 C 
ATOM      2  C   UNL     1       1.018   8.041  21.125  0.00  0.00    +0.000 C 
ENDROOT
BRANCH   2   3
ATOM      3  C   UNL     1       1.864   7.546  20.087  0.00  0.00    +0.000 A 
ATOM      4  N   UNL     1       2.333   8.214  19.045  0.00  0.00    +0.000 NA
ATOM      5  C   UNL     1       3.113   7.341  18.333  0.00  0.00    +0.000 A 
ATOM      6  C   UNL     1       3.815   7.541  17.132  0.00  0.00    +0.000 A 
ATOM      7  C   UNL     1       4.557   6.483  16.594  0.00  0.00    +0.000 A 
ATOM      8  C   UNL     1       4.631   5.257  17.253  0.00  0.00    +0.000 A 
ATOM      9  C   UNL     1       3.943   5.042  18.451  0.00  0.00    +0.000 A 
ATOM     10  C   UNL     1       3.162   6.100  18.952  0.00  0.00    +0.000 A 
ATOM     11  N   UNL     1       2.294   6.222  20.027  0.00  0.00    +0.000 N 
BRANCH  11  12
ATOM     12  C   UNL     1       1.929   5.103  20.877  0.00  0.00    +0.000 C 
BRANCH  12  13
ATOM     13  C   UNL     1       0.901   4.114  20.314  0.00  0.00    +0.000 C 
BRANCH  13  14
ATOM     14  C   UNL     1       1.210   2.615  20.480  0.00  0.00    +0.000 C 
ATOM     15  C   UNL     1       1.809   1.980  19.225  0.00  0.00    +0.000 C 
ATOM     16  C   UNL     1       2.182   2.443  21.652  0.00  0.00    +0.000 C 
ENDBRANCH  13  14
ENDBRANCH  12  13
ENDBRANCH  11  12
ENDBRANCH   2   3
BRANCH   1  17
ATOM     17  C   UNL     1       0.262   9.836  22.649  0.00  0.00    +0.000 C 
ATOM     18  O   UNL     1       0.492   9.656  23.839  0.00  0.00    +0.000 OA
BRANCH  17  20
ATOM     19  C   UNL     1      -1.361  11.678  22.881  0.00  0.00    +0.000 C 
ATOM     20  C   UNL     1      -0.933  10.608  22.182  0.00  0.00    +0.000 C 
BRANCH  19  25
ATOM     21  N   UNL     1      -2.306  13.499  21.524  0.00  0.00    +0.000 N 
ATOM     22  C   UNL     1      -3.548  14.045  21.292  0.00  0.00    +0.000 A 
ATOM     23  C   UNL     1      -4.415  13.304  22.049  0.00  0.00    +0.000 A 
ATOM     24  N   UNL     1      -3.742  12.330  22.738  0.00  0.00    +0.000 NA
ATOM     25  C   UNL     1      -2.463  12.457  22.427  0.00  0.00    +0.000 A 
BRANCH  21  26
ATOM     26  C   UNL     1      -1.093  14.032  20.919  0.00  0.00    +0.000 C 
BRANCH  26  27
ATOM     27  C   UNL     1      -0.869  13.560  19.480  0.00  0.00    +0.000 C 
BRANCH  27  29
ATOM     28  C   UNL     1      -0.279  11.246  18.714  0.00  0.00    +0.000 C 
ATOM     29  C   UNL     1       0.269  12.532  19.339  0.00  0.00    +0.000 C 
ATOM     30  C   UNL     1       1.436  13.055  18.498  0.00  0.00    +0.000 C 
ENDBRANCH  27  29
ENDBRANCH  26  27
ENDBRANCH  21  26
ENDBRANCH  19  25
ENDBRANCH  17  20
ENDBRANCH   1  17
TORSDOF 10
ENDMDL
MODEL 3
REMARK VINA RESULT:      -7.2      1.999      4.358
REMARK  Name = 
REMARK  14 active torsions:
REMARK  status: ('A' for Active; 'I' for Inactive)
REMARK    1  A    between atoms: C_1  and  C_2
REMARK    2  A    between atoms: C_2  and  C_3
REMARK    3  A    between atoms: C_2  and  C_4
REMARK    4  A    between atoms: C_4  and  C_5
REMARK    5  A    between atoms: C_5  and  N_6
REMARK    6  A    between atoms: C_10  and  C_11
REMARK    7  A    between atoms: C_12  and  C_13
REMARK    8  A    between atoms: C_13  and  C_15
REMARK    9  A    between atoms: C_16  and  C_17
REMARK   10  A    between atoms: N_25  and  C_26
REMARK   11  A    between atoms: C_26  and  C_27
REMARK   12  A    between atoms: C_27  and  C_28
REMARK   13  A    between atoms: C_28  and  C_29
REMARK   14  A    between atoms: C_28  and  C_30
REMARK                            x       y       z     vdW  Elec       q    Type
REMARK                         _______ _______ _______ _____ _____    ______ ____
ROOT
ATOM      1  C   UNL     1       1.562   8.938  17.986  0.00  0.00    +0.000 C 
ATOM      2  C   UNL     1       2.272   8.015  18.667  0.00  0.00    +0.000 C 
ENDROOT
BRANCH   2   3
ATOM      3  C   UNL     1       3.131   7.107  17.977  0.00  0.00    +0.000 A 
ATOM      4  N   UNL     1       4.214   7.401  17.274  0.00  0.00    +0.000 NA
ATOM      5  C   UNL     1       4.723   6.215  16.815  0.00  0.00    +0.000 A 
ATOM      6  C   UNL     1       5.842   5.974  16.001  0.00  0.00    +0.000 A 
ATOM      7  C   UNL     1       6.170   4.656  15.666  0.00  0.00    +0.000 A 
ATOM      8  C   UNL     1       5.420   3.589  16.159  0.00  0.00    +0.000 A 
ATOM      9  C   UNL     1       4.306   3.809  16.974  0.00  0.00    +0.000 A 
ATOM     10  C   UNL     1       3.961   5.142  17.260  0.00  0.00    +0.000 A 
ATOM     11  N   UNL     1       2.902   5.734  17.933  0.00  0.00    +0.000 N 
BRANCH  11  12
ATOM     12  C   UNL     1       1.774   4.978  18.446  0.00  0.00    +0.000 C 
BRANCH  12  13
ATOM     13  C   UNL     1       1.732   4.739  19.959  0.00  0.00    +0.000 C 
BRANCH  13  14
ATOM     14  C   UNL     1       1.180   3.383  20.438  0.00  0.00    +0.000 C 
ATOM     15  C   UNL     1       0.990   2.375  19.305  0.00  0.00    +0.000 C 
ATOM     16  C   UNL     1       2.143   2.804  21.480  0.00  0.00    +0.000 C 
ENDBRANCH  13  14
ENDBRANCH  12  13
ENDBRANCH  11  12
ENDBRANCH   2   3
BRANCH   1  17
ATOM     17  C   UNL     1       0.638   9.871  18.698  0.00  0.00    +0.000 C 
ATOM     18  O   UNL     1       0.855  10.242  19.846  0.00  0.00    +0.000 OA
BRANCH  17  20
ATOM     19  C   UNL     1      -1.791  10.232  18.476  0.00  0.00    +0.000 C 
ATOM     20  C   UNL     1      -0.563  10.333  17.932  0.00  0.00    +0.000 C 
BRANCH  19  25
ATOM     21  N   UNL     1      -3.784  11.668  18.336  0.00  0.00    +0.000 N 
ATOM     22  C   UNL     1      -4.788  11.914  17.429  0.00  0.00    +0.000 A 
ATOM     23  C   UNL     1      -4.510  11.112  16.356  0.00  0.00    +0.000 A 
ATOM     24  N   UNL     1      -3.374  10.382  16.581  0.00  0.00    +0.000 NA
ATOM     25  C   UNL     1      -2.940  10.713  17.787  0.00  0.00    +0.000 A 
BRANCH  21  26
ATOM     26  C   UNL     1      -3.734  12.312  19.642  0.00  0.00    +0.000 C 
BRANCH  26  27
ATOM     27  C   UNL     1      -5.113  12.519  20.274  0.00  0.00    +0.000 C 
BRANCH  27  29
ATOM     28  C   UNL     1      -3.749  12.680  22.372  0.00  0.00    +0.000 C 
ATOM     29  C   UNL     1      -5.056  13.104  21.698  0.00  0.00    +0.000 C 
ATOM     30  C   UNL     1      -5.170  14.631  21.714  0.00  0.00    +0.000 C 
ENDBRANCH  27  29
ENDBRANCH  26  27
ENDBRANCH  21  26
ENDBRANCH  19  25
ENDBRANCH  17  20
ENDBRANCH   1  17
TORSDOF 10
ENDMDL
MODEL 4
REMARK VINA RESULT:      -7.2      1.356      9.368
REMARK  Name = 
REMARK  14 active torsions:
REMARK  status: ('A' for Active; 'I' for Inactive)
REMARK    1  A    between atoms: C_1  and  C_2
REMARK    2  A    between atoms: C_2  and  C_3
REMARK    3  A    between atoms: C_2  and  C_4
REMARK    4  A    between atoms: C_4  and  C_5
REMARK    5  A    between atoms: C_5  and  N_6
REMARK    6  A    between atoms: C_10  and  C_11
REMARK    7  A    between atoms: C_12  and  C_13
REMARK    8  A    between atoms: C_13  and  C_15
REMARK    9  A    between atoms: C_16  and  C_17
REMARK   10  A    between atoms: N_25  and  C_26
REMARK   11  A    between atoms: C_26  and  C_27
REMARK   12  A    between atoms: C_27  and  C_28
REMARK   13  A    between atoms: C_28  and  C_29
REMARK   14  A    between atoms: C_28  and  C_30
REMARK                            x       y       z     vdW  Elec       q    Type
REMARK                         _______ _______ _______ _____ _____    ______ ____
ROOT
ATOM      1  C   UNL     1       0.933   9.031  19.177  0.00  0.00    +0.000 C 
ATOM      2  C   UNL     1       0.976  10.351  19.450  0.00  0.00    +0.000 C 
ENDROOT
BRANCH   2   3
ATOM      3  C   UNL     1      -0.081  10.974  20.181  0.00  0.00    +0.000 A 
ATOM      4  N   UNL     1      -0.266  10.963  21.492  0.00  0.00    +0.000 NA
ATOM      5  C   UNL     1      -1.391  11.706  21.738  0.00  0.00    +0.000 A 
ATOM      6  C   UNL     1      -2.033  11.982  22.957  0.00  0.00    +0.000 A 
ATOM      7  C   UNL     1      -3.182  12.782  22.955  0.00  0.00    +0.000 A 
ATOM      8  C   UNL     1      -3.666  13.329  21.768  0.00  0.00    +0.000 A 
ATOM      9  C   UNL     1      -3.037  13.069  20.547  0.00  0.00    +0.000 A 
ATOM     10  C   UNL     1      -1.914  12.223  20.561  0.00  0.00    +0.000 A 
ATOM     11  N   UNL     1      -1.113  11.679  19.567  0.00  0.00    +0.000 N 
BRANCH  11  12
ATOM     12  C   UNL     1      -1.392  11.844  18.152  0.00  0.00    +0.000 C 
BRANCH  12  13
ATOM     13  C   UNL     1      -2.113  10.688  17.450  0.00  0.00    +0.000 C 
BRANCH  13  14
ATOM     14  C   UNL     1      -2.972  11.041  16.221  0.00  0.00    +0.000 C 
ATOM     15  C   UNL     1      -2.937   9.970  15.132  0.00  0.00    +0.000 C 
ATOM     16  C   UNL     1      -4.418  11.255  16.681  0.00  0.00    +0.000 C 
ENDBRANCH  13  14
ENDBRANCH  12  13
ENDBRANCH  11  12
ENDBRANCH   2   3
BRANCH   1  17
ATOM     17  C   UNL     1       2.020   8.377  18.386  0.00  0.00    +0.000 C 
ATOM     18  O   UNL     1       2.445   8.870  17.346  0.00  0.00    +0.000 OA
BRANCH  17  20
ATOM     19  C   UNL     1       2.500   5.966  18.199  0.00  0.00    +0.000 C 
ATOM     20  C   UNL     1       2.564   7.095  18.933  0.00  0.00    +0.000 C 
BRANCH  19  25
ATOM     21  N   UNL     1       4.427   4.571  18.828  0.00  0.00    +0.000 N 
ATOM     22  C   UNL     1       4.638   3.299  19.305  0.00  0.00    +0.000 A 
ATOM     23  C   UNL     1       3.390   2.754  19.446  0.00  0.00    +0.000 A 
ATOM     24  N   UNL     1       2.427   3.650  19.063  0.00  0.00    +0.000 NA
ATOM     25  C   UNL     1       3.058   4.748  18.679  0.00  0.00    +0.000 A 
BRANCH  21  26
ATOM     26  C   UNL     1       5.521   5.480  18.513  0.00  0.00    +0.000 C 
BRANCH  26  27
ATOM     27  C   UNL     1       6.483   4.935  17.454  0.00  0.00    +0.000 C 
BRANCH  27  29
ATOM     28  C   UNL     1       5.399   4.169  15.326  0.00  0.00    +0.000 C 
ATOM     29  C   UNL     1       6.107   5.339  16.015  0.00  0.00    +0.000 C 
ATOM     30  C   UNL     1       5.215   6.581  15.965  0.00  0.00    +0.000 C 
ENDBRANCH  27  29
ENDBRANCH  26  27
ENDBRANCH  21  26
ENDBRANCH  19  25
ENDBRANCH  17  20
ENDBRANCH   1  17
TORSDOF 10
ENDMDL
MODEL 5
REMARK VINA RESULT:      -7.2      1.390      9.448
REMARK  Name = 
REMARK  14 active torsions:
REMARK  status: ('A' for Active; 'I' for Inactive)
REMARK    1  A    between atoms: C_1  and  C_2
REMARK    2  A    between atoms: C_2  and  C_3
REMARK    3  A    between atoms: C_2  and  C_4
REMARK    4  A    between atoms: C_4  and  C_5
REMARK    5  A    between atoms: C_5  and  N_6
REMARK    6  A    between atoms: C_10  and  C_11
REMARK    7  A    between atoms: C_12  and  C_13
REMARK    8  A    between atoms: C_13  and  C_15
REMARK    9  A    between atoms: C_16  and  C_17
REMARK   10  A    between atoms: N_25  and  C_26
REMARK   11  A    between atoms: C_26  and  C_27
REMARK   12  A    between atoms: C_27  and  C_28
REMARK   13  A    between atoms: C_28  and  C_29
REMARK   14  A    between atoms: C_28  and  C_30
REMARK                            x       y       z     vdW  Elec       q    Type
REMARK                         _______ _______ _______ _____ _____    ______ ____
ROOT
ATOM      1  C   UNL     1       1.550   8.997  19.198  0.00  0.00    +0.000 C 
ATOM      2  C   UNL     1       0.486   9.754  18.860  0.00  0.00    +0.000 C 
ENDROOT
BRANCH   2   3
ATOM      3  C   UNL     1      -0.208  10.513  19.850  0.00  0.00    +0.000 A 
ATOM      4  N   UNL     1      -0.324  10.236  21.139  0.00  0.00    +0.000 NA
ATOM      5  C   UNL     1      -1.055  11.251  21.698  0.00  0.00    +0.000 A 
ATOM      6  C   UNL     1      -1.483  11.422  23.025  0.00  0.00    +0.000 A 
ATOM      7  C   UNL     1      -2.225  12.561  23.359  0.00  0.00    +0.000 A 
ATOM      8  C   UNL     1      -2.509  13.532  22.401  0.00  0.00    +0.000 A 
ATOM      9  C   UNL     1      -2.088  13.380  21.077  0.00  0.00    +0.000 A 
ATOM     10  C   UNL     1      -1.386  12.207  20.747  0.00  0.00    +0.000 A 
ATOM     11  N   UNL     1      -0.907  11.681  19.556  0.00  0.00    +0.000 N 
BRANCH  11  12
ATOM     12  C   UNL     1      -1.163  12.293  18.265  0.00  0.00    +0.000 C 
BRANCH  12  13
ATOM     13  C   UNL     1      -2.437  11.856  17.532  0.00  0.00    +0.000 C 
BRANCH  13  14
ATOM     14  C   UNL     1      -2.411  10.478  16.846  0.00  0.00    +0.000 C 
ATOM     15  C   UNL     1      -3.279   9.436  17.551  0.00  0.00    +0.000 C 
ATOM     16  C   UNL     1      -2.889  10.644  15.399  0.00  0.00    +0.000 C 
ENDBRANCH  13  14
ENDBRANCH  12  13
ENDBRANCH  11  12
ENDBRANCH   2   3
BRANCH   1  17
ATOM     17  C   UNL     1       2.262   8.175  18.172  0.00  0.00    +0.000 C 
ATOM     18  O   UNL     1       2.813   8.688  17.204  0.00  0.00    +0.000 OA
BRANCH  17  20
ATOM     19  C   UNL     1       2.983   5.894  17.578  0.00  0.00    +0.000 C 
ATOM     20  C   UNL     1       2.272   6.695  18.395  0.00  0.00    +0.000 C 
BRANCH  19  25
ATOM     21  N   UNL     1       4.101   3.901  18.489  0.00  0.00    +0.000 N 
ATOM     22  C   UNL     1       3.868   2.546  18.535  0.00  0.00    +0.000 A 
ATOM     23  C   UNL     1       2.675   2.363  17.890  0.00  0.00    +0.000 A 
ATOM     24  N   UNL     1       2.177   3.559  17.448  0.00  0.00    +0.000 NA
ATOM     25  C   UNL     1       3.048   4.490  17.803  0.00  0.00    +0.000 A 
BRANCH  21  26
ATOM     26  C   UNL     1       5.303   4.507  19.047  0.00  0.00    +0.000 C 
BRANCH  26  27
ATOM     27  C   UNL     1       6.499   4.485  18.091  0.00  0.00    +0.000 C 
BRANCH  27  29
ATOM     28  C   UNL     1       7.356   6.775  17.535  0.00  0.00    +0.000 C 
ATOM     29  C   UNL     1       6.475   5.620  17.050  0.00  0.00    +0.000 C 
ATOM     30  C   UNL     1       6.944   5.162  15.667  0.00  0.00    +0.000 C 
ENDBRANCH  27  29
ENDBRANCH  26  27
ENDBRANCH  21  26
ENDBRANCH  19  25
ENDBRANCH  17  20
ENDBRANCH   1  17
TORSDOF 10
ENDMDL
MODEL 6
REMARK VINA RESULT:      -7.1      2.128      3.829
REMARK  Name = 
REMARK  14 active torsions:
REMARK  status: ('A' for Active; 'I' for Inactive)
REMARK    1  A    between atoms: C_1  and  C_2
REMARK    2  A    between atoms: C_2  and  C_3
REMARK    3  A    between atoms: C_2  and  C_4
REMARK    4  A    between atoms: C_4  and  C_5
REMARK    5  A    between atoms: C_5  and  N_6
REMARK    6  A    between atoms: C_10  and  C_11
REMARK    7  A    between atoms: C_12  and  C_13
REMARK    8  A    between atoms: C_13  and  C_15
REMARK    9  A    between atoms: C_16  and  C_17
REMARK   10  A    between atoms: N_25  and  C_26
REMARK   11  A    between atoms: C_26  and  C_27
REMARK   12  A    between atoms: C_27  and  C_28
REMARK   13  A    between atoms: C_28  and  C_29
REMARK   14  A    between atoms: C_28  and  C_30
REMARK                            x       y       z     vdW  Elec       q    Type
REMARK                         _______ _______ _______ _____ _____    ______ ____
ROOT
ATOM      1  C   UNL     1       2.241   7.522  19.117  0.00  0.00    +0.000 C 
ATOM      2  C   UNL     1       3.378   6.820  19.295  0.00  0.00    +0.000 C 
ENDROOT
BRANCH   2   3
ATOM      3  C   UNL     1       4.064   6.254  18.178  0.00  0.00    +0.000 A 
ATOM      4  N   UNL     1       4.319   6.833  17.015  0.00  0.00    +0.000 NA
ATOM      5  C   UNL     1       5.013   5.922  16.263  0.00  0.00    +0.000 A 
ATOM      6  C   UNL     1       5.495   6.026  14.947  0.00  0.00    +0.000 A 
ATOM      7  C   UNL     1       6.190   4.947  14.389  0.00  0.00    +0.000 A 
ATOM      8  C   UNL     1       6.434   3.796  15.136  0.00  0.00    +0.000 A 
ATOM      9  C   UNL     1       5.966   3.676  16.447  0.00  0.00    +0.000 A 
ATOM     10  C   UNL     1       5.227   4.749  16.976  0.00  0.00    +0.000 A 
ATOM     11  N   UNL     1       4.544   4.947  18.167  0.00  0.00    +0.000 N 
BRANCH  11  12
ATOM     12  C   UNL     1       4.382   3.905  19.165  0.00  0.00    +0.000 C 
BRANCH  12  13
ATOM     13  C   UNL     1       3.145   3.010  19.036  0.00  0.00    +0.000 C 
BRANCH  13  14
ATOM     14  C   UNL     1       1.775   3.712  19.004  0.00  0.00    +0.000 C 
ATOM     15  C   UNL     1       1.295   4.036  17.590  0.00  0.00    +0.000 C 
ATOM     16  C   UNL     1       0.748   2.809  19.696  0.00  0.00    +0.000 C 
ENDBRANCH  13  14
ENDBRANCH  12  13
ENDBRANCH  11  12
ENDBRANCH   2   3
BRANCH   1  17
ATOM     17  C   UNL     1       1.501   8.090  20.284  0.00  0.00    +0.000 C 
ATOM     18  O   UNL     1       1.312   7.439  21.306  0.00  0.00    +0.000 OA
BRANCH  17  20
ATOM     19  C   UNL     1       1.012  10.093  18.932  0.00  0.00    +0.000 C 
ATOM     20  C   UNL     1       1.008   9.497  20.140  0.00  0.00    +0.000 C 
BRANCH  19  25
ATOM     21  N   UNL     1      -0.849  11.655  18.543  0.00  0.00    +0.000 N 
ATOM     22  C   UNL     1      -1.016  13.015  18.424  0.00  0.00    +0.000 A 
ATOM     23  C   UNL     1       0.233  13.549  18.593  0.00  0.00    +0.000 A 
ATOM     24  N   UNL     1       1.155  12.559  18.805  0.00  0.00    +0.000 NA
ATOM     25  C   UNL     1       0.499  11.411  18.764  0.00  0.00    +0.000 A 
BRANCH  21  26
ATOM     26  C   UNL     1      -1.952  10.716  18.393  0.00  0.00    +0.000 C 
BRANCH  26  27
ATOM     27  C   UNL     1      -2.012  10.058  17.012  0.00  0.00    +0.000 C 
BRANCH  27  29
ATOM     28  C   UNL     1      -2.960  10.061  14.690  0.00  0.00    +0.000 C 
ATOM     29  C   UNL     1      -2.797  10.881  15.972  0.00  0.00    +0.000 C 
ATOM     30  C   UNL     1      -4.173  11.318  16.482  0.00  0.00    +0.000 C 
ENDBRANCH  27  29
ENDBRANCH  26  27
ENDBRANCH  21  26
ENDBRANCH  19  25
ENDBRANCH  17  20
ENDBRANCH   1  17
TORSDOF 10
ENDMDL
MODEL 7
REMARK VINA RESULT:      -7.1      2.103      2.832
REMARK  Name = 
REMARK  14 active torsions:
REMARK  status: ('A' for Active; 'I' for Inactive)
REMARK    1  A    between atoms: C_1  and  C_2
REMARK    2  A    between atoms: C_2  and  C_3
REMARK    3  A    between atoms: C_2  and  C_4
REMARK    4  A    between atoms: C_4  and  C_5
REMARK    5  A    between atoms: C_5  and  N_6
REMARK    6  A    between atoms: C_10  and  C_11
REMARK    7  A    between atoms: C_12  and  C_13
REMARK    8  A    between atoms: C_13  and  C_15
REMARK    9  A    between atoms: C_16  and  C_17
REMARK   10  A    between atoms: N_25  and  C_26
REMARK   11  A    between atoms: C_26  and  C_27
REMARK   12  A    between atoms: C_27  and  C_28
REMARK   13  A    between atoms: C_28  and  C_29
REMARK   14  A    between atoms: C_28  and  C_30
REMARK                            x       y       z     vdW  Elec       q    Type
REMARK                         _______ _______ _______ _____ _____    ______ ____
ROOT
ATOM      1  C   UNL     1       0.903   8.021  21.738  0.00  0.00    +0.000 C 
ATOM      2  C   UNL     1       1.744   7.702  20.733  0.00  0.00    +0.000 C 
ENDROOT
BRANCH   2   3
ATOM      3  C   UNL     1       1.826   6.360  20.253  0.00  0.00    +0.000 A 
ATOM      4  N   UNL     1       1.691   5.246  20.955  0.00  0.00    +0.000 NA
ATOM      5  C   UNL     1       1.826   4.205  20.075  0.00  0.00    +0.000 A 
ATOM      6  C   UNL     1       1.795   2.820  20.313  0.00  0.00    +0.000 A 
ATOM      7  C   UNL     1       1.954   1.941  19.236  0.00  0.00    +0.000 A 
ATOM      8  C   UNL     1       2.105   2.426  17.938  0.00  0.00    +0.000 A 
ATOM      9  C   UNL     1       2.134   3.800  17.682  0.00  0.00    +0.000 A 
ATOM     10  C   UNL     1       2.023   4.669  18.782  0.00  0.00    +0.000 A 
ATOM     11  N   UNL     1       2.101   6.047  18.925  0.00  0.00    +0.000 N 
BRANCH  11  12
ATOM     12  C   UNL     1       2.447   6.934  17.828  0.00  0.00    +0.000 C 
BRANCH  12  13
ATOM     13  C   UNL     1       3.939   7.193  17.592  0.00  0.00    +0.000 C 
BRANCH  13  14
ATOM     14  C   UNL     1       4.788   6.003  17.110  0.00  0.00    +0.000 C 
ATOM     15  C   UNL     1       5.335   6.185  15.695  0.00  0.00    +0.000 C 
ATOM     16  C   UNL     1       5.954   5.808  18.086  0.00  0.00    +0.000 C 
ENDBRANCH  13  14
ENDBRANCH  12  13
ENDBRANCH  11  12
ENDBRANCH   2   3
BRANCH   1  17
ATOM     17  C   UNL     1       0.835   9.417  22.267  0.00  0.00    +0.000 C 
ATOM     18  O   UNL     1       0.783   9.648  23.470  0.00  0.00    +0.000 OA
BRANCH  17  20
ATOM     19  C   UNL     1      -0.246  11.298  21.096  0.00  0.00    +0.000 C 
ATOM     20  C   UNL     1       0.840  10.515  21.250  0.00  0.00    +0.000 C 
BRANCH  19  25
ATOM     21  N   UNL     1      -0.648  12.227  18.853  0.00  0.00    +0.000 N 
ATOM     22  C   UNL     1      -0.527  13.447  18.230  0.00  0.00    +0.000 A 
ATOM     23  C   UNL     1      -0.070  14.302  19.196  0.00  0.00    +0.000 A 
ATOM     24  N   UNL     1       0.098  13.642  20.384  0.00  0.00    +0.000 NA
ATOM     25  C   UNL     1      -0.243  12.381  20.172  0.00  0.00    +0.000 A 
BRANCH  21  26
ATOM     26  C   UNL     1      -1.083  11.028  18.148  0.00  0.00    +0.000 C 
BRANCH  26  27
ATOM     27  C   UNL     1      -2.605  10.864  18.103  0.00  0.00    +0.000 C 
BRANCH  27  29
ATOM     28  C   UNL     1      -2.909   9.938  15.792  0.00  0.00    +0.000 C 
ATOM     29  C   UNL     1      -3.211  11.125  16.711  0.00  0.00    +0.000 C 
ATOM     30  C   UNL     1      -4.723  11.364  16.762  0.00  0.00    +0.000 C 
ENDBRANCH  27  29
ENDBRANCH  26  27
ENDBRANCH  21  26
ENDBRANCH  19  25
ENDBRANCH  17  20
ENDBRANCH   1  17
TORSDOF 10
ENDMDL
MODEL 8
REMARK VINA RESULT:      -7.1      1.565      9.588
REMARK  Name = 
REMARK  14 active torsions:
REMARK  status: ('A' for Active; 'I' for Inactive)
REMARK    1  A    between atoms: C_1  and  C_2
REMARK    2  A    between atoms: C_2  and  C_3
REMARK    3  A    between atoms: C_2  and  C_4
REMARK    4  A    between atoms: C_4  and  C_5
REMARK    5  A    between atoms: C_5  and  N_6
REMARK    6  A    between atoms: C_10  and  C_11
REMARK    7  A    between atoms: C_12  and  C_13
REMARK    8  A    between atoms: C_13  and  C_15
REMARK    9  A    between atoms: C_16  and  C_17
REMARK   10  A    between atoms: N_25  and  C_26
REMARK   11  A    between atoms: C_26  and  C_27
REMARK   12  A    between atoms: C_27  and  C_28
REMARK   13  A    between atoms: C_28  and  C_29
REMARK   14  A    between atoms: C_28  and  C_30
REMARK                            x       y       z     vdW  Elec       q    Type
REMARK                         _______ _______ _______ _____ _____    ______ ____
ROOT
ATOM      1  C   UNL     1       1.527   8.801  19.150  0.00  0.00    +0.000 C 
ATOM      2  C   UNL     1       1.281  10.076  18.787  0.00  0.00    +0.000 C 
ENDROOT
BRANCH   2   3
ATOM      3  C   UNL     1       0.455  10.913  19.597  0.00  0.00    +0.000 A 
ATOM      4  N   UNL     1       0.829  11.657  20.627  0.00  0.00    +0.000 NA
ATOM      5  C   UNL     1      -0.293  12.300  21.078  0.00  0.00    +0.000 A 
ATOM      6  C   UNL     1      -0.447  13.181  22.163  0.00  0.00    +0.000 A 
ATOM      7  C   UNL     1      -1.710  13.722  22.427  0.00  0.00    +0.000 A 
ATOM      8  C   UNL     1      -2.797  13.423  21.608  0.00  0.00    +0.000 A 
ATOM      9  C   UNL     1      -2.663  12.553  20.522  0.00  0.00    +0.000 A 
ATOM     10  C   UNL     1      -1.398  11.979  20.301  0.00  0.00    +0.000 A 
ATOM     11  N   UNL     1      -0.920  11.029  19.409  0.00  0.00    +0.000 N 
BRANCH  11  12
ATOM     12  C   UNL     1      -1.782  10.307  18.491  0.00  0.00    +0.000 C 
BRANCH  12  13
ATOM     13  C   UNL     1      -2.170  11.026  17.194  0.00  0.00    +0.000 C 
BRANCH  13  14
ATOM     14  C   UNL     1      -3.446  10.543  16.481  0.00  0.00    +0.000 C 
ATOM     15  C   UNL     1      -4.651  11.453  16.718  0.00  0.00    +0.000 C 
ATOM     16  C   UNL     1      -3.162  10.454  14.978  0.00  0.00    +0.000 C 
ENDBRANCH  13  14
ENDBRANCH  12  13
ENDBRANCH  11  12
ENDBRANCH   2   3
BRANCH   1  17
ATOM     17  C   UNL     1       2.365   7.909  18.292  0.00  0.00    +0.000 C 
ATOM     18  O   UNL     1       2.907   8.320  17.271  0.00  0.00    +0.000 OA
BRANCH  17  20
ATOM     19  C   UNL     1       2.202   5.478  17.914  0.00  0.00    +0.000 C 
ATOM     20  C   UNL     1       2.511   6.491  18.748  0.00  0.00    +0.000 C 
BRANCH  19  25
ATOM     21  N   UNL     1       3.601   3.470  18.172  0.00  0.00    +0.000 N 
ATOM     22  C   UNL     1       3.447   2.186  18.640  0.00  0.00    +0.000 A 
ATOM     23  C   UNL     1       2.147   2.110  19.061  0.00  0.00    +0.000 A 
ATOM     24  N   UNL     1       1.503   3.301  18.858  0.00  0.00    +0.000 NA
ATOM     25  C   UNL     1       2.384   4.122  18.310  0.00  0.00    +0.000 A 
BRANCH  21  26
ATOM     26  C   UNL     1       4.853   3.949  17.600  0.00  0.00    +0.000 C 
BRANCH  26  27
ATOM     27  C   UNL     1       5.756   4.658  18.612  0.00  0.00    +0.000 C 
BRANCH  27  29
ATOM     28  C   UNL     1       7.222   4.652  16.577  0.00  0.00    +0.000 C 
ATOM     29  C   UNL     1       7.175   4.939  18.081  0.00  0.00    +0.000 C 
ATOM     30  C   UNL     1       7.628   6.377  18.344  0.00  0.00    +0.000 C 
ENDBRANCH  27  29
ENDBRANCH  26  27
ENDBRANCH  21  26
ENDBRANCH  19  25
ENDBRANCH  17  20
ENDBRANCH   1  17
TORSDOF 10
ENDMDL
MODEL 9
REMARK VINA RESULT:      -7.1      1.444      9.433
REMARK  Name = 
REMARK  14 active torsions:
REMARK  status: ('A' for Active; 'I' for Inactive)
REMARK    1  A    between atoms: C_1  and  C_2
REMARK    2  A    between atoms: C_2  and  C_3
REMARK    3  A    between atoms: C_2  and  C_4
REMARK    4  A    between atoms: C_4  and  C_5
REMARK    5  A    between atoms: C_5  and  N_6
REMARK    6  A    between atoms: C_10  and  C_11
REMARK    7  A    between atoms: C_12  and  C_13
REMARK    8  A    between atoms: C_13  and  C_15
REMARK    9  A    between atoms: C_16  and  C_17
REMARK   10  A    between atoms: N_25  and  C_26
REMARK   11  A    between atoms: C_26  and  C_27
REMARK   12  A    between atoms: C_27  and  C_28
REMARK   13  A    between atoms: C_28  and  C_29
REMARK   14  A    between atoms: C_28  and  C_30
REMARK                            x       y       z     vdW  Elec       q    Type
REMARK                         _______ _______ _______ _____ _____    ______ ____
ROOT
ATOM      1  C   UNL     1       0.689   9.420  19.027  0.00  0.00    +0.000 C 
ATOM      2  C   UNL     1       0.905  10.459  19.860  0.00  0.00    +0.000 C 
ENDROOT
BRANCH   2   3
ATOM      3  C   UNL     1      -0.187  11.088  20.531  0.00  0.00    +0.000 A 
ATOM      4  N   UNL     1      -0.548  10.936  21.796  0.00  0.00    +0.000 NA
ATOM      5  C   UNL     1      -1.632  11.749  21.999  0.00  0.00    +0.000 A 
ATOM      6  C   UNL     1      -2.408  11.936  23.155  0.00  0.00    +0.000 A 
ATOM      7  C   UNL     1      -3.477  12.838  23.118  0.00  0.00    +0.000 A 
ATOM      8  C   UNL     1      -3.752  13.570  21.964  0.00  0.00    +0.000 A 
ATOM      9  C   UNL     1      -2.987  13.400  20.806  0.00  0.00    +0.000 A 
ATOM     10  C   UNL     1      -1.948  12.453  20.845  0.00  0.00    +0.000 A 
ATOM     11  N   UNL     1      -1.066  11.960  19.894  0.00  0.00    +0.000 N 
BRANCH  11  12
ATOM     12  C   UNL     1      -1.139  12.322  18.490  0.00  0.00    +0.000 C 
BRANCH  12  13
ATOM     13  C   UNL     1      -2.379  11.857  17.719  0.00  0.00    +0.000 C 
BRANCH  13  14
ATOM     14  C   UNL     1      -2.335  10.444  17.109  0.00  0.00    +0.000 C 
ATOM     15  C   UNL     1      -3.296   9.465  17.784  0.00  0.00    +0.000 C 
ATOM     16  C   UNL     1      -2.674  10.544  15.618  0.00  0.00    +0.000 C 
ENDBRANCH  13  14
ENDBRANCH  12  13
ENDBRANCH  11  12
ENDBRANCH   2   3
BRANCH   1  17
ATOM     17  C   UNL     1       1.823   8.777  18.296  0.00  0.00    +0.000 C 
ATOM     18  O   UNL     1       2.277   9.255  17.262  0.00  0.00    +0.000 OA
BRANCH  17  20
ATOM     19  C   UNL     1       2.341   6.368  18.203  0.00  0.00    +0.000 C 
ATOM     20  C   UNL     1       2.376   7.523  18.897  0.00  0.00    +0.000 C 
BRANCH  19  25
ATOM     21  N   UNL     1       4.078   4.626  18.227  0.00  0.00    +0.000 N 
ATOM     22  C   UNL     1       4.357   3.490  18.950  0.00  0.00    +0.000 A 
ATOM     23  C   UNL     1       3.357   3.399  19.880  0.00  0.00    +0.000 A 
ATOM     24  N   UNL     1       2.476   4.438  19.744  0.00  0.00    +0.000 NA
ATOM     25  C   UNL     1       2.909   5.176  18.734  0.00  0.00    +0.000 A 
BRANCH  21  26
ATOM     26  C   UNL     1       4.901   5.062  17.106  0.00  0.00    +0.000 C 
BRANCH  26  27
ATOM     27  C   UNL     1       5.724   6.318  17.404  0.00  0.00    +0.000 C 
BRANCH  27  29
ATOM     28  C   UNL     1       7.952   7.027  18.310  0.00  0.00    +0.000 C 
ATOM     29  C   UNL     1       7.245   6.090  17.327  0.00  0.00    +0.000 C 
ATOM     30  C   UNL     1       7.641   4.641  17.624  0.00  0.00    +0.000 C 
ENDBRANCH  27  29
ENDBRANCH  26  27
ENDBRANCH  21  26
ENDBRANCH  19  25
ENDBRANCH  17  20
ENDBRANCH   1  17
TORSDOF 10
ENDMDL
