MODEL 1
REMARK VINA RESULT:      -5.3      0.000      0.000
REMARK  Name = 
REMARK  2 active torsions:
REMARK  status: ('A' for Active; 'I' for Inactive)
REMARK    1  A    between atoms: S_2  and  O_4
REMARK    2  A    between atoms: S_2  and  C_5
REMARK                            x       y       z     vdW  Elec       q    Type
REMARK                         _______ _______ _______ _____ _____    ______ ____
ROOT
ATOM      1  C   UNL     1       6.058   4.750  17.305  0.00  0.00    +0.000 A 
ATOM      2  C   UNL     1       5.326   4.021  16.371  0.00  0.00    +0.000 A 
ATOM      3  C   UNL     1       5.694   4.093  15.030  0.00  0.00    +0.000 A 
ATOM      4  C   UNL     1       6.775   4.892  14.687  0.00  0.00    +0.000 A 
ATOM      5  N   UNL     1       7.506   5.597  15.582  0.00  0.00    +0.000 NA
ATOM      6  C   UNL     1       7.130   5.513  16.881  0.00  0.00    +0.000 A 
ENDROOT
BRANCH   1   8
ATOM      7  O   UNL     1       4.308   5.430  19.104  0.00  0.00    +0.000 OA
ATOM      8  S   UNL     1       5.596   4.784  18.994  0.00  0.00    +0.000 S 
ATOM      9  O   UNL     1       6.735   5.234  19.763  0.00  0.00    +0.000 OA
BRANCH   8  10
ATOM     10  O   UNL     1       5.353   3.241  19.400  0.00  0.00    +0.000 OA
ATOM     11  H   UNL     1       4.574   3.205  19.994  0.00  0.00    +0.000 HD
ENDBRANCH   8  10
ENDBRANCH   1   8
TORSDOF 2
ENDMDL
MODEL 2
REMARK VINA RESULT:      -5.2      0.145      1.327
REMARK  Name = 
REMARK  2 active torsions:
REMARK  status: ('A' for Active; 'I' for Inactive)
REMARK    1  A    between atoms: S_2  and  O_4
REMARK    2  A    between atoms: S_2  and  C_5
REMARK                            x       y       z     vdW  Elec       q    Type
REMARK                         _______ _______ _______ _____ _____    ______ ____
ROOT
ATOM      1  C   UNL     1       5.996   4.709  17.344  0.00  0.00    +0.000 A 
ATOM      2  C   UNL     1       5.322   3.952  16.388  0.00  0.00    +0.000 A 
ATOM      3  C   UNL     1       5.738   4.029  15.061  0.00  0.00    +0.000 A 
ATOM      4  C   UNL     1       6.806   4.859  14.753  0.00  0.00    +0.000 A 
ATOM      5  N   UNL     1       7.482   5.591  15.669  0.00  0.00    +0.000 NA
ATOM      6  C   UNL     1       7.059   5.503  16.954  0.00  0.00    +0.000 A 
ENDROOT
BRANCH   1   8
ATOM      7  O   UNL     1       5.272   3.378  19.456  0.00  0.00    +0.000 OA
ATOM      8  S   UNL     1       5.470   4.739  19.014  0.00  0.00    +0.000 S 
ATOM      9  O   UNL     1       4.428   5.734  19.140  0.00  0.00    +0.000 OA
BRANCH   8  10
ATOM     10  O   UNL     1       6.735   5.296  19.848  0.00  0.00    +0.000 OA
ATOM     11  H   UNL     1       6.943   4.645  20.551  0.00  0.00    +0.000 HD
ENDBRANCH   8  10
ENDBRANCH   1   8
TORSDOF 2
ENDMDL
MODEL 3
REMARK VINA RESULT:      -5.1      0.143      1.390
REMARK  Name = 
REMARK  2 active torsions:
REMARK  status: ('A' for Active; 'I' for Inactive)
REMARK    1  A    between atoms: S_2  and  O_4
REMARK    2  A    between atoms: S_2  and  C_5
REMARK                            x       y       z     vdW  Elec       q    Type
REMARK                         _______ _______ _______ _____ _____    ______ ____
ROOT
ATOM      1  C   UNL     1       6.051   4.707  17.356  0.00  0.00    +0.000 A 
ATOM      2  C   UNL     1       5.270   4.028  16.424  0.00  0.00    +0.000 A 
ATOM      3  C   UNL     1       5.606   4.122  15.076  0.00  0.00    +0.000 A 
ATOM      4  C   UNL     1       6.706   4.891  14.724  0.00  0.00    +0.000 A 
ATOM      5  N   UNL     1       7.485   5.546  15.616  0.00  0.00    +0.000 NA
ATOM      6  C   UNL     1       7.139   5.443  16.922  0.00  0.00    +0.000 A 
ENDROOT
BRANCH   1   8
ATOM      7  O   UNL     1       6.704   5.357  19.787  0.00  0.00    +0.000 OA
ATOM      8  S   UNL     1       5.635   4.715  19.056  0.00  0.00    +0.000 S 
ATOM      9  O   UNL     1       5.165   3.394  19.411  0.00  0.00    +0.000 OA
BRANCH   8  10
ATOM     10  O   UNL     1       4.362   5.699  19.178  0.00  0.00    +0.000 OA
ATOM     11  H   UNL     1       3.967   5.573  20.067  0.00  0.00    +0.000 HD
ENDBRANCH   8  10
ENDBRANCH   1   8
TORSDOF 2
ENDMDL
MODEL 4
REMARK VINA RESULT:      -5.0      3.113      3.691
REMARK  Name = 
REMARK  2 active torsions:
REMARK  status: ('A' for Active; 'I' for Inactive)
REMARK    1  A    between atoms: S_2  and  O_4
REMARK    2  A    between atoms: S_2  and  C_5
REMARK                            x       y       z     vdW  Elec       q    Type
REMARK                         _______ _______ _______ _____ _____    ______ ____
ROOT
ATOM      1  C   UNL     1       5.484   4.861  17.288  0.00  0.00    +0.000 A 
ATOM      2  C   UNL     1       4.401   4.100  16.855  0.00  0.00    +0.000 A 
ATOM      3  C   UNL     1       3.282   4.003  17.678  0.00  0.00    +0.000 A 
ATOM      4  C   UNL     1       3.300   4.669  18.895  0.00  0.00    +0.000 A 
ATOM      5  N   UNL     1       4.336   5.424  19.326  0.00  0.00    +0.000 NA
ATOM      6  C   UNL     1       5.416   5.504  18.511  0.00  0.00    +0.000 A 
ENDROOT
BRANCH   1   8
ATOM      7  O   UNL     1       7.415   6.324  16.345  0.00  0.00    +0.000 OA
ATOM      8  S   UNL     1       6.962   4.952  16.353  0.00  0.00    +0.000 S 
ATOM      9  O   UNL     1       6.764   4.214  15.125  0.00  0.00    +0.000 OA
BRANCH   8  10
ATOM     10  O   UNL     1       8.057   4.130  17.207  0.00  0.00    +0.000 OA
ATOM     11  H   UNL     1       8.866   4.046  16.659  0.00  0.00    +0.000 HD
ENDBRANCH   8  10
ENDBRANCH   1   8
TORSDOF 2
ENDMDL
MODEL 5
REMARK VINA RESULT:      -4.9      3.157      3.559
REMARK  Name = 
REMARK  2 active torsions:
REMARK  status: ('A' for Active; 'I' for Inactive)
REMARK    1  A    between atoms: S_2  and  O_4
REMARK    2  A    between atoms: S_2  and  C_5
REMARK                            x       y       z     vdW  Elec       q    Type
REMARK                         _______ _______ _______ _____ _____    ______ ____
ROOT
ATOM      1  C   UNL     1       5.763   5.441  18.560  0.00  0.00    +0.000 A 
ATOM      2  C   UNL     1       5.038   6.379  17.829  0.00  0.00    +0.000 A 
ATOM      3  C   UNL     1       3.668   6.188  17.670  0.00  0.00    +0.000 A 
ATOM      4  C   UNL     1       3.088   5.068  18.249  0.00  0.00    +0.000 A 
ATOM      5  N   UNL     1       3.773   4.153  18.974  0.00  0.00    +0.000 NA
ATOM      6  C   UNL     1       5.105   4.358  19.114  0.00  0.00    +0.000 A 
ENDROOT
BRANCH   1   8
ATOM      7  O   UNL     1       7.909   6.885  18.304  0.00  0.00    +0.000 OA
ATOM      8  S   UNL     1       7.502   5.562  18.721  0.00  0.00    +0.000 S 
ATOM      9  O   UNL     1       8.092   4.374  18.146  0.00  0.00    +0.000 OA
BRANCH   8  10
ATOM     10  O   UNL     1       7.788   5.491  20.308  0.00  0.00    +0.000 OA
ATOM     11  H   UNL     1       8.587   4.938  20.446  0.00  0.00    +0.000 HD
ENDBRANCH   8  10
ENDBRANCH   1   8
TORSDOF 2
ENDMDL
MODEL 6
REMARK VINA RESULT:      -4.9      2.842      3.477
REMARK  Name = 
REMARK  2 active torsions:
REMARK  status: ('A' for Active; 'I' for Inactive)
REMARK    1  A    between atoms: S_2  and  O_4
REMARK    2  A    between atoms: S_2  and  C_5
REMARK                            x       y       z     vdW  Elec       q    Type
REMARK                         _______ _______ _______ _____ _____    ______ ____
ROOT
ATOM      1  C   UNL     1       5.688   5.000  17.925  0.00  0.00    +0.000 A 
ATOM      2  C   UNL     1       4.965   4.291  16.969  0.00  0.00    +0.000 A 
ATOM      3  C   UNL     1       3.672   3.878  17.280  0.00  0.00    +0.000 A 
ATOM      4  C   UNL     1       3.163   4.193  18.532  0.00  0.00    +0.000 A 
ATOM      5  N   UNL     1       3.845   4.893  19.468  0.00  0.00    +0.000 NA
ATOM      6  C   UNL     1       5.102   5.284  19.145  0.00  0.00    +0.000 A 
ENDROOT
BRANCH   1   8
ATOM      7  O   UNL     1       7.901   5.973  18.881  0.00  0.00    +0.000 OA
ATOM      8  S   UNL     1       7.351   5.469  17.643  0.00  0.00    +0.000 S 
ATOM      9  O   UNL     1       7.400   6.243  16.423  0.00  0.00    +0.000 OA
BRANCH   8  10
ATOM     10  O   UNL     1       8.136   4.091  17.340  0.00  0.00    +0.000 OA
ATOM     11  H   UNL     1       8.783   3.947  18.062  0.00  0.00    +0.000 HD
ENDBRANCH   8  10
ENDBRANCH   1   8
TORSDOF 2
ENDMDL
MODEL 7
REMARK VINA RESULT:      -4.9      3.172      3.836
REMARK  Name = 
REMARK  2 active torsions:
REMARK  status: ('A' for Active; 'I' for Inactive)
REMARK    1  A    between atoms: S_2  and  O_4
REMARK    2  A    between atoms: S_2  and  C_5
REMARK                            x       y       z     vdW  Elec       q    Type
REMARK                         _______ _______ _______ _____ _____    ______ ____
ROOT
ATOM      1  C   UNL     1       5.507   5.585  17.862  0.00  0.00    +0.000 A 
ATOM      2  C   UNL     1       4.708   6.535  17.228  0.00  0.00    +0.000 A 
ATOM      3  C   UNL     1       3.506   6.902  17.827  0.00  0.00    +0.000 A 
ATOM      4  C   UNL     1       3.158   6.302  19.029  0.00  0.00    +0.000 A 
ATOM      5  N   UNL     1       3.928   5.389  19.666  0.00  0.00    +0.000 NA
ATOM      6  C   UNL     1       5.093   5.045  19.065  0.00  0.00    +0.000 A 
ENDROOT
BRANCH   1   8
ATOM      7  O   UNL     1       7.829   4.456  18.160  0.00  0.00    +0.000 OA
ATOM      8  S   UNL     1       6.984   5.003  17.123  0.00  0.00    +0.000 S 
ATOM      9  O   UNL     1       7.465   6.021  16.215  0.00  0.00    +0.000 OA
BRANCH   8  10
ATOM     10  O   UNL     1       6.537   3.751  16.208  0.00  0.00    +0.000 OA
ATOM     11  H   UNL     1       6.923   3.876  15.316  0.00  0.00    +0.000 HD
ENDBRANCH   8  10
ENDBRANCH   1   8
TORSDOF 2
ENDMDL
MODEL 8
REMARK VINA RESULT:      -4.9      3.249      3.869
REMARK  Name = 
REMARK  2 active torsions:
REMARK  status: ('A' for Active; 'I' for Inactive)
REMARK    1  A    between atoms: S_2  and  O_4
REMARK    2  A    between atoms: S_2  and  C_5
REMARK                            x       y       z     vdW  Elec       q    Type
REMARK                         _______ _______ _______ _____ _____    ______ ____
ROOT
ATOM      1  C   UNL     1       5.407   5.025  16.833  0.00  0.00    +0.000 A 
ATOM      2  C   UNL     1       4.884   6.206  17.355  0.00  0.00    +0.000 A 
ATOM      3  C   UNL     1       3.594   6.192  17.878  0.00  0.00    +0.000 A 
ATOM      4  C   UNL     1       2.886   4.998  17.853  0.00  0.00    +0.000 A 
ATOM      5  N   UNL     1       3.382   3.839  17.363  0.00  0.00    +0.000 NA
ATOM      6  C   UNL     1       4.639   3.876  16.857  0.00  0.00    +0.000 A 
ENDROOT
BRANCH   1   8
ATOM      7  O   UNL     1       7.525   6.328  16.076  0.00  0.00    +0.000 OA
ATOM      8  S   UNL     1       6.983   4.988  16.072  0.00  0.00    +0.000 S 
ATOM      9  O   UNL     1       6.876   4.220  14.851  0.00  0.00    +0.000 OA
BRANCH   8  10
ATOM     10  O   UNL     1       7.917   4.130  17.070  0.00  0.00    +0.000 OA
ATOM     11  H   UNL     1       8.459   4.759  17.592  0.00  0.00    +0.000 HD
ENDBRANCH   8  10
ENDBRANCH   1   8
TORSDOF 2
ENDMDL
MODEL 9
REMARK VINA RESULT:      -4.9      3.307      3.891
REMARK  Name = 
REMARK  2 active torsions:
REMARK  status: ('A' for Active; 'I' for Inactive)
REMARK    1  A    between atoms: S_2  and  O_4
REMARK    2  A    between atoms: S_2  and  C_5
REMARK                            x       y       z     vdW  Elec       q    Type
REMARK                         _______ _______ _______ _____ _____    ______ ____
ROOT
ATOM      1  C   UNL     1       5.379   4.579  16.865  0.00  0.00    +0.000 A 
ATOM      2  C   UNL     1       4.178   3.875  16.909  0.00  0.00    +0.000 A 
ATOM      3  C   UNL     1       3.790   3.291  18.112  0.00  0.00    +0.000 A 
ATOM      4  C   UNL     1       4.621   3.438  19.213  0.00  0.00    +0.000 A 
ATOM      5  N   UNL     1       5.784   4.130  19.194  0.00  0.00    +0.000 NA
ATOM      6  C   UNL     1       6.143   4.689  18.012  0.00  0.00    +0.000 A 
ENDROOT
BRANCH   1   8
ATOM      7  O   UNL     1       5.495   4.450  14.271  0.00  0.00    +0.000 OA
ATOM      8  S   UNL     1       5.979   5.259  15.367  0.00  0.00    +0.000 S 
ATOM      9  O   UNL     1       7.388   5.541  15.533  0.00  0.00    +0.000 OA
BRANCH   8  10
ATOM     10  O   UNL     1       5.242   6.687  15.222  0.00  0.00    +0.000 OA
ATOM     11  H   UNL     1       4.339   6.527  14.876  0.00  0.00    +0.000 HD
ENDBRANCH   8  10
ENDBRANCH   1   8
TORSDOF 2
ENDMDL
