MODEL 1
REMARK VINA RESULT:      -8.0      0.000      0.000
REMARK  Name = 
REMARK  4 active torsions:
REMARK  status: ('A' for Active; 'I' for Inactive)
REMARK    1  A    between atoms: C_1  and  C_2
REMARK    2  A    between atoms: C_9  and  C_10
REMARK    3  A    between atoms: C_13  and  O_14
REMARK    4  A    between atoms: C_17  and  C_18
REMARK                            x       y       z     vdW  Elec       q    Type
REMARK                         _______ _______ _______ _____ _____    ______ ____
ROOT
ATOM      1  C   UNL     1       5.848   3.628  12.275  0.00  0.00    +0.000 C 
ATOM      2  C   UNL     1       6.105   4.035  13.696  0.00  0.00    +0.000 A 
ATOM      3  C   UNL     1       7.297   4.669  14.060  0.00  0.00    +0.000 A 
ATOM      4  C   UNL     1       7.506   5.050  15.382  0.00  0.00    +0.000 A 
ATOM      5  C   UNL     1       6.525   4.782  16.339  0.00  0.00    +0.000 A 
ATOM      6  O   UNL     1       6.816   5.180  17.652  0.00  0.00    +0.000 OA
ATOM      7  C   UNL     1       5.956   4.901  18.701  0.00  0.00    +0.000 A 
ATOM      8  O   UNL     1       6.241   5.235  19.847  0.00  0.00    +0.000 OA
ATOM      9  C   UNL     1       4.689   4.184  18.372  0.00  0.00    +0.000 A 
ATOM     10  C   UNL     1       4.367   3.846  17.103  0.00  0.00    +0.000 A 
ATOM     11  C   UNL     1       3.091   3.140  16.706  0.00  0.00    +0.000 C 
ATOM     12  C   UNL     1       5.330   4.146  16.022  0.00  0.00    +0.000 A 
ATOM     13  C   UNL     1       5.128   3.790  14.678  0.00  0.00    +0.000 A 
ENDROOT
BRANCH   9  14
ATOM     14  C   UNL     1       3.805   3.818  19.500  0.00  0.00    +0.000 A 
ATOM     15  C   UNL     1       3.988   2.593  20.161  0.00  0.00    +0.000 A 
ATOM     16  C   UNL     1       3.136   2.216  21.200  0.00  0.00    +0.000 A 
ATOM     17  C   UNL     1       2.103   3.066  21.579  0.00  0.00    +0.000 A 
ATOM     18  C   UNL     1       1.921   4.293  20.950  0.00  0.00    +0.000 A 
ATOM     19  C   UNL     1       2.770   4.670  19.907  0.00  0.00    +0.000 A 
BRANCH  17  20
ATOM     20  O   UNL     1       1.230   2.725  22.569  0.00  0.00    +0.000 OA
ATOM     21  H   UNL     1       1.576   3.055  23.414  0.00  0.00    +0.000 HD
ENDBRANCH  17  20
ENDBRANCH   9  14
TORSDOF 2
ENDMDL
MODEL 2
REMARK VINA RESULT:      -7.8      0.265      1.109
REMARK  Name = 
REMARK  4 active torsions:
REMARK  status: ('A' for Active; 'I' for Inactive)
REMARK    1  A    between atoms: C_1  and  C_2
REMARK    2  A    between atoms: C_9  and  C_10
REMARK    3  A    between atoms: C_13  and  O_14
REMARK    4  A    between atoms: C_17  and  C_18
REMARK                            x       y       z     vdW  Elec       q    Type
REMARK                         _______ _______ _______ _____ _____    ______ ____
ROOT
ATOM      1  C   UNL     1       5.880   3.599  12.334  0.00  0.00    +0.000 C 
ATOM      2  C   UNL     1       6.047   4.045  13.757  0.00  0.00    +0.000 A 
ATOM      3  C   UNL     1       7.175   4.766  14.158  0.00  0.00    +0.000 A 
ATOM      4  C   UNL     1       7.300   5.181  15.481  0.00  0.00    +0.000 A 
ATOM      5  C   UNL     1       6.302   4.859  16.401  0.00  0.00    +0.000 A 
ATOM      6  O   UNL     1       6.508   5.295  17.718  0.00  0.00    +0.000 OA
ATOM      7  C   UNL     1       5.626   4.971  18.735  0.00  0.00    +0.000 A 
ATOM      8  O   UNL     1       5.838   5.342  19.886  0.00  0.00    +0.000 OA
ATOM      9  C   UNL     1       4.428   4.161  18.367  0.00  0.00    +0.000 A 
ATOM     10  C   UNL     1       4.185   3.783  17.092  0.00  0.00    +0.000 A 
ATOM     11  C   UNL     1       2.980   2.982  16.655  0.00  0.00    +0.000 C 
ATOM     12  C   UNL     1       5.168   4.134  16.047  0.00  0.00    +0.000 A 
ATOM     13  C   UNL     1       5.049   3.745  14.702  0.00  0.00    +0.000 A 
ENDROOT
BRANCH   9  14
ATOM     14  C   UNL     1       3.524   3.750  19.464  0.00  0.00    +0.000 A 
ATOM     15  C   UNL     1       2.383   4.517  19.751  0.00  0.00    +0.000 A 
ATOM     16  C   UNL     1       1.544   4.165  20.809  0.00  0.00    +0.000 A 
ATOM     17  C   UNL     1       1.844   3.046  21.577  0.00  0.00    +0.000 A 
ATOM     18  C   UNL     1       2.957   2.262  21.291  0.00  0.00    +0.000 A 
ATOM     19  C   UNL     1       3.802   2.615  20.237  0.00  0.00    +0.000 A 
BRANCH  17  20
ATOM     20  O   UNL     1       1.067   2.682  22.637  0.00  0.00    +0.000 OA
ATOM     21  H   UNL     1       0.136   2.824  22.401  0.00  0.00    +0.000 HD
ENDBRANCH  17  20
ENDBRANCH   9  14
TORSDOF 2
ENDMDL
MODEL 3
REMARK VINA RESULT:      -7.2      4.257      7.263
REMARK  Name = 
REMARK  4 active torsions:
REMARK  status: ('A' for Active; 'I' for Inactive)
REMARK    1  A    between atoms: C_1  and  C_2
REMARK    2  A    between atoms: C_9  and  C_10
REMARK    3  A    between atoms: C_13  and  O_14
REMARK    4  A    between atoms: C_17  and  C_18
REMARK                            x       y       z     vdW  Elec       q    Type
REMARK                         _______ _______ _______ _____ _____    ______ ____
ROOT
ATOM      1  C   UNL     1      -0.799  10.275  23.080  0.00  0.00    +0.000 C 
ATOM      2  C   UNL     1      -0.051  10.033  21.801  0.00  0.00    +0.000 A 
ATOM      3  C   UNL     1       0.073  11.039  20.838  0.00  0.00    +0.000 A 
ATOM      4  C   UNL     1       0.783  10.795  19.667  0.00  0.00    +0.000 A 
ATOM      5  C   UNL     1       1.355   9.539  19.457  0.00  0.00    +0.000 A 
ATOM      6  O   UNL     1       2.039   9.364  18.245  0.00  0.00    +0.000 OA
ATOM      7  C   UNL     1       2.582   8.141  17.890  0.00  0.00    +0.000 A 
ATOM      8  O   UNL     1       3.156   8.002  16.813  0.00  0.00    +0.000 OA
ATOM      9  C   UNL     1       2.436   7.021  18.864  0.00  0.00    +0.000 A 
ATOM     10  C   UNL     1       1.831   7.189  20.062  0.00  0.00    +0.000 A 
ATOM     11  C   UNL     1       1.672   6.100  21.097  0.00  0.00    +0.000 C 
ATOM     12  C   UNL     1       1.247   8.508  20.384  0.00  0.00    +0.000 A 
ATOM     13  C   UNL     1       0.546   8.781  21.570  0.00  0.00    +0.000 A 
ENDROOT
BRANCH   9  14
ATOM     14  C   UNL     1       2.949   5.695  18.455  0.00  0.00    +0.000 A 
ATOM     15  C   UNL     1       2.092   4.782  17.818  0.00  0.00    +0.000 A 
ATOM     16  C   UNL     1       2.551   3.513  17.463  0.00  0.00    +0.000 A 
ATOM     17  C   UNL     1       3.865   3.158  17.742  0.00  0.00    +0.000 A 
ATOM     18  C   UNL     1       4.733   4.058  18.352  0.00  0.00    +0.000 A 
ATOM     19  C   UNL     1       4.276   5.327  18.713  0.00  0.00    +0.000 A 
BRANCH  17  20
ATOM     20  O   UNL     1       4.346   1.919  17.439  0.00  0.00    +0.000 OA
ATOM     21  H   UNL     1       3.889   1.265  17.992  0.00  0.00    +0.000 HD
ENDBRANCH  17  20
ENDBRANCH   9  14
TORSDOF 2
ENDMDL
MODEL 4
REMARK VINA RESULT:      -7.1      3.901      6.178
REMARK  Name = 
REMARK  4 active torsions:
REMARK  status: ('A' for Active; 'I' for Inactive)
REMARK    1  A    between atoms: C_1  and  C_2
REMARK    2  A    between atoms: C_9  and  C_10
REMARK    3  A    between atoms: C_13  and  O_14
REMARK    4  A    between atoms: C_17  and  C_18
REMARK                            x       y       z     vdW  Elec       q    Type
REMARK                         _______ _______ _______ _____ _____    ______ ____
ROOT
ATOM      1  C   UNL     1      -0.302  10.799  20.939  0.00  0.00    +0.000 C 
ATOM      2  C   UNL     1       0.643  10.144  19.974  0.00  0.00    +0.000 A 
ATOM      3  C   UNL     1       1.189  10.858  18.903  0.00  0.00    +0.000 A 
ATOM      4  C   UNL     1       2.074  10.233  18.030  0.00  0.00    +0.000 A 
ATOM      5  C   UNL     1       2.398   8.889  18.224  0.00  0.00    +0.000 A 
ATOM      6  O   UNL     1       3.281   8.324  17.293  0.00  0.00    +0.000 OA
ATOM      7  C   UNL     1       3.618   6.982  17.335  0.00  0.00    +0.000 A 
ATOM      8  O   UNL     1       4.374   6.501  16.495  0.00  0.00    +0.000 OA
ATOM      9  C   UNL     1       3.023   6.164  18.433  0.00  0.00    +0.000 A 
ATOM     10  C   UNL     1       2.217   6.706  19.373  0.00  0.00    +0.000 A 
ATOM     11  C   UNL     1       1.604   5.935  20.519  0.00  0.00    +0.000 C 
ATOM     12  C   UNL     1       1.870   8.139  19.270  0.00  0.00    +0.000 A 
ATOM     13  C   UNL     1       0.997   8.795  20.153  0.00  0.00    +0.000 A 
ENDROOT
BRANCH   9  14
ATOM     14  C   UNL     1       3.321   4.715  18.436  0.00  0.00    +0.000 A 
ATOM     15  C   UNL     1       2.558   3.845  17.640  0.00  0.00    +0.000 A 
ATOM     16  C   UNL     1       2.801   2.470  17.663  0.00  0.00    +0.000 A 
ATOM     17  C   UNL     1       3.807   1.968  18.480  0.00  0.00    +0.000 A 
ATOM     18  C   UNL     1       4.586   2.818  19.258  0.00  0.00    +0.000 A 
ATOM     19  C   UNL     1       4.343   4.193  19.240  0.00  0.00    +0.000 A 
BRANCH  17  20
ATOM     20  O   UNL     1       4.059   0.630  18.556  0.00  0.00    +0.000 OA
ATOM     21  H   UNL     1       4.771   0.413  17.934  0.00  0.00    +0.000 HD
ENDBRANCH  17  20
ENDBRANCH   9  14
TORSDOF 2
ENDMDL
MODEL 5
REMARK VINA RESULT:      -7.1      4.417      7.399
REMARK  Name = 
REMARK  4 active torsions:
REMARK  status: ('A' for Active; 'I' for Inactive)
REMARK    1  A    between atoms: C_1  and  C_2
REMARK    2  A    between atoms: C_9  and  C_10
REMARK    3  A    between atoms: C_13  and  O_14
REMARK    4  A    between atoms: C_17  and  C_18
REMARK                            x       y       z     vdW  Elec       q    Type
REMARK                         _______ _______ _______ _____ _____    ______ ____
ROOT
ATOM      1  C   UNL     1      -0.984  10.493  23.062  0.00  0.00    +0.000 C 
ATOM      2  C   UNL     1      -0.231  10.242  21.789  0.00  0.00    +0.000 A 
ATOM      3  C   UNL     1      -0.137  11.226  20.801  0.00  0.00    +0.000 A 
ATOM      4  C   UNL     1       0.580  10.974  19.635  0.00  0.00    +0.000 A 
ATOM      5  C   UNL     1       1.189   9.731  19.456  0.00  0.00    +0.000 A 
ATOM      6  O   UNL     1       1.877   9.546  18.249  0.00  0.00    +0.000 OA
ATOM      7  C   UNL     1       2.457   8.331  17.924  0.00  0.00    +0.000 A 
ATOM      8  O   UNL     1       3.034   8.182  16.850  0.00  0.00    +0.000 OA
ATOM      9  C   UNL     1       2.345   7.232  18.926  0.00  0.00    +0.000 A 
ATOM     10  C   UNL     1       1.735   7.412  20.120  0.00  0.00    +0.000 A 
ATOM     11  C   UNL     1       1.610   6.345  21.183  0.00  0.00    +0.000 C 
ATOM     12  C   UNL     1       1.113   8.720  20.409  0.00  0.00    +0.000 A 
ATOM     13  C   UNL     1       0.404   9.003  21.589  0.00  0.00    +0.000 A 
ENDROOT
BRANCH   9  14
ATOM     14  C   UNL     1       2.897   5.912  18.550  0.00  0.00    +0.000 A 
ATOM     15  C   UNL     1       4.230   5.599  18.863  0.00  0.00    +0.000 A 
ATOM     16  C   UNL     1       4.777   4.374  18.479  0.00  0.00    +0.000 A 
ATOM     17  C   UNL     1       3.991   3.462  17.785  0.00  0.00    +0.000 A 
ATOM     18  C   UNL     1       2.662   3.746  17.487  0.00  0.00    +0.000 A 
ATOM     19  C   UNL     1       2.113   4.973  17.866  0.00  0.00    +0.000 A 
BRANCH  17  20
ATOM     20  O   UNL     1       4.493   2.266  17.365  0.00  0.00    +0.000 OA
ATOM     21  H   UNL     1       5.441   2.239  17.571  0.00  0.00    +0.000 HD
ENDBRANCH  17  20
ENDBRANCH   9  14
TORSDOF 2
ENDMDL
MODEL 6
REMARK VINA RESULT:      -7.1      3.997      7.223
REMARK  Name = 
REMARK  4 active torsions:
REMARK  status: ('A' for Active; 'I' for Inactive)
REMARK    1  A    between atoms: C_1  and  C_2
REMARK    2  A    between atoms: C_9  and  C_10
REMARK    3  A    between atoms: C_13  and  O_14
REMARK    4  A    between atoms: C_17  and  C_18
REMARK                            x       y       z     vdW  Elec       q    Type
REMARK                         _______ _______ _______ _____ _____    ______ ____
ROOT
ATOM      1  C   UNL     1       0.028  12.229  19.919  0.00  0.00    +0.000 C 
ATOM      2  C   UNL     1       0.322  10.810  20.309  0.00  0.00    +0.000 A 
ATOM      3  C   UNL     1      -0.131  10.288  21.524  0.00  0.00    +0.000 A 
ATOM      4  C   UNL     1       0.142   8.965  21.857  0.00  0.00    +0.000 A 
ATOM      5  C   UNL     1       0.881   8.172  20.977  0.00  0.00    +0.000 A 
ATOM      6  O   UNL     1       1.131   6.856  21.390  0.00  0.00    +0.000 OA
ATOM      7  C   UNL     1       1.916   5.997  20.639  0.00  0.00    +0.000 A 
ATOM      8  O   UNL     1       2.143   4.856  21.031  0.00  0.00    +0.000 OA
ATOM      9  C   UNL     1       2.463   6.522  19.354  0.00  0.00    +0.000 A 
ATOM     10  C   UNL     1       2.183   7.769  18.913  0.00  0.00    +0.000 A 
ATOM     11  C   UNL     1       2.688   8.347  17.612  0.00  0.00    +0.000 C 
ATOM     12  C   UNL     1       1.359   8.654  19.763  0.00  0.00    +0.000 A 
ATOM     13  C   UNL     1       1.053   9.985  19.435  0.00  0.00    +0.000 A 
ENDROOT
BRANCH   9  14
ATOM     14  C   UNL     1       3.363   5.633  18.587  0.00  0.00    +0.000 A 
ATOM     15  C   UNL     1       4.754   5.736  18.755  0.00  0.00    +0.000 A 
ATOM     16  C   UNL     1       5.617   4.932  18.009  0.00  0.00    +0.000 A 
ATOM     17  C   UNL     1       5.089   4.025  17.097  0.00  0.00    +0.000 A 
ATOM     18  C   UNL     1       3.714   3.894  16.935  0.00  0.00    +0.000 A 
ATOM     19  C   UNL     1       2.848   4.700  17.677  0.00  0.00    +0.000 A 
BRANCH  17  20
ATOM     20  O   UNL     1       5.896   3.241  16.327  0.00  0.00    +0.000 OA
ATOM     21  H   UNL     1       5.666   2.311  16.485  0.00  0.00    +0.000 HD
ENDBRANCH  17  20
ENDBRANCH   9  14
TORSDOF 2
ENDMDL
MODEL 7
REMARK VINA RESULT:      -7.1      3.881      6.276
REMARK  Name = 
REMARK  4 active torsions:
REMARK  status: ('A' for Active; 'I' for Inactive)
REMARK    1  A    between atoms: C_1  and  C_2
REMARK    2  A    between atoms: C_9  and  C_10
REMARK    3  A    between atoms: C_13  and  O_14
REMARK    4  A    between atoms: C_17  and  C_18
REMARK                            x       y       z     vdW  Elec       q    Type
REMARK                         _______ _______ _______ _____ _____    ______ ____
ROOT
ATOM      1  C   UNL     1      -0.420  10.716  21.332  0.00  0.00    +0.000 C 
ATOM      2  C   UNL     1       0.503  10.074  20.338  0.00  0.00    +0.000 A 
ATOM      3  C   UNL     1       1.029  10.802  19.266  0.00  0.00    +0.000 A 
ATOM      4  C   UNL     1       1.894  10.188  18.366  0.00  0.00    +0.000 A 
ATOM      5  C   UNL     1       2.219   8.841  18.533  0.00  0.00    +0.000 A 
ATOM      6  O   UNL     1       3.081   8.289  17.575  0.00  0.00    +0.000 OA
ATOM      7  C   UNL     1       3.415   6.945  17.591  0.00  0.00    +0.000 A 
ATOM      8  O   UNL     1       4.153   6.475  16.728  0.00  0.00    +0.000 OA
ATOM      9  C   UNL     1       2.842   6.112  18.688  0.00  0.00    +0.000 A 
ATOM     10  C   UNL     1       2.057   6.642  19.653  0.00  0.00    +0.000 A 
ATOM     11  C   UNL     1       1.466   5.855  20.800  0.00  0.00    +0.000 C 
ATOM     12  C   UNL     1       1.711   8.077  19.578  0.00  0.00    +0.000 A 
ATOM     13  C   UNL     1       0.858   8.721  20.489  0.00  0.00    +0.000 A 
ENDROOT
BRANCH   9  14
ATOM     14  C   UNL     1       3.137   4.662  18.664  0.00  0.00    +0.000 A 
ATOM     15  C   UNL     1       4.243   4.164  19.371  0.00  0.00    +0.000 A 
ATOM     16  C   UNL     1       4.557   2.804  19.325  0.00  0.00    +0.000 A 
ATOM     17  C   UNL     1       3.764   1.945  18.573  0.00  0.00    +0.000 A 
ATOM     18  C   UNL     1       2.652   2.419  17.884  0.00  0.00    +0.000 A 
ATOM     19  C   UNL     1       2.338   3.779  17.926  0.00  0.00    +0.000 A 
BRANCH  17  20
ATOM     20  O   UNL     1       4.051   0.616  18.476  0.00  0.00    +0.000 OA
ATOM     21  H   UNL     1       4.083   0.374  17.537  0.00  0.00    +0.000 HD
ENDBRANCH  17  20
ENDBRANCH   9  14
TORSDOF 2
ENDMDL
MODEL 8
REMARK VINA RESULT:      -7.0      3.992      7.269
REMARK  Name = 
REMARK  4 active torsions:
REMARK  status: ('A' for Active; 'I' for Inactive)
REMARK    1  A    between atoms: C_1  and  C_2
REMARK    2  A    between atoms: C_9  and  C_10
REMARK    3  A    between atoms: C_13  and  O_14
REMARK    4  A    between atoms: C_17  and  C_18
REMARK                            x       y       z     vdW  Elec       q    Type
REMARK                         _______ _______ _______ _____ _____    ______ ____
ROOT
ATOM      1  C   UNL     1      -0.108  12.164  20.118  0.00  0.00    +0.000 C 
ATOM      2  C   UNL     1       0.236  10.744  20.458  0.00  0.00    +0.000 A 
ATOM      3  C   UNL     1      -0.153  10.181  21.678  0.00  0.00    +0.000 A 
ATOM      4  C   UNL     1       0.166   8.857  21.965  0.00  0.00    +0.000 A 
ATOM      5  C   UNL     1       0.885   8.105  21.035  0.00  0.00    +0.000 A 
ATOM      6  O   UNL     1       1.184   6.785  21.403  0.00  0.00    +0.000 OA
ATOM      7  C   UNL     1       1.957   5.966  20.599  0.00  0.00    +0.000 A 
ATOM      8  O   UNL     1       2.229   4.821  20.951  0.00  0.00    +0.000 OA
ATOM      9  C   UNL     1       2.437   6.535  19.305  0.00  0.00    +0.000 A 
ATOM     10  C   UNL     1       2.108   7.785  18.909  0.00  0.00    +0.000 A 
ATOM     11  C   UNL     1       2.544   8.409  17.603  0.00  0.00    +0.000 C 
ATOM     12  C   UNL     1       1.300   8.628  19.815  0.00  0.00    +0.000 A 
ATOM     13  C   UNL     1       0.949   9.959  19.534  0.00  0.00    +0.000 A 
ENDROOT
BRANCH   9  14
ATOM     14  C   UNL     1       3.325   5.688  18.479  0.00  0.00    +0.000 A 
ATOM     15  C   UNL     1       2.773   4.685  17.666  0.00  0.00    +0.000 A 
ATOM     16  C   UNL     1       3.601   3.852  16.912  0.00  0.00    +0.000 A 
ATOM     17  C   UNL     1       4.979   4.024  16.970  0.00  0.00    +0.000 A 
ATOM     18  C   UNL     1       5.541   5.027  17.752  0.00  0.00    +0.000 A 
ATOM     19  C   UNL     1       4.715   5.860  18.511  0.00  0.00    +0.000 A 
BRANCH  17  20
ATOM     20  O   UNL     1       5.825   3.214  16.273  0.00  0.00    +0.000 OA
ATOM     21  H   UNL     1       6.733   3.383  16.574  0.00  0.00    +0.000 HD
ENDBRANCH  17  20
ENDBRANCH   9  14
TORSDOF 2
ENDMDL
MODEL 9
REMARK VINA RESULT:      -6.7      6.023      7.752
REMARK  Name = 
REMARK  4 active torsions:
REMARK  status: ('A' for Active; 'I' for Inactive)
REMARK    1  A    between atoms: C_1  and  C_2
REMARK    2  A    between atoms: C_9  and  C_10
REMARK    3  A    between atoms: C_13  and  O_14
REMARK    4  A    between atoms: C_17  and  C_18
REMARK                            x       y       z     vdW  Elec       q    Type
REMARK                         _______ _______ _______ _____ _____    ______ ____
ROOT
ATOM      1  C   UNL     1       4.417   5.264  16.942  0.00  0.00    +0.000 C 
ATOM      2  C   UNL     1       3.569   5.782  18.066  0.00  0.00    +0.000 A 
ATOM      3  C   UNL     1       3.271   4.981  19.172  0.00  0.00    +0.000 A 
ATOM      4  C   UNL     1       2.494   5.490  20.209  0.00  0.00    +0.000 A 
ATOM      5  C   UNL     1       2.006   6.795  20.128  0.00  0.00    +0.000 A 
ATOM      6  O   UNL     1       1.216   7.229  21.202  0.00  0.00    +0.000 OA
ATOM      7  C   UNL     1       0.613   8.475  21.200  0.00  0.00    +0.000 A 
ATOM      8  O   UNL     1      -0.096   8.827  22.139  0.00  0.00    +0.000 OA
ATOM      9  C   UNL     1       0.861   9.352  20.019  0.00  0.00    +0.000 A 
ATOM     10  C   UNL     1       1.668   8.971  19.003  0.00  0.00    +0.000 A 
ATOM     11  C   UNL     1       1.976   9.823  17.793  0.00  0.00    +0.000 C 
ATOM     12  C   UNL     1       2.270   7.622  19.041  0.00  0.00    +0.000 A 
ATOM     13  C   UNL     1       3.075   7.098  18.016  0.00  0.00    +0.000 A 
ENDROOT
BRANCH   9  14
ATOM     14  C   UNL     1       0.158  10.653  19.980  0.00  0.00    +0.000 A 
ATOM     15  C   UNL     1      -1.105  10.745  19.373  0.00  0.00    +0.000 A 
ATOM     16  C   UNL     1      -1.762  11.973  19.292  0.00  0.00    +0.000 A 
ATOM     17  C   UNL     1      -1.158  13.108  19.821  0.00  0.00    +0.000 A 
ATOM     18  C   UNL     1       0.083  13.031  20.445  0.00  0.00    +0.000 A 
ATOM     19  C   UNL     1       0.745  11.803  20.523  0.00  0.00    +0.000 A 
BRANCH  17  20
ATOM     20  O   UNL     1      -1.751  14.333  19.738  0.00  0.00    +0.000 OA
ATOM     21  H   UNL     1      -1.073  14.991  19.518  0.00  0.00    +0.000 HD
ENDBRANCH  17  20
ENDBRANCH   9  14
TORSDOF 2
ENDMDL
