MODEL 1
REMARK VINA RESULT:      -9.2      0.000      0.000
REMARK  Name = 
REMARK  5 active torsions:
REMARK  status: ('A' for Active; 'I' for Inactive)
REMARK    1  A    between atoms: C_5  and  C_6
REMARK    2  A    between atoms: N_15  and  C_16
REMARK    3  A    between atoms: C_16  and  C_17
REMARK    4  A    between atoms: C_20  and  C_21
REMARK    5  A    between atoms: C_26  and  C_27
REMARK                            x       y       z     vdW  Elec       q    Type
REMARK                         _______ _______ _______ _____ _____    ______ ____
ROOT
ATOM      1  C   UNL     1       1.324   8.339  19.739  0.00  0.00    +0.000 A 
ATOM      2  C   UNL     1       1.750   8.745  18.470  0.00  0.00    +0.000 A 
ATOM      3  C   UNL     1       2.675   7.977  17.746  0.00  0.00    +0.000 A 
ATOM      4  C   UNL     1       3.240   6.797  18.270  0.00  0.00    +0.000 A 
ATOM      5  C   UNL     1       2.825   6.439  19.564  0.00  0.00    +0.000 A 
ATOM      6  C   UNL     1       1.846   7.157  20.261  0.00  0.00    +0.000 A 
ENDROOT
BRANCH   4   7
ATOM      7  C   UNL     1       4.230   5.989  17.486  0.00  0.00    +0.000 A 
ATOM      8  C   UNL     1       5.377   6.645  16.971  0.00  0.00    +0.000 A 
ATOM      9  C   UNL     1       6.355   5.979  16.226  0.00  0.00    +0.000 A 
ATOM     10  C   UNL     1       6.231   4.623  15.979  0.00  0.00    +0.000 A 
ATOM     11  C   UNL     1       5.126   3.935  16.476  0.00  0.00    +0.000 A 
ATOM     12  C   UNL     1       4.120   4.592  17.224  0.00  0.00    +0.000 A 
BRANCH  12  13
ATOM     13  C   UNL     1       3.008   3.768  17.704  0.00  0.00    +0.000 A 
ATOM     14  N   UNL     1       1.779   3.669  17.235  0.00  0.00    +0.000 NA
ATOM     15  N   UNL     1       1.074   2.907  18.135  0.00  0.00    +0.000 NA
ATOM     16  N   UNL     1       1.855   2.492  19.119  0.00  0.00    +0.000 NA
ATOM     17  N   UNL     1       3.064   2.994  18.835  0.00  0.00    +0.000 N 
ATOM     18  H   UNL     1       3.840   2.812  19.454  0.00  0.00    +0.000 HD
ENDBRANCH  12  13
ENDBRANCH   4   7
BRANCH   1  19
ATOM     19  C   UNL     1       0.373   9.173  20.560  0.00  0.00    +0.000 C 
BRANCH  19  27
ATOM     20  O   UNL     1      -1.608   9.815  18.587  0.00  0.00    +0.000 OA
ATOM     21  C   UNL     1      -0.872  10.661  19.063  0.00  0.00    +0.000 C 
ATOM     22  S   UNL     1      -1.022  12.368  18.682  0.00  0.00    +0.000 S 
ATOM     23  C   UNL     1       0.103  12.818  19.904  0.00  0.00    +0.000 C 
ATOM     24  C   UNL     1       0.416  14.052  20.322  0.00  0.00    +0.000 C 
ATOM     25  C   UNL     1       0.674  11.609  20.543  0.00  0.00    +0.000 C 
ATOM     26  O   UNL     1       1.481  11.647  21.469  0.00  0.00    +0.000 OA
ATOM     27  N   UNL     1       0.115  10.481  19.999  0.00  0.00    +0.000 N 
BRANCH  24  28
ATOM     28  C   UNL     1      -0.169  15.277  19.781  0.00  0.00    +0.000 A 
ATOM     29  C   UNL     1      -1.295  15.849  20.389  0.00  0.00    +0.000 A 
ATOM     30  C   UNL     1      -1.884  16.986  19.836  0.00  0.00    +0.000 A 
ATOM     31  C   UNL     1      -1.344  17.547  18.684  0.00  0.00    +0.000 A 
ATOM     32  F   UNL     1      -1.918  18.631  18.148  0.00  0.00    +0.000 F 
ATOM     33  C   UNL     1      -0.221  16.995  18.079  0.00  0.00    +0.000 A 
ATOM     34  C   UNL     1       0.370  15.857  18.628  0.00  0.00    +0.000 A 
ENDBRANCH  24  28
ENDBRANCH  19  27
ENDBRANCH   1  19
TORSDOF 5
ENDMDL
MODEL 2
REMARK VINA RESULT:      -9.0      3.082      4.145
REMARK  Name = 
REMARK  5 active torsions:
REMARK  status: ('A' for Active; 'I' for Inactive)
REMARK    1  A    between atoms: C_5  and  C_6
REMARK    2  A    between atoms: N_15  and  C_16
REMARK    3  A    between atoms: C_16  and  C_17
REMARK    4  A    between atoms: C_20  and  C_21
REMARK    5  A    between atoms: C_26  and  C_27
REMARK                            x       y       z     vdW  Elec       q    Type
REMARK                         _______ _______ _______ _____ _____    ______ ____
ROOT
ATOM      1  C   UNL     1       1.715   9.248  18.846  0.00  0.00    +0.000 A 
ATOM      2  C   UNL     1       2.142   8.318  17.892  0.00  0.00    +0.000 A 
ATOM      3  C   UNL     1       2.308   6.967  18.234  0.00  0.00    +0.000 A 
ATOM      4  C   UNL     1       2.093   6.496  19.546  0.00  0.00    +0.000 A 
ATOM      5  C   UNL     1       1.708   7.462  20.490  0.00  0.00    +0.000 A 
ATOM      6  C   UNL     1       1.466   8.796  20.141  0.00  0.00    +0.000 A 
ENDROOT
BRANCH   4   7
ATOM      7  C   UNL     1       2.279   5.050  19.897  0.00  0.00    +0.000 A 
ATOM      8  C   UNL     1       1.239   4.391  20.601  0.00  0.00    +0.000 A 
ATOM      9  C   UNL     1       1.318   3.046  20.977  0.00  0.00    +0.000 A 
ATOM     10  C   UNL     1       2.439   2.302  20.648  0.00  0.00    +0.000 A 
ATOM     11  C   UNL     1       3.479   2.907  19.947  0.00  0.00    +0.000 A 
ATOM     12  C   UNL     1       3.423   4.268  19.566  0.00  0.00    +0.000 A 
BRANCH  12  13
ATOM     13  C   UNL     1       4.571   4.796  18.824  0.00  0.00    +0.000 A 
ATOM     14  N   UNL     1       4.874   4.662  17.547  0.00  0.00    +0.000 NA
ATOM     15  N   UNL     1       6.133   5.187  17.383  0.00  0.00    +0.000 NA
ATOM     16  N   UNL     1       6.590   5.687  18.520  0.00  0.00    +0.000 NA
ATOM     17  N   UNL     1       5.608   5.478  19.407  0.00  0.00    +0.000 N 
ATOM     18  H   UNL     1       5.726   5.778  20.364  0.00  0.00    +0.000 HD
ENDBRANCH  12  13
ENDBRANCH   4   7
BRANCH   1  19
ATOM     19  C   UNL     1       1.581  10.714  18.518  0.00  0.00    +0.000 C 
BRANCH  19  27
ATOM     20  O   UNL     1      -1.163  10.462  17.720  0.00  0.00    +0.000 OA
ATOM     21  C   UNL     1      -0.827  11.140  18.675  0.00  0.00    +0.000 C 
ATOM     22  S   UNL     1      -1.987  11.934  19.726  0.00  0.00    +0.000 S 
ATOM     23  C   UNL     1      -0.773  12.368  20.865  0.00  0.00    +0.000 C 
ATOM     24  C   UNL     1      -0.937  12.918  22.076  0.00  0.00    +0.000 C 
ATOM     25  C   UNL     1       0.565  11.976  20.361  0.00  0.00    +0.000 C 
ATOM     26  O   UNL     1       1.604  12.144  20.994  0.00  0.00    +0.000 OA
ATOM     27  N   UNL     1       0.444  11.348  19.148  0.00  0.00    +0.000 N 
BRANCH  24  28
ATOM     28  C   UNL     1      -2.235  13.258  22.655  0.00  0.00    +0.000 A 
ATOM     29  C   UNL     1      -2.930  12.319  23.430  0.00  0.00    +0.000 A 
ATOM     30  C   UNL     1      -4.193  12.628  23.933  0.00  0.00    +0.000 A 
ATOM     31  C   UNL     1      -4.752  13.872  23.665  0.00  0.00    +0.000 A 
ATOM     32  F   UNL     1      -5.971  14.163  24.139  0.00  0.00    +0.000 F 
ATOM     33  C   UNL     1      -4.068  14.816  22.908  0.00  0.00    +0.000 A 
ATOM     34  C   UNL     1      -2.805  14.510  22.402  0.00  0.00    +0.000 A 
ENDBRANCH  24  28
ENDBRANCH  19  27
ENDBRANCH   1  19
TORSDOF 5
ENDMDL
MODEL 3
REMARK VINA RESULT:      -9.0      3.034      4.230
REMARK  Name = 
REMARK  5 active torsions:
REMARK  status: ('A' for Active; 'I' for Inactive)
REMARK    1  A    between atoms: C_5  and  C_6
REMARK    2  A    between atoms: N_15  and  C_16
REMARK    3  A    between atoms: C_16  and  C_17
REMARK    4  A    between atoms: C_20  and  C_21
REMARK    5  A    between atoms: C_26  and  C_27
REMARK                            x       y       z     vdW  Elec       q    Type
REMARK                         _______ _______ _______ _____ _____    ______ ____
ROOT
ATOM      1  C   UNL     1       1.841   9.005  18.742  0.00  0.00    +0.000 A 
ATOM      2  C   UNL     1       1.562   8.613  20.055  0.00  0.00    +0.000 A 
ATOM      3  C   UNL     1       1.733   7.279  20.456  0.00  0.00    +0.000 A 
ATOM      4  C   UNL     1       2.151   6.276  19.558  0.00  0.00    +0.000 A 
ATOM      5  C   UNL     1       2.380   6.693  18.236  0.00  0.00    +0.000 A 
ATOM      6  C   UNL     1       2.287   8.034  17.846  0.00  0.00    +0.000 A 
ENDROOT
BRANCH   4   7
ATOM      7  C   UNL     1       2.325   4.854  19.999  0.00  0.00    +0.000 A 
ATOM      8  C   UNL     1       1.244   4.218  20.661  0.00  0.00    +0.000 A 
ATOM      9  C   UNL     1       1.310   2.896  21.113  0.00  0.00    +0.000 A 
ATOM     10  C   UNL     1       2.458   2.152  20.905  0.00  0.00    +0.000 A 
ATOM     11  C   UNL     1       3.540   2.733  20.248  0.00  0.00    +0.000 A 
ATOM     12  C   UNL     1       3.498   4.071  19.792  0.00  0.00    +0.000 A 
BRANCH  12  13
ATOM     13  C   UNL     1       4.691   4.575  19.106  0.00  0.00    +0.000 A 
ATOM     14  N   UNL     1       5.604   5.425  19.535  0.00  0.00    +0.000 NA
ATOM     15  N   UNL     1       6.413   5.709  18.461  0.00  0.00    +0.000 NA
ATOM     16  N   UNL     1       6.049   5.014  17.396  0.00  0.00    +0.000 NA
ATOM     17  N   UNL     1       5.003   4.282  17.803  0.00  0.00    +0.000 N 
ATOM     18  H   UNL     1       4.543   3.661  17.154  0.00  0.00    +0.000 HD
ENDBRANCH  12  13
ENDBRANCH   4   7
BRANCH   1  19
ATOM     19  C   UNL     1       1.615  10.420  18.272  0.00  0.00    +0.000 C 
BRANCH  19  27
ATOM     20  O   UNL     1      -1.126   9.981  17.550  0.00  0.00    +0.000 OA
ATOM     21  C   UNL     1      -0.808  10.749  18.440  0.00  0.00    +0.000 C 
ATOM     22  S   UNL     1      -1.987  11.574  19.446  0.00  0.00    +0.000 S 
ATOM     23  C   UNL     1      -0.777  12.154  20.523  0.00  0.00    +0.000 C 
ATOM     24  C   UNL     1      -0.948  12.793  21.688  0.00  0.00    +0.000 C 
ATOM     25  C   UNL     1       0.569  11.782  20.027  0.00  0.00    +0.000 C 
ATOM     26  O   UNL     1       1.610  12.047  20.624  0.00  0.00    +0.000 OA
ATOM     27  N   UNL     1       0.460  11.052  18.871  0.00  0.00    +0.000 N 
BRANCH  24  28
ATOM     28  C   UNL     1      -2.252  13.121  22.262  0.00  0.00    +0.000 A 
ATOM     29  C   UNL     1      -2.944  14.261  21.833  0.00  0.00    +0.000 A 
ATOM     30  C   UNL     1      -4.161  14.601  22.423  0.00  0.00    +0.000 A 
ATOM     31  C   UNL     1      -4.681  13.799  23.433  0.00  0.00    +0.000 A 
ATOM     32  F   UNL     1      -5.843  14.133  24.008  0.00  0.00    +0.000 F 
ATOM     33  C   UNL     1      -4.009  12.659  23.859  0.00  0.00    +0.000 A 
ATOM     34  C   UNL     1      -2.791  12.317  23.272  0.00  0.00    +0.000 A 
ENDBRANCH  24  28
ENDBRANCH  19  27
ENDBRANCH   1  19
TORSDOF 5
ENDMDL
MODEL 4
REMARK VINA RESULT:      -8.8      0.289      1.368
REMARK  Name = 
REMARK  5 active torsions:
REMARK  status: ('A' for Active; 'I' for Inactive)
REMARK    1  A    between atoms: C_5  and  C_6
REMARK    2  A    between atoms: N_15  and  C_16
REMARK    3  A    between atoms: C_16  and  C_17
REMARK    4  A    between atoms: C_20  and  C_21
REMARK    5  A    between atoms: C_26  and  C_27
REMARK                            x       y       z     vdW  Elec       q    Type
REMARK                         _______ _______ _______ _____ _____    ______ ____
ROOT
ATOM      1  C   UNL     1       1.441   8.401  19.922  0.00  0.00    +0.000 A 
ATOM      2  C   UNL     1       1.915   7.161  20.364  0.00  0.00    +0.000 A 
ATOM      3  C   UNL     1       2.754   6.385  19.550  0.00  0.00    +0.000 A 
ATOM      4  C   UNL     1       3.122   6.792  18.251  0.00  0.00    +0.000 A 
ATOM      5  C   UNL     1       2.594   8.020  17.821  0.00  0.00    +0.000 A 
ATOM      6  C   UNL     1       1.820   8.837  18.654  0.00  0.00    +0.000 A 
ENDROOT
BRANCH   4   7
ATOM      7  C   UNL     1       4.016   5.950  17.391  0.00  0.00    +0.000 A 
ATOM      8  C   UNL     1       5.029   6.597  16.639  0.00  0.00    +0.000 A 
ATOM      9  C   UNL     1       5.910   5.900  15.806  0.00  0.00    +0.000 A 
ATOM     10  C   UNL     1       5.820   4.522  15.704  0.00  0.00    +0.000 A 
ATOM     11  C   UNL     1       4.847   3.845  16.435  0.00  0.00    +0.000 A 
ATOM     12  C   UNL     1       3.940   4.532  17.276  0.00  0.00    +0.000 A 
BRANCH  12  13
ATOM     13  C   UNL     1       2.964   3.716  18.003  0.00  0.00    +0.000 A 
ATOM     14  N   UNL     1       3.126   2.995  19.095  0.00  0.00    +0.000 NA
ATOM     15  N   UNL     1       1.965   2.282  19.273  0.00  0.00    +0.000 NA
ATOM     16  N   UNL     1       1.074   2.587  18.343  0.00  0.00    +0.000 NA
ATOM     17  N   UNL     1       1.678   3.504  17.576  0.00  0.00    +0.000 N 
ATOM     18  H   UNL     1       1.188   3.895  16.784  0.00  0.00    +0.000 HD
ENDBRANCH  12  13
ENDBRANCH   4   7
BRANCH   1  19
ATOM     19  C   UNL     1       0.495   9.229  20.756  0.00  0.00    +0.000 C 
BRANCH  19  27
ATOM     20  O   UNL     1      -1.624   9.662  18.872  0.00  0.00    +0.000 OA
ATOM     21  C   UNL     1      -0.909  10.569  19.261  0.00  0.00    +0.000 C 
ATOM     22  S   UNL     1      -1.173  12.244  18.804  0.00  0.00    +0.000 S 
ATOM     23  C   UNL     1      -0.009  12.816  19.935  0.00  0.00    +0.000 C 
ATOM     24  C   UNL     1       0.260  14.084  20.271  0.00  0.00    +0.000 C 
ATOM     25  C   UNL     1       0.662  11.673  20.599  0.00  0.00    +0.000 C 
ATOM     26  O   UNL     1       1.515  11.802  21.474  0.00  0.00    +0.000 OA
ATOM     27  N   UNL     1       0.137  10.490  20.146  0.00  0.00    +0.000 N 
BRANCH  24  28
ATOM     28  C   UNL     1      -0.421  15.247  19.704  0.00  0.00    +0.000 A 
ATOM     29  C   UNL     1       0.095  15.880  18.564  0.00  0.00    +0.000 A 
ATOM     30  C   UNL     1      -0.525  17.022  18.060  0.00  0.00    +0.000 A 
ATOM     31  C   UNL     1      -1.658  17.522  18.692  0.00  0.00    +0.000 A 
ATOM     32  F   UNL     1      -2.246  18.626  18.214  0.00  0.00    +0.000 F 
ATOM     33  C   UNL     1      -2.186  16.896  19.815  0.00  0.00    +0.000 A 
ATOM     34  C   UNL     1      -1.567  15.755  20.324  0.00  0.00    +0.000 A 
ENDBRANCH  24  28
ENDBRANCH  19  27
ENDBRANCH   1  19
TORSDOF 5
ENDMDL
MODEL 5
REMARK VINA RESULT:      -8.7      3.354      4.646
REMARK  Name = 
REMARK  5 active torsions:
REMARK  status: ('A' for Active; 'I' for Inactive)
REMARK    1  A    between atoms: C_5  and  C_6
REMARK    2  A    between atoms: N_15  and  C_16
REMARK    3  A    between atoms: C_16  and  C_17
REMARK    4  A    between atoms: C_20  and  C_21
REMARK    5  A    between atoms: C_26  and  C_27
REMARK                            x       y       z     vdW  Elec       q    Type
REMARK                         _______ _______ _______ _____ _____    ______ ____
ROOT
ATOM      1  C   UNL     1       1.625   9.084  18.830  0.00  0.00    +0.000 A 
ATOM      2  C   UNL     1       2.152   8.157  17.925  0.00  0.00    +0.000 A 
ATOM      3  C   UNL     1       2.397   6.832  18.320  0.00  0.00    +0.000 A 
ATOM      4  C   UNL     1       2.163   6.389  19.638  0.00  0.00    +0.000 A 
ATOM      5  C   UNL     1       1.676   7.355  20.533  0.00  0.00    +0.000 A 
ATOM      6  C   UNL     1       1.356   8.657  20.130  0.00  0.00    +0.000 A 
ENDROOT
BRANCH   4   7
ATOM      7  C   UNL     1       2.434   4.972  20.046  0.00  0.00    +0.000 A 
ATOM      8  C   UNL     1       1.423   4.271  20.752  0.00  0.00    +0.000 A 
ATOM      9  C   UNL     1       1.581   2.948  21.178  0.00  0.00    +0.000 A 
ATOM     10  C   UNL     1       2.754   2.268  20.899  0.00  0.00    +0.000 A 
ATOM     11  C   UNL     1       3.769   2.914  20.197  0.00  0.00    +0.000 A 
ATOM     12  C   UNL     1       3.633   4.255  19.766  0.00  0.00    +0.000 A 
BRANCH  12  13
ATOM     13  C   UNL     1       4.762   4.831  19.029  0.00  0.00    +0.000 A 
ATOM     14  N   UNL     1       5.793   5.517  19.483  0.00  0.00    +0.000 NA
ATOM     15  N   UNL     1       6.471   5.983  18.383  0.00  0.00    +0.000 NA
ATOM     16  N   UNL     1       5.909   5.556  17.263  0.00  0.00    +0.000 NA
ATOM     17  N   UNL     1       4.870   4.811  17.662  0.00  0.00    +0.000 N 
ATOM     18  H   UNL     1       4.276   4.371  16.974  0.00  0.00    +0.000 HD
ENDBRANCH  12  13
ENDBRANCH   4   7
BRANCH   1  19
ATOM     19  C   UNL     1       1.403  10.526  18.447  0.00  0.00    +0.000 C 
BRANCH  19  27
ATOM     20  O   UNL     1       0.742  12.840  20.007  0.00  0.00    +0.000 OA
ATOM     21  C   UNL     1      -0.114  12.138  19.497  0.00  0.00    +0.000 C 
ATOM     22  S   UNL     1      -1.824  12.530  19.564  0.00  0.00    +0.000 S 
ATOM     23  C   UNL     1      -2.231  11.290  18.443  0.00  0.00    +0.000 C 
ATOM     24  C   UNL     1      -3.419  11.054  17.870  0.00  0.00    +0.000 C 
ATOM     25  C   UNL     1      -1.026  10.499  18.096  0.00  0.00    +0.000 C 
ATOM     26  O   UNL     1      -1.032   9.572  17.291  0.00  0.00    +0.000 OA
ATOM     27  N   UNL     1       0.072  11.007  18.743  0.00  0.00    +0.000 N 
BRANCH  24  28
ATOM     28  C   UNL     1      -4.622  11.846  18.117  0.00  0.00    +0.000 A 
ATOM     29  C   UNL     1      -5.433  12.250  17.047  0.00  0.00    +0.000 A 
ATOM     30  C   UNL     1      -6.549  13.053  17.282  0.00  0.00    +0.000 A 
ATOM     31  C   UNL     1      -6.852  13.442  18.582  0.00  0.00    +0.000 A 
ATOM     32  F   UNL     1      -7.916  14.223  18.805  0.00  0.00    +0.000 F 
ATOM     33  C   UNL     1      -6.062  13.037  19.653  0.00  0.00    +0.000 A 
ATOM     34  C   UNL     1      -4.944  12.237  19.421  0.00  0.00    +0.000 A 
ENDBRANCH  24  28
ENDBRANCH  19  27
ENDBRANCH   1  19
TORSDOF 5
ENDMDL
MODEL 6
REMARK VINA RESULT:      -8.6      3.302      4.326
REMARK  Name = 
REMARK  5 active torsions:
REMARK  status: ('A' for Active; 'I' for Inactive)
REMARK    1  A    between atoms: C_5  and  C_6
REMARK    2  A    between atoms: N_15  and  C_16
REMARK    3  A    between atoms: C_16  and  C_17
REMARK    4  A    between atoms: C_20  and  C_21
REMARK    5  A    between atoms: C_26  and  C_27
REMARK                            x       y       z     vdW  Elec       q    Type
REMARK                         _______ _______ _______ _____ _____    ______ ____
ROOT
ATOM      1  C   UNL     1       1.599   9.345  18.972  0.00  0.00    +0.000 A 
ATOM      2  C   UNL     1       1.761   8.851  17.673  0.00  0.00    +0.000 A 
ATOM      3  C   UNL     1       2.032   7.491  17.454  0.00  0.00    +0.000 A 
ATOM      4  C   UNL     1       2.190   6.579  18.517  0.00  0.00    +0.000 A 
ATOM      5  C   UNL     1       2.065   7.115  19.810  0.00  0.00    +0.000 A 
ATOM      6  C   UNL     1       1.719   8.453  20.036  0.00  0.00    +0.000 A 
ENDROOT
BRANCH   4   7
ATOM      7  C   UNL     1       2.483   5.130  18.268  0.00  0.00    +0.000 A 
ATOM      8  C   UNL     1       1.463   4.182  18.535  0.00  0.00    +0.000 A 
ATOM      9  C   UNL     1       1.640   2.809  18.338  0.00  0.00    +0.000 A 
ATOM     10  C   UNL     1       2.844   2.331  17.849  0.00  0.00    +0.000 A 
ATOM     11  C   UNL     1       3.870   3.229  17.562  0.00  0.00    +0.000 A 
ATOM     12  C   UNL     1       3.715   4.620  17.764  0.00  0.00    +0.000 A 
BRANCH  12  13
ATOM     13  C   UNL     1       4.857   5.471  17.420  0.00  0.00    +0.000 A 
ATOM     14  N   UNL     1       5.794   5.968  18.204  0.00  0.00    +0.000 NA
ATOM     15  N   UNL     1       6.528   6.840  17.436  0.00  0.00    +0.000 NA
ATOM     16  N   UNL     1       6.096   6.850  16.185  0.00  0.00    +0.000 NA
ATOM     17  N   UNL     1       5.082   5.974  16.164  0.00  0.00    +0.000 N 
ATOM     18  H   UNL     1       4.582   5.808  15.303  0.00  0.00    +0.000 HD
ENDBRANCH  12  13
ENDBRANCH   4   7
BRANCH   1  19
ATOM     19  C   UNL     1       1.361  10.811  19.237  0.00  0.00    +0.000 C 
BRANCH  19  27
ATOM     20  O   UNL     1       0.861  11.071  22.049  0.00  0.00    +0.000 OA
ATOM     21  C   UNL     1      -0.023  11.199  21.221  0.00  0.00    +0.000 C 
ATOM     22  S   UNL     1      -1.660  11.668  21.648  0.00  0.00    +0.000 S 
ATOM     23  C   UNL     1      -2.111  11.882  20.001  0.00  0.00    +0.000 C 
ATOM     24  C   UNL     1      -3.251  12.393  19.519  0.00  0.00    +0.000 C 
ATOM     25  C   UNL     1      -0.996  11.481  19.110  0.00  0.00    +0.000 C 
ATOM     26  O   UNL     1      -1.043  11.565  17.886  0.00  0.00    +0.000 OA
ATOM     27  N   UNL     1       0.085  11.089  19.857  0.00  0.00    +0.000 N 
BRANCH  24  28
ATOM     28  C   UNL     1      -4.354  12.872  20.350  0.00  0.00    +0.000 A 
ATOM     29  C   UNL     1      -5.497  12.080  20.531  0.00  0.00    +0.000 A 
ATOM     30  C   UNL     1      -6.570  12.565  21.278  0.00  0.00    +0.000 A 
ATOM     31  C   UNL     1      -6.494  13.833  21.844  0.00  0.00    +0.000 A 
ATOM     32  F   UNL     1      -7.530  14.302  22.551  0.00  0.00    +0.000 F 
ATOM     33  C   UNL     1      -5.361  14.622  21.682  0.00  0.00    +0.000 A 
ATOM     34  C   UNL     1      -4.287  14.142  20.934  0.00  0.00    +0.000 A 
ENDBRANCH  24  28
ENDBRANCH  19  27
ENDBRANCH   1  19
TORSDOF 5
ENDMDL
MODEL 7
REMARK VINA RESULT:      -8.6      3.419      4.388
REMARK  Name = 
REMARK  5 active torsions:
REMARK  status: ('A' for Active; 'I' for Inactive)
REMARK    1  A    between atoms: C_5  and  C_6
REMARK    2  A    between atoms: N_15  and  C_16
REMARK    3  A    between atoms: C_16  and  C_17
REMARK    4  A    between atoms: C_20  and  C_21
REMARK    5  A    between atoms: C_26  and  C_27
REMARK                            x       y       z     vdW  Elec       q    Type
REMARK                         _______ _______ _______ _____ _____    ______ ____
ROOT
ATOM      1  C   UNL     1       1.529   9.530  19.060  0.00  0.00    +0.000 A 
ATOM      2  C   UNL     1       1.751   9.093  17.750  0.00  0.00    +0.000 A 
ATOM      3  C   UNL     1       2.051   7.748  17.485  0.00  0.00    +0.000 A 
ATOM      4  C   UNL     1       2.182   6.794  18.515  0.00  0.00    +0.000 A 
ATOM      5  C   UNL     1       1.997   7.273  19.822  0.00  0.00    +0.000 A 
ATOM      6  C   UNL     1       1.621   8.595  20.090  0.00  0.00    +0.000 A 
ENDROOT
BRANCH   4   7
ATOM      7  C   UNL     1       2.508   5.361  18.218  0.00  0.00    +0.000 A 
ATOM      8  C   UNL     1       1.521   4.378  18.483  0.00  0.00    +0.000 A 
ATOM      9  C   UNL     1       1.730   3.016  18.243  0.00  0.00    +0.000 A 
ATOM     10  C   UNL     1       2.934   2.586  17.711  0.00  0.00    +0.000 A 
ATOM     11  C   UNL     1       3.927   3.519  17.424  0.00  0.00    +0.000 A 
ATOM     12  C   UNL     1       3.739   4.900  17.668  0.00  0.00    +0.000 A 
BRANCH  12  13
ATOM     13  C   UNL     1       4.849   5.791  17.320  0.00  0.00    +0.000 A 
ATOM     14  N   UNL     1       5.119   6.378  16.170  0.00  0.00    +0.000 NA
ATOM     15  N   UNL     1       6.357   6.960  16.306  0.00  0.00    +0.000 NA
ATOM     16  N   UNL     1       6.830   6.787  17.530  0.00  0.00    +0.000 NA
ATOM     17  N   UNL     1       5.880   6.094  18.171  0.00  0.00    +0.000 N 
ATOM     18  H   UNL     1       6.016   5.836  19.138  0.00  0.00    +0.000 HD
ENDBRANCH  12  13
ENDBRANCH   4   7
BRANCH   1  19
ATOM     19  C   UNL     1       1.258  10.979  19.376  0.00  0.00    +0.000 C 
BRANCH  19  27
ATOM     20  O   UNL     1       0.625  11.141  22.168  0.00  0.00    +0.000 OA
ATOM     21  C   UNL     1      -0.223  11.279  21.305  0.00  0.00    +0.000 C 
ATOM     22  S   UNL     1      -1.887  11.704  21.670  0.00  0.00    +0.000 S 
ATOM     23  C   UNL     1      -2.266  11.962  20.012  0.00  0.00    +0.000 C 
ATOM     24  C   UNL     1      -3.393  12.467  19.493  0.00  0.00    +0.000 C 
ATOM     25  C   UNL     1      -1.105  11.610  19.161  0.00  0.00    +0.000 C 
ATOM     26  O   UNL     1      -1.097  11.731  17.939  0.00  0.00    +0.000 OA
ATOM     27  N   UNL     1      -0.051  11.214  19.945  0.00  0.00    +0.000 N 
BRANCH  24  28
ATOM     28  C   UNL     1      -4.542  12.899  20.287  0.00  0.00    +0.000 A 
ATOM     29  C   UNL     1      -4.520  14.138  20.943  0.00  0.00    +0.000 A 
ATOM     30  C   UNL     1      -5.595  14.521  21.745  0.00  0.00    +0.000 A 
ATOM     31  C   UNL     1      -6.685  13.670  21.882  0.00  0.00    +0.000 A 
ATOM     32  F   UNL     1      -7.711  14.034  22.662  0.00  0.00    +0.000 F 
ATOM     33  C   UNL     1      -6.724  12.445  21.226  0.00  0.00    +0.000 A 
ATOM     34  C   UNL     1      -5.651  12.057  20.425  0.00  0.00    +0.000 A 
ENDBRANCH  24  28
ENDBRANCH  19  27
ENDBRANCH   1  19
TORSDOF 5
ENDMDL
MODEL 8
REMARK VINA RESULT:      -8.6      3.104      4.316
REMARK  Name = 
REMARK  5 active torsions:
REMARK  status: ('A' for Active; 'I' for Inactive)
REMARK    1  A    between atoms: C_5  and  C_6
REMARK    2  A    between atoms: N_15  and  C_16
REMARK    3  A    between atoms: C_16  and  C_17
REMARK    4  A    between atoms: C_20  and  C_21
REMARK    5  A    between atoms: C_26  and  C_27
REMARK                            x       y       z     vdW  Elec       q    Type
REMARK                         _______ _______ _______ _____ _____    ______ ____
ROOT
ATOM      1  C   UNL     1       1.415   9.515  19.016  0.00  0.00    +0.000 A 
ATOM      2  C   UNL     1       1.898   8.686  17.998  0.00  0.00    +0.000 A 
ATOM      3  C   UNL     1       2.243   7.352  18.265  0.00  0.00    +0.000 A 
ATOM      4  C   UNL     1       2.156   6.802  19.560  0.00  0.00    +0.000 A 
ATOM      5  C   UNL     1       1.710   7.673  20.568  0.00  0.00    +0.000 A 
ATOM      6  C   UNL     1       1.291   8.981  20.297  0.00  0.00    +0.000 A 
ENDROOT
BRANCH   4   7
ATOM      7  C   UNL     1       2.532   5.376  19.831  0.00  0.00    +0.000 A 
ATOM      8  C   UNL     1       1.734   4.630  20.735  0.00  0.00    +0.000 A 
ATOM      9  C   UNL     1       2.004   3.296  21.055  0.00  0.00    +0.000 A 
ATOM     10  C   UNL     1       3.078   2.650  20.469  0.00  0.00    +0.000 A 
ATOM     11  C   UNL     1       3.883   3.341  19.566  0.00  0.00    +0.000 A 
ATOM     12  C   UNL     1       3.632   4.693  19.236  0.00  0.00    +0.000 A 
BRANCH  12  13
ATOM     13  C   UNL     1       4.538   5.317  18.268  0.00  0.00    +0.000 A 
ATOM     14  N   UNL     1       5.563   6.121  18.480  0.00  0.00    +0.000 NA
ATOM     15  N   UNL     1       5.972   6.571  17.248  0.00  0.00    +0.000 NA
ATOM     16  N   UNL     1       5.255   6.023  16.281  0.00  0.00    +0.000 NA
ATOM     17  N   UNL     1       4.389   5.217  16.909  0.00  0.00    +0.000 N 
ATOM     18  H   UNL     1       3.723   4.681  16.371  0.00  0.00    +0.000 HD
ENDBRANCH  12  13
ENDBRANCH   4   7
BRANCH   1  19
ATOM     19  C   UNL     1       1.088  10.966  18.767  0.00  0.00    +0.000 C 
BRANCH  19  27
ATOM     20  O   UNL     1       1.875  12.578  21.005  0.00  0.00    +0.000 OA
ATOM     21  C   UNL     1       0.708  12.306  20.783  0.00  0.00    +0.000 C 
ATOM     22  S   UNL     1      -0.615  12.962  21.732  0.00  0.00    +0.000 S 
ATOM     23  C   UNL     1      -1.800  12.356  20.643  0.00  0.00    +0.000 C 
ATOM     24  C   UNL     1      -3.118  12.593  20.643  0.00  0.00    +0.000 C 
ATOM     25  C   UNL     1      -1.153  11.545  19.584  0.00  0.00    +0.000 C 
ATOM     26  O   UNL     1      -1.769  11.021  18.659  0.00  0.00    +0.000 OA
ATOM     27  N   UNL     1       0.208  11.542  19.759  0.00  0.00    +0.000 N 
BRANCH  24  28
ATOM     28  C   UNL     1      -3.801  13.443  21.617  0.00  0.00    +0.000 A 
ATOM     29  C   UNL     1      -3.951  14.815  21.373  0.00  0.00    +0.000 A 
ATOM     30  C   UNL     1      -4.552  15.632  22.331  0.00  0.00    +0.000 A 
ATOM     31  C   UNL     1      -5.003  15.074  23.522  0.00  0.00    +0.000 A 
ATOM     32  F   UNL     1      -5.569  15.861  24.445  0.00  0.00    +0.000 F 
ATOM     33  C   UNL     1      -4.871  13.712  23.770  0.00  0.00    +0.000 A 
ATOM     34  C   UNL     1      -4.268  12.893  22.816  0.00  0.00    +0.000 A 
ENDBRANCH  24  28
ENDBRANCH  19  27
ENDBRANCH   1  19
TORSDOF 5
ENDMDL
MODEL 9
REMARK VINA RESULT:      -8.6      3.115      4.326
REMARK  Name = 
REMARK  5 active torsions:
REMARK  status: ('A' for Active; 'I' for Inactive)
REMARK    1  A    between atoms: C_5  and  C_6
REMARK    2  A    between atoms: N_15  and  C_16
REMARK    3  A    between atoms: C_16  and  C_17
REMARK    4  A    between atoms: C_20  and  C_21
REMARK    5  A    between atoms: C_26  and  C_27
REMARK                            x       y       z     vdW  Elec       q    Type
REMARK                         _______ _______ _______ _____ _____    ______ ____
ROOT
ATOM      1  C   UNL     1       1.468   9.465  19.052  0.00  0.00    +0.000 A 
ATOM      2  C   UNL     1       1.335   8.927  20.337  0.00  0.00    +0.000 A 
ATOM      3  C   UNL     1       1.709   7.599  20.599  0.00  0.00    +0.000 A 
ATOM      4  C   UNL     1       2.192   6.745  19.586  0.00  0.00    +0.000 A 
ATOM      5  C   UNL     1       2.272   7.302  18.299  0.00  0.00    +0.000 A 
ATOM      6  C   UNL     1       1.975   8.646  18.045  0.00  0.00    +0.000 A 
ENDROOT
BRANCH   4   7
ATOM      7  C   UNL     1       2.583   5.327  19.880  0.00  0.00    +0.000 A 
ATOM      8  C   UNL     1       1.815   4.599  20.824  0.00  0.00    +0.000 A 
ATOM      9  C   UNL     1       2.101   3.274  21.167  0.00  0.00    +0.000 A 
ATOM     10  C   UNL     1       3.162   2.619  20.565  0.00  0.00    +0.000 A 
ATOM     11  C   UNL     1       3.936   3.292  19.623  0.00  0.00    +0.000 A 
ATOM     12  C   UNL     1       3.669   4.636  19.269  0.00  0.00    +0.000 A 
BRANCH  12  13
ATOM     13  C   UNL     1       4.544   5.241  18.261  0.00  0.00    +0.000 A 
ATOM     14  N   UNL     1       5.567   6.057  18.424  0.00  0.00    +0.000 NA
ATOM     15  N   UNL     1       5.939   6.479  17.171  0.00  0.00    +0.000 NA
ATOM     16  N   UNL     1       5.200   5.901  16.237  0.00  0.00    +0.000 NA
ATOM     17  N   UNL     1       4.357   5.105  16.909  0.00  0.00    +0.000 N 
ATOM     18  H   UNL     1       3.681   4.552  16.403  0.00  0.00    +0.000 HD
ENDBRANCH  12  13
ENDBRANCH   4   7
BRANCH   1  19
ATOM     19  C   UNL     1       1.024  10.870  18.733  0.00  0.00    +0.000 C 
BRANCH  19  27
ATOM     20  O   UNL     1       1.867  12.407  21.004  0.00  0.00    +0.000 OA
ATOM     21  C   UNL     1       0.692  12.176  20.780  0.00  0.00    +0.000 C 
ATOM     22  S   UNL     1      -0.608  12.852  21.748  0.00  0.00    +0.000 S 
ATOM     23  C   UNL     1      -1.814  12.306  20.650  0.00  0.00    +0.000 C 
ATOM     24  C   UNL     1      -3.125  12.583  20.660  0.00  0.00    +0.000 C 
ATOM     25  C   UNL     1      -1.195  11.499  19.571  0.00  0.00    +0.000 C 
ATOM     26  O   UNL     1      -1.830  11.015  18.638  0.00  0.00    +0.000 OA
ATOM     27  N   UNL     1       0.165  11.450  19.741  0.00  0.00    +0.000 N 
BRANCH  24  28
ATOM     28  C   UNL     1      -3.777  13.432  21.656  0.00  0.00    +0.000 A 
ATOM     29  C   UNL     1      -4.258  12.877  22.850  0.00  0.00    +0.000 A 
ATOM     30  C   UNL     1      -4.931  13.679  23.771  0.00  0.00    +0.000 A 
ATOM     31  C   UNL     1      -5.113  15.030  23.498  0.00  0.00    +0.000 A 
ATOM     32  F   UNL     1      -5.769  15.797  24.377  0.00  0.00    +0.000 F 
ATOM     33  C   UNL     1      -4.630  15.595  22.323  0.00  0.00    +0.000 A 
ATOM     34  C   UNL     1      -3.959  14.795  21.398  0.00  0.00    +0.000 A 
ENDBRANCH  24  28
ENDBRANCH  19  27
ENDBRANCH   1  19
TORSDOF 5
ENDMDL
