MODEL 1
REMARK VINA RESULT:      -8.7      0.000      0.000
REMARK  Name = 
REMARK  3 active torsions:
REMARK  status: ('A' for Active; 'I' for Inactive)
REMARK    1  A    between atoms: C_2  and  C_4
REMARK    2  A    between atoms: C_11  and  C_12
REMARK    3  A    between atoms: C_15  and  C_16
REMARK                            x       y       z     vdW  Elec       q    Type
REMARK                         _______ _______ _______ _____ _____    ______ ____
ROOT
ATOM      1  C   UNL     1      -1.656  11.683  19.714  0.00  0.00    +0.000 A 
ATOM      2  C   UNL     1      -2.118  12.399  20.834  0.00  0.00    +0.000 A 
ATOM      3  C   UNL     1      -1.545  12.199  22.092  0.00  0.00    +0.000 A 
ATOM      4 CL   UNL     1      -2.134  13.092  23.444  0.00  0.00    +0.000 Cl
ATOM      5  C   UNL     1      -0.505  11.286  22.290  0.00  0.00    +0.000 A 
ATOM      6  C   UNL     1      -0.061  10.600  21.159  0.00  0.00    +0.000 A 
ATOM      7  N   UNL     1       0.909   9.653  20.988  0.00  0.00    +0.000 N 
ATOM      8  C   UNL     1       0.967   9.302  19.658  0.00  0.00    +0.000 A 
ATOM      9  N   UNL     1       0.060   9.973  18.974  0.00  0.00    +0.000 NA
ATOM     10  C   UNL     1      -0.594  10.779  19.888  0.00  0.00    +0.000 A 
ATOM     11  H   UNL     1       1.491   9.251  21.712  0.00  0.00    +0.000 HD
ENDROOT
BRANCH   8  12
ATOM     12  C   UNL     1       1.899   8.312  19.131  0.00  0.00    +0.000 A 
ATOM     13  C   UNL     1       2.570   8.521  17.920  0.00  0.00    +0.000 A 
ATOM     14  C   UNL     1       3.447   7.551  17.412  0.00  0.00    +0.000 A 
ATOM     15  C   UNL     1       3.666   6.344  18.097  0.00  0.00    +0.000 A 
ATOM     16  C   UNL     1       3.007   6.163  19.320  0.00  0.00    +0.000 A 
ATOM     17  C   UNL     1       2.143   7.125  19.819  0.00  0.00    +0.000 A 
ATOM     18  F   UNL     1       1.538   6.875  20.993  0.00  0.00    +0.000 F 
BRANCH  15  19
ATOM     19  C   UNL     1       4.606   5.284  17.522  0.00  0.00    +0.000 C 
ATOM     20  C   UNL     1       5.516   4.649  18.592  0.00  0.00    +0.000 C 
ATOM     21  C   UNL     1       6.637   5.596  19.019  0.00  0.00    +0.000 C 
ATOM     22  C   UNL     1       7.401   6.172  17.826  0.00  0.00    +0.000 C 
ATOM     23  N   UNL     1       6.526   6.731  16.799  0.00  0.00    +0.000 NA
ATOM     24  C   UNL     1       5.510   5.766  16.359  0.00  0.00    +0.000 C 
ATOM     25  H   UNL     1       7.080   7.043  16.004  0.00  0.00    +0.000 HD
ENDBRANCH  15  19
ENDBRANCH   8  12
BRANCH   1  27
ATOM     26  N   UNL     1      -1.518  12.301  17.368  0.00  0.00    +0.000 N 
ATOM     27  C   UNL     1      -2.306  11.872  18.398  0.00  0.00    +0.000 C 
ATOM     28  O   UNL     1      -3.498  11.647  18.237  0.00  0.00    +0.000 OA
ATOM     29  H   UNL     1      -1.924  12.426  16.452  0.00  0.00    +0.000 HD
ATOM     30  H   UNL     1      -0.530  12.504  17.508  0.00  0.00    +0.000 HD
ENDBRANCH   1  27
TORSDOF 3
ENDMDL
MODEL 2
REMARK VINA RESULT:      -8.5      0.924      1.318
REMARK  Name = 
REMARK  3 active torsions:
REMARK  status: ('A' for Active; 'I' for Inactive)
REMARK    1  A    between atoms: C_2  and  C_4
REMARK    2  A    between atoms: C_11  and  C_12
REMARK    3  A    between atoms: C_15  and  C_16
REMARK                            x       y       z     vdW  Elec       q    Type
REMARK                         _______ _______ _______ _____ _____    ______ ____
ROOT
ATOM      1  C   UNL     1      -1.519  11.690  19.790  0.00  0.00    +0.000 A 
ATOM      2  C   UNL     1      -1.976  12.394  20.920  0.00  0.00    +0.000 A 
ATOM      3  C   UNL     1      -1.439  12.137  22.182  0.00  0.00    +0.000 A 
ATOM      4 CL   UNL     1      -2.020  13.016  23.546  0.00  0.00    +0.000 Cl
ATOM      5  C   UNL     1      -0.441  11.178  22.376  0.00  0.00    +0.000 A 
ATOM      6  C   UNL     1       0.000  10.505  21.236  0.00  0.00    +0.000 A 
ATOM      7  N   UNL     1       0.935   9.525  21.058  0.00  0.00    +0.000 N 
ATOM      8  C   UNL     1       1.007   9.208  19.720  0.00  0.00    +0.000 A 
ATOM      9  N   UNL     1       0.142   9.933  19.037  0.00  0.00    +0.000 NA
ATOM     10  C   UNL     1      -0.498  10.739  19.960  0.00  0.00    +0.000 A 
ATOM     11  H   UNL     1       1.484   9.080  21.783  0.00  0.00    +0.000 HD
ENDROOT
BRANCH   8  12
ATOM     12  C   UNL     1       1.910   8.195  19.186  0.00  0.00    +0.000 A 
ATOM     13  C   UNL     1       2.194   7.026  19.903  0.00  0.00    +0.000 A 
ATOM     14  C   UNL     1       3.083   6.070  19.390  0.00  0.00    +0.000 A 
ATOM     15  C   UNL     1       3.719   6.265  18.152  0.00  0.00    +0.000 A 
ATOM     16  C   UNL     1       3.404   7.428  17.436  0.00  0.00    +0.000 A 
ATOM     17  C   UNL     1       2.523   8.369  17.946  0.00  0.00    +0.000 A 
ATOM     18  F   UNL     1       2.279   9.464  17.207  0.00  0.00    +0.000 F 
BRANCH  15  19
ATOM     19  C   UNL     1       4.704   5.227  17.612  0.00  0.00    +0.000 C 
ATOM     20  C   UNL     1       5.615   4.641  18.709  0.00  0.00    +0.000 C 
ATOM     21  C   UNL     1       6.696   5.632  19.139  0.00  0.00    +0.000 C 
ATOM     22  C   UNL     1       7.462   6.213  17.949  0.00  0.00    +0.000 C 
ATOM     23  N   UNL     1       6.588   6.725  16.898  0.00  0.00    +0.000 NA
ATOM     24  C   UNL     1       5.612   5.719  16.457  0.00  0.00    +0.000 C 
ATOM     25  H   UNL     1       7.146   7.042  16.107  0.00  0.00    +0.000 HD
ENDBRANCH  15  19
ENDBRANCH   8  12
BRANCH   1  27
ATOM     26  N   UNL     1      -1.329  12.465  17.494  0.00  0.00    +0.000 N 
ATOM     27  C   UNL     1      -2.133  11.940  18.467  0.00  0.00    +0.000 C 
ATOM     28  O   UNL     1      -3.309  11.683  18.250  0.00  0.00    +0.000 OA
ATOM     29  H   UNL     1      -1.709  12.635  16.575  0.00  0.00    +0.000 HD
ATOM     30  H   UNL     1      -0.355  12.695  17.681  0.00  0.00    +0.000 HD
ENDBRANCH   1  27
TORSDOF 3
ENDMDL
MODEL 3
REMARK VINA RESULT:      -8.4      1.679      2.387
REMARK  Name = 
REMARK  3 active torsions:
REMARK  status: ('A' for Active; 'I' for Inactive)
REMARK    1  A    between atoms: C_2  and  C_4
REMARK    2  A    between atoms: C_11  and  C_12
REMARK    3  A    between atoms: C_15  and  C_16
REMARK                            x       y       z     vdW  Elec       q    Type
REMARK                         _______ _______ _______ _____ _____    ______ ____
ROOT
ATOM      1  C   UNL     1      -1.453  11.683  19.736  0.00  0.00    +0.000 A 
ATOM      2  C   UNL     1      -1.921  12.462  20.811  0.00  0.00    +0.000 A 
ATOM      3  C   UNL     1      -1.440  12.249  22.105  0.00  0.00    +0.000 A 
ATOM      4 CL   UNL     1      -2.033  13.220  23.400  0.00  0.00    +0.000 Cl
ATOM      5  C   UNL     1      -0.492  11.262  22.384  0.00  0.00    +0.000 A 
ATOM      6  C   UNL     1      -0.039  10.513  21.297  0.00  0.00    +0.000 A 
ATOM      7  N   UNL     1       0.859   9.488  21.204  0.00  0.00    +0.000 N 
ATOM      8  C   UNL     1       0.966   9.100  19.887  0.00  0.00    +0.000 A 
ATOM      9  N   UNL     1       0.158   9.824  19.136  0.00  0.00    +0.000 NA
ATOM     10  C   UNL     1      -0.480  10.702  19.992  0.00  0.00    +0.000 A 
ATOM     11  H   UNL     1       1.363   9.060  21.970  0.00  0.00    +0.000 HD
ENDROOT
BRANCH   8  12
ATOM     12  C   UNL     1       1.845   8.026  19.439  0.00  0.00    +0.000 A 
ATOM     13  C   UNL     1       2.055   6.886  20.225  0.00  0.00    +0.000 A 
ATOM     14  C   UNL     1       2.920   5.870  19.795  0.00  0.00    +0.000 A 
ATOM     15  C   UNL     1       3.606   5.973  18.573  0.00  0.00    +0.000 A 
ATOM     16  C   UNL     1       3.365   7.108  17.787  0.00  0.00    +0.000 A 
ATOM     17  C   UNL     1       2.507   8.109  18.216  0.00  0.00    +0.000 A 
ATOM     18  F   UNL     1       2.334   9.172  17.412  0.00  0.00    +0.000 F 
BRANCH  15  19
ATOM     19  C   UNL     1       4.565   4.870  18.124  0.00  0.00    +0.000 C 
ATOM     20  C   UNL     1       4.099   4.160  16.838  0.00  0.00    +0.000 C 
ATOM     21  C   UNL     1       2.930   3.212  17.105  0.00  0.00    +0.000 C 
ATOM     22  C   UNL     1       3.205   2.259  18.268  0.00  0.00    +0.000 C 
ATOM     23  N   UNL     1       3.688   2.939  19.467  0.00  0.00    +0.000 NA
ATOM     24  C   UNL     1       4.859   3.780  19.186  0.00  0.00    +0.000 C 
ATOM     25  H   UNL     1       3.914   2.255  20.187  0.00  0.00    +0.000 HD
ENDBRANCH  15  19
ENDBRANCH   8  12
BRANCH   1  27
ATOM     26  N   UNL     1      -1.200  12.497  17.460  0.00  0.00    +0.000 N 
ATOM     27  C   UNL     1      -2.007  11.889  18.379  0.00  0.00    +0.000 C 
ATOM     28  O   UNL     1      -3.139  11.525  18.091  0.00  0.00    +0.000 OA
ATOM     29  H   UNL     1      -1.540  12.641  16.520  0.00  0.00    +0.000 HD
ATOM     30  H   UNL     1      -0.265  12.815  17.707  0.00  0.00    +0.000 HD
ENDBRANCH   1  27
TORSDOF 3
ENDMDL
MODEL 4
REMARK VINA RESULT:      -8.4      1.222      1.761
REMARK  Name = 
REMARK  3 active torsions:
REMARK  status: ('A' for Active; 'I' for Inactive)
REMARK    1  A    between atoms: C_2  and  C_4
REMARK    2  A    between atoms: C_11  and  C_12
REMARK    3  A    between atoms: C_15  and  C_16
REMARK                            x       y       z     vdW  Elec       q    Type
REMARK                         _______ _______ _______ _____ _____    ______ ____
ROOT
ATOM      1  C   UNL     1      -1.405  11.586  19.623  0.00  0.00    +0.000 A 
ATOM      2  C   UNL     1      -1.922  12.250  20.751  0.00  0.00    +0.000 A 
ATOM      3  C   UNL     1      -1.456  11.946  22.031  0.00  0.00    +0.000 A 
ATOM      4 CL   UNL     1      -2.110  12.776  23.392  0.00  0.00    +0.000 Cl
ATOM      5  C   UNL     1      -0.471  10.976  22.244  0.00  0.00    +0.000 A 
ATOM      6  C   UNL     1       0.031  10.344  21.106  0.00  0.00    +0.000 A 
ATOM      7  N   UNL     1       0.972   9.367  20.944  0.00  0.00    +0.000 N 
ATOM      8  C   UNL     1       1.117   9.099  19.602  0.00  0.00    +0.000 A 
ATOM      9  N   UNL     1       0.293   9.852  18.899  0.00  0.00    +0.000 NA
ATOM     10  C   UNL     1      -0.396  10.626  19.814  0.00  0.00    +0.000 A 
ATOM     11  H   UNL     1       1.480   8.895  21.681  0.00  0.00    +0.000 HD
ENDROOT
BRANCH   8  12
ATOM     12  C   UNL     1       2.047   8.103  19.081  0.00  0.00    +0.000 A 
ATOM     13  C   UNL     1       2.748   8.320  17.888  0.00  0.00    +0.000 A 
ATOM     14  C   UNL     1       3.622   7.346  17.385  0.00  0.00    +0.000 A 
ATOM     15  C   UNL     1       3.808   6.125  18.055  0.00  0.00    +0.000 A 
ATOM     16  C   UNL     1       3.119   5.935  19.260  0.00  0.00    +0.000 A 
ATOM     17  C   UNL     1       2.258   6.902  19.756  0.00  0.00    +0.000 A 
ATOM     18  F   UNL     1       1.623   6.643  20.912  0.00  0.00    +0.000 F 
BRANCH  15  19
ATOM     19  C   UNL     1       4.746   5.060  17.485  0.00  0.00    +0.000 C 
ATOM     20  C   UNL     1       3.999   3.970  16.691  0.00  0.00    +0.000 C 
ATOM     21  C   UNL     1       3.255   3.005  17.613  0.00  0.00    +0.000 C 
ATOM     22  C   UNL     1       4.149   2.452  18.724  0.00  0.00    +0.000 C 
ATOM     23  N   UNL     1       4.883   3.491  19.441  0.00  0.00    +0.000 NA
ATOM     24  C   UNL     1       5.648   4.351  18.528  0.00  0.00    +0.000 C 
ATOM     25  H   UNL     1       5.507   3.066  20.124  0.00  0.00    +0.000 HD
ENDBRANCH  15  19
ENDBRANCH   8  12
BRANCH   1  27
ATOM     26  N   UNL     1      -1.125  12.550  17.410  0.00  0.00    +0.000 N 
ATOM     27  C   UNL     1      -1.944  11.887  18.278  0.00  0.00    +0.000 C 
ATOM     28  O   UNL     1      -3.075  11.549  17.954  0.00  0.00    +0.000 OA
ATOM     29  H   UNL     1      -1.453  12.759  16.479  0.00  0.00    +0.000 HD
ATOM     30  H   UNL     1      -0.190  12.845  17.687  0.00  0.00    +0.000 HD
ENDBRANCH   1  27
TORSDOF 3
ENDMDL
MODEL 5
REMARK VINA RESULT:      -8.3      4.168      8.477
REMARK  Name = 
REMARK  3 active torsions:
REMARK  status: ('A' for Active; 'I' for Inactive)
REMARK    1  A    between atoms: C_2  and  C_4
REMARK    2  A    between atoms: C_11  and  C_12
REMARK    3  A    between atoms: C_15  and  C_16
REMARK                            x       y       z     vdW  Elec       q    Type
REMARK                         _______ _______ _______ _____ _____    ______ ____
ROOT
ATOM      1  C   UNL     1       3.766   4.223  17.423  0.00  0.00    +0.000 A 
ATOM      2  C   UNL     1       4.935   3.932  16.696  0.00  0.00    +0.000 A 
ATOM      3  C   UNL     1       5.741   4.960  16.205  0.00  0.00    +0.000 A 
ATOM      4 CL   UNL     1       7.167   4.571  15.319  0.00  0.00    +0.000 Cl
ATOM      5  C   UNL     1       5.421   6.306  16.407  0.00  0.00    +0.000 A 
ATOM      6  C   UNL     1       4.263   6.563  17.141  0.00  0.00    +0.000 A 
ATOM      7  N   UNL     1       3.659   7.730  17.515  0.00  0.00    +0.000 N 
ATOM      8  C   UNL     1       2.533   7.439  18.251  0.00  0.00    +0.000 A 
ATOM      9  N   UNL     1       2.381   6.132  18.347  0.00  0.00    +0.000 NA
ATOM     10  C   UNL     1       3.440   5.570  17.659  0.00  0.00    +0.000 A 
ATOM     11  H   UNL     1       3.967   8.667  17.285  0.00  0.00    +0.000 HD
ENDROOT
BRANCH   8  12
ATOM     12  C   UNL     1       1.654   8.462  18.807  0.00  0.00    +0.000 A 
ATOM     13  C   UNL     1       1.044   9.418  17.985  0.00  0.00    +0.000 A 
ATOM     14  C   UNL     1       0.220  10.411  18.534  0.00  0.00    +0.000 A 
ATOM     15  C   UNL     1      -0.005  10.480  19.920  0.00  0.00    +0.000 A 
ATOM     16  C   UNL     1       0.592   9.501  20.724  0.00  0.00    +0.000 A 
ATOM     17  C   UNL     1       1.404   8.519  20.177  0.00  0.00    +0.000 A 
ATOM     18  F   UNL     1       1.951   7.621  21.014  0.00  0.00    +0.000 F 
BRANCH  15  19
ATOM     19  C   UNL     1      -0.887  11.582  20.510  0.00  0.00    +0.000 C 
ATOM     20  C   UNL     1      -1.188  12.709  19.503  0.00  0.00    +0.000 C 
ATOM     21  C   UNL     1       0.023  13.617  19.289  0.00  0.00    +0.000 C 
ATOM     22  C   UNL     1       0.622  14.112  20.606  0.00  0.00    +0.000 C 
ATOM     23  N   UNL     1       0.862  13.039  21.567  0.00  0.00    +0.000 NA
ATOM     24  C   UNL     1      -0.345  12.236  21.806  0.00  0.00    +0.000 C 
ATOM     25  H   UNL     1       1.202  13.429  22.444  0.00  0.00    +0.000 HD
ENDBRANCH  15  19
ENDBRANCH   8  12
BRANCH   1  27
ATOM     26  N   UNL     1       3.375   2.339  18.908  0.00  0.00    +0.000 N 
ATOM     27  C   UNL     1       2.897   3.122  17.896  0.00  0.00    +0.000 C 
ATOM     28  O   UNL     1       1.793   2.925  17.405  0.00  0.00    +0.000 OA
ATOM     29  H   UNL     1       2.804   1.587  19.266  0.00  0.00    +0.000 HD
ATOM     30  H   UNL     1       4.301   2.494  19.303  0.00  0.00    +0.000 HD
ENDBRANCH   1  27
TORSDOF 3
ENDMDL
MODEL 6
REMARK VINA RESULT:      -8.1      4.251      8.718
REMARK  Name = 
REMARK  3 active torsions:
REMARK  status: ('A' for Active; 'I' for Inactive)
REMARK    1  A    between atoms: C_2  and  C_4
REMARK    2  A    between atoms: C_11  and  C_12
REMARK    3  A    between atoms: C_15  and  C_16
REMARK                            x       y       z     vdW  Elec       q    Type
REMARK                         _______ _______ _______ _____ _____    ______ ____
ROOT
ATOM      1  C   UNL     1       4.464   4.201  17.866  0.00  0.00    +0.000 A 
ATOM      2  C   UNL     1       5.445   3.988  16.880  0.00  0.00    +0.000 A 
ATOM      3  C   UNL     1       5.852   5.030  16.045  0.00  0.00    +0.000 A 
ATOM      4 CL   UNL     1       7.056   4.737  14.848  0.00  0.00    +0.000 Cl
ATOM      5  C   UNL     1       5.304   6.312  16.148  0.00  0.00    +0.000 A 
ATOM      6  C   UNL     1       4.342   6.496  17.141  0.00  0.00    +0.000 A 
ATOM      7  N   UNL     1       3.610   7.587  17.513  0.00  0.00    +0.000 N 
ATOM      8  C   UNL     1       2.800   7.247  18.573  0.00  0.00    +0.000 A 
ATOM      9  N   UNL     1       2.971   5.977  18.883  0.00  0.00    +0.000 NA
ATOM     10  C   UNL     1       3.918   5.489  18.002  0.00  0.00    +0.000 A 
ATOM     11  H   UNL     1       3.634   8.502  17.081  0.00  0.00    +0.000 HD
ENDROOT
BRANCH   8  12
ATOM     12  C   UNL     1       1.887   8.186  19.216  0.00  0.00    +0.000 A 
ATOM     13  C   UNL     1       1.528   8.042  20.562  0.00  0.00    +0.000 A 
ATOM     14  C   UNL     1       0.630   8.937  21.162  0.00  0.00    +0.000 A 
ATOM     15  C   UNL     1       0.061   9.991  20.429  0.00  0.00    +0.000 A 
ATOM     16  C   UNL     1       0.451  10.136  19.091  0.00  0.00    +0.000 A 
ATOM     17  C   UNL     1       1.340   9.250  18.502  0.00  0.00    +0.000 A 
ATOM     18  F   UNL     1       1.657   9.447  17.211  0.00  0.00    +0.000 F 
BRANCH  15  19
ATOM     19  C   UNL     1      -0.934  10.948  21.088  0.00  0.00    +0.000 C 
ATOM     20  C   UNL     1      -1.655  11.853  20.070  0.00  0.00    +0.000 C 
ATOM     21  C   UNL     1      -0.740  12.961  19.547  0.00  0.00    +0.000 C 
ATOM     22  C   UNL     1      -0.051  13.730  20.676  0.00  0.00    +0.000 C 
ATOM     23  N   UNL     1       0.590  12.859  21.656  0.00  0.00    +0.000 NA
ATOM     24  C   UNL     1      -0.340  11.857  22.193  0.00  0.00    +0.000 C 
ATOM     25  H   UNL     1       0.978  13.418  22.415  0.00  0.00    +0.000 HD
ENDBRANCH  15  19
ENDBRANCH   8  12
BRANCH   1  27
ATOM     26  N   UNL     1       4.886   2.600  19.645  0.00  0.00    +0.000 N 
ATOM     27  C   UNL     1       4.009   3.074  18.711  0.00  0.00    +0.000 C 
ATOM     28  O   UNL     1       2.892   2.591  18.583  0.00  0.00    +0.000 OA
ATOM     29  H   UNL     1       4.605   1.842  20.249  0.00  0.00    +0.000 HD
ATOM     30  H   UNL     1       5.821   2.992  19.738  0.00  0.00    +0.000 HD
ENDBRANCH   1  27
TORSDOF 3
ENDMDL
MODEL 7
REMARK VINA RESULT:      -8.0      4.287      8.252
REMARK  Name = 
REMARK  3 active torsions:
REMARK  status: ('A' for Active; 'I' for Inactive)
REMARK    1  A    between atoms: C_2  and  C_4
REMARK    2  A    between atoms: C_11  and  C_12
REMARK    3  A    between atoms: C_15  and  C_16
REMARK                            x       y       z     vdW  Elec       q    Type
REMARK                         _______ _______ _______ _____ _____    ______ ____
ROOT
ATOM      1  C   UNL     1       4.675   5.049  17.097  0.00  0.00    +0.000 A 
ATOM      2  C   UNL     1       4.698   3.650  17.244  0.00  0.00    +0.000 A 
ATOM      3  C   UNL     1       3.764   3.005  18.057  0.00  0.00    +0.000 A 
ATOM      4 CL   UNL     1       3.818   1.290  18.216  0.00  0.00    +0.000 Cl
ATOM      5  C   UNL     1       2.783   3.714  18.756  0.00  0.00    +0.000 A 
ATOM      6  C   UNL     1       2.778   5.099  18.582  0.00  0.00    +0.000 A 
ATOM      7  N   UNL     1       1.985   6.082  19.102  0.00  0.00    +0.000 N 
ATOM      8  C   UNL     1       2.387   7.299  18.598  0.00  0.00    +0.000 A 
ATOM      9  N   UNL     1       3.416   7.135  17.790  0.00  0.00    +0.000 NA
ATOM     10  C   UNL     1       3.680   5.778  17.772  0.00  0.00    +0.000 A 
ATOM     11  H   UNL     1       1.230   5.957  19.765  0.00  0.00    +0.000 HD
ENDROOT
BRANCH   8  12
ATOM     12  C   UNL     1       1.747   8.561  18.951  0.00  0.00    +0.000 A 
ATOM     13  C   UNL     1       1.540   9.561  17.993  0.00  0.00    +0.000 A 
ATOM     14  C   UNL     1       0.945  10.780  18.349  0.00  0.00    +0.000 A 
ATOM     15  C   UNL     1       0.553  11.034  19.674  0.00  0.00    +0.000 A 
ATOM     16  C   UNL     1       0.743  10.013  20.614  0.00  0.00    +0.000 A 
ATOM     17  C   UNL     1       1.330   8.809  20.257  0.00  0.00    +0.000 A 
ATOM     18  F   UNL     1       1.490   7.882  21.217  0.00  0.00    +0.000 F 
BRANCH  15  19
ATOM     19  C   UNL     1      -0.074  12.376  20.056  0.00  0.00    +0.000 C 
ATOM     20  C   UNL     1       0.130  13.459  18.978  0.00  0.00    +0.000 C 
ATOM     21  C   UNL     1       1.565  13.986  18.967  0.00  0.00    +0.000 C 
ATOM     22  C   UNL     1       2.043  14.405  20.358  0.00  0.00    +0.000 C 
ATOM     23  N   UNL     1       1.805  13.389  21.378  0.00  0.00    +0.000 NA
ATOM     24  C   UNL     1       0.399  12.962  21.411  0.00  0.00    +0.000 C 
ATOM     25  H   UNL     1       2.084  13.742  22.292  0.00  0.00    +0.000 HD
ENDBRANCH  15  19
ENDBRANCH   8  12
BRANCH   1  27
ATOM     26  N   UNL     1       5.269   6.671  15.387  0.00  0.00    +0.000 N 
ATOM     27  C   UNL     1       5.701   5.721  16.270  0.00  0.00    +0.000 C 
ATOM     28  O   UNL     1       6.888   5.443  16.375  0.00  0.00    +0.000 OA
ATOM     29  H   UNL     1       5.942   7.160  14.816  0.00  0.00    +0.000 HD
ATOM     30  H   UNL     1       4.279   6.888  15.289  0.00  0.00    +0.000 HD
ENDBRANCH   1  27
TORSDOF 3
ENDMDL
MODEL 8
REMARK VINA RESULT:      -7.9      4.129      8.688
REMARK  Name = 
REMARK  3 active torsions:
REMARK  status: ('A' for Active; 'I' for Inactive)
REMARK    1  A    between atoms: C_2  and  C_4
REMARK    2  A    between atoms: C_11  and  C_12
REMARK    3  A    between atoms: C_15  and  C_16
REMARK                            x       y       z     vdW  Elec       q    Type
REMARK                         _______ _______ _______ _____ _____    ______ ____
ROOT
ATOM      1  C   UNL     1       2.578   4.396  20.136  0.00  0.00    +0.000 A 
ATOM      2  C   UNL     1       3.500   3.947  19.172  0.00  0.00    +0.000 A 
ATOM      3  C   UNL     1       4.038   4.833  18.237  0.00  0.00    +0.000 A 
ATOM      4 CL   UNL     1       5.164   4.252  17.068  0.00  0.00    +0.000 Cl
ATOM      5  C   UNL     1       3.684   6.185  18.216  0.00  0.00    +0.000 A 
ATOM      6  C   UNL     1       2.778   6.603  19.191  0.00  0.00    +0.000 A 
ATOM      7  N   UNL     1       2.220   7.821  19.458  0.00  0.00    +0.000 N 
ATOM      8  C   UNL     1       1.390   7.707  20.550  0.00  0.00    +0.000 A 
ATOM      9  N   UNL     1       1.380   6.461  20.982  0.00  0.00    +0.000 NA
ATOM     10  C   UNL     1       2.229   5.757  20.148  0.00  0.00    +0.000 A 
ATOM     11  H   UNL     1       2.369   8.676  18.938  0.00  0.00    +0.000 HD
ENDROOT
BRANCH   8  12
ATOM     12  C   UNL     1       0.636   8.827  21.101  0.00  0.00    +0.000 A 
ATOM     13  C   UNL     1       0.489   8.991  22.485  0.00  0.00    +0.000 A 
ATOM     14  C   UNL     1      -0.258  10.058  23.003  0.00  0.00    +0.000 A 
ATOM     15  C   UNL     1      -0.888  10.982  22.151  0.00  0.00    +0.000 A 
ATOM     16  C   UNL     1      -0.709  10.818  20.771  0.00  0.00    +0.000 A 
ATOM     17  C   UNL     1       0.032   9.762  20.263  0.00  0.00    +0.000 A 
ATOM     18  F   UNL     1       0.149   9.664  18.928  0.00  0.00    +0.000 F 
BRANCH  15  19
ATOM     19  C   UNL     1      -1.719  12.129  22.726  0.00  0.00    +0.000 C 
ATOM     20  C   UNL     1      -2.886  12.540  21.807  0.00  0.00    +0.000 C 
ATOM     21  C   UNL     1      -2.401  13.331  20.592  0.00  0.00    +0.000 C 
ATOM     22  C   UNL     1      -1.484  14.493  20.980  0.00  0.00    +0.000 C 
ATOM     23  N   UNL     1      -0.409  14.098  21.886  0.00  0.00    +0.000 NA
ATOM     24  C   UNL     1      -0.920  13.410  23.079  0.00  0.00    +0.000 C 
ATOM     25  H   UNL     1       0.131  14.917  22.160  0.00  0.00    +0.000 HD
ENDBRANCH  15  19
ENDBRANCH   8  12
BRANCH   1  27
ATOM     26  N   UNL     1       0.689   3.052  20.865  0.00  0.00    +0.000 N 
ATOM     27  C   UNL     1       1.981   3.434  21.090  0.00  0.00    +0.000 C 
ATOM     28  O   UNL     1       2.619   2.995  22.037  0.00  0.00    +0.000 OA
ATOM     29  H   UNL     1       0.253   2.386  21.486  0.00  0.00    +0.000 HD
ATOM     30  H   UNL     1       0.154   3.432  20.086  0.00  0.00    +0.000 HD
ENDBRANCH   1  27
TORSDOF 3
ENDMDL
MODEL 9
REMARK VINA RESULT:      -7.9      4.031      8.423
REMARK  Name = 
REMARK  3 active torsions:
REMARK  status: ('A' for Active; 'I' for Inactive)
REMARK    1  A    between atoms: C_2  and  C_4
REMARK    2  A    between atoms: C_11  and  C_12
REMARK    3  A    between atoms: C_15  and  C_16
REMARK                            x       y       z     vdW  Elec       q    Type
REMARK                         _______ _______ _______ _____ _____    ______ ____
ROOT
ATOM      1  C   UNL     1       4.616   5.111  17.031  0.00  0.00    +0.000 A 
ATOM      2  C   UNL     1       4.573   3.709  17.159  0.00  0.00    +0.000 A 
ATOM      3  C   UNL     1       3.619   3.100  17.976  0.00  0.00    +0.000 A 
ATOM      4 CL   UNL     1       3.593   1.382  18.112  0.00  0.00    +0.000 Cl
ATOM      5  C   UNL     1       2.682   3.846  18.696  0.00  0.00    +0.000 A 
ATOM      6  C   UNL     1       2.741   5.231  18.539  0.00  0.00    +0.000 A 
ATOM      7  N   UNL     1       2.003   6.245  19.081  0.00  0.00    +0.000 N 
ATOM      8  C   UNL     1       2.457   7.447  18.588  0.00  0.00    +0.000 A 
ATOM      9  N   UNL     1       3.468   7.245  17.765  0.00  0.00    +0.000 NA
ATOM     10  C   UNL     1       3.666   5.877  17.727  0.00  0.00    +0.000 A 
ATOM     11  H   UNL     1       1.250   6.147  19.751  0.00  0.00    +0.000 HD
ENDROOT
BRANCH   8  12
ATOM     12  C   UNL     1       1.882   8.734  18.964  0.00  0.00    +0.000 A 
ATOM     13  C   UNL     1       1.848   9.804  18.061  0.00  0.00    +0.000 A 
ATOM     14  C   UNL     1       1.315  11.044  18.442  0.00  0.00    +0.000 A 
ATOM     15  C   UNL     1       0.813  11.248  19.739  0.00  0.00    +0.000 A 
ATOM     16  C   UNL     1       0.832  10.160  20.621  0.00  0.00    +0.000 A 
ATOM     17  C   UNL     1       1.358   8.935  20.239  0.00  0.00    +0.000 A 
ATOM     18  F   UNL     1       1.352   7.942  21.144  0.00  0.00    +0.000 F 
BRANCH  15  19
ATOM     19  C   UNL     1       0.255  12.611  20.151  0.00  0.00    +0.000 C 
ATOM     20  C   UNL     1      -0.587  12.547  21.440  0.00  0.00    +0.000 C 
ATOM     21  C   UNL     1      -1.958  11.917  21.191  0.00  0.00    +0.000 C 
ATOM     22  C   UNL     1      -2.689  12.557  20.009  0.00  0.00    +0.000 C 
ATOM     23  N   UNL     1      -1.865  12.652  18.808  0.00  0.00    +0.000 NA
ATOM     24  C   UNL     1      -0.589  13.332  19.069  0.00  0.00    +0.000 C 
ATOM     25  H   UNL     1      -2.377  13.140  18.074  0.00  0.00    +0.000 HD
ENDBRANCH  15  19
ENDBRANCH   8  12
BRANCH   1  27
ATOM     26  N   UNL     1       5.264   6.702  15.312  0.00  0.00    +0.000 N 
ATOM     27  C   UNL     1       5.664   5.744  16.199  0.00  0.00    +0.000 C 
ATOM     28  O   UNL     1       6.841   5.426  16.305  0.00  0.00    +0.000 OA
ATOM     29  H   UNL     1       5.953   7.166  14.739  0.00  0.00    +0.000 HD
ATOM     30  H   UNL     1       4.281   6.953  15.213  0.00  0.00    +0.000 HD
ENDBRANCH   1  27
TORSDOF 3
ENDMDL
