MODEL 1
REMARK VINA RESULT:      -7.1      0.000      0.000
REMARK  Name = 
REMARK  7 active torsions:
REMARK  status: ('A' for Active; 'I' for Inactive)
REMARK    1  A    between atoms: C_1  and  C_2
REMARK    2  A    between atoms: C_3  and  C_4
REMARK    3  A    between atoms: C_4  and  C_5
REMARK    4  A    between atoms: C_5  and  O_7
REMARK    5  A    between atoms: N_14  and  S_15
REMARK    6  A    between atoms: S_15  and  C_18
REMARK    7  A    between atoms: C_21  and  N_22
REMARK                            x       y       z     vdW  Elec       q    Type
REMARK                         _______ _______ _______ _____ _____    ______ ____
ROOT
ATOM      1  C   UNL     1       4.488   7.507  16.874  0.00  0.00    +0.000 C 
ATOM      2  C   UNL     1       3.770   6.631  17.848  0.00  0.00    +0.000 A 
ATOM      3  C   UNL     1       2.460   6.720  18.322  0.00  0.00    +0.000 A 
ATOM      4  C   UNL     1       2.269   5.628  19.231  0.00  0.00    +0.000 A 
ATOM      5  C   UNL     1       1.188   5.171  20.007  0.00  0.00    +0.000 A 
ATOM      6  C   UNL     1       1.378   4.041  20.799  0.00  0.00    +0.000 A 
ATOM      7  C   UNL     1       2.609   3.412  20.773  0.00  0.00    +0.000 A 
ATOM      8  N   UNL     1       3.665   3.790  20.023  0.00  0.00    +0.000 NA
ATOM      9  C   UNL     1       3.464   4.910  19.301  0.00  0.00    +0.000 A 
ATOM     10  N   UNL     1       4.381   5.576  18.525  0.00  0.00    +0.000 N 
ENDROOT
BRANCH  10  11
ATOM     11  S   UNL     1       6.009   5.081  18.350  0.00  0.00    +0.000 S 
ATOM     12  O   UNL     1       6.805   6.277  18.564  0.00  0.00    +0.000 OA
ATOM     13  O   UNL     1       6.231   3.894  19.150  0.00  0.00    +0.000 OA
BRANCH  11  14
ATOM     14  C   UNL     1       6.188   4.614  16.641  0.00  0.00    +0.000 A 
ATOM     15  C   UNL     1       5.176   3.862  16.028  0.00  0.00    +0.000 A 
ATOM     16  C   UNL     1       5.250   3.575  14.661  0.00  0.00    +0.000 A 
ATOM     17  C   UNL     1       6.337   4.049  13.914  0.00  0.00    +0.000 A 
ATOM     18  C   UNL     1       7.353   4.798  14.529  0.00  0.00    +0.000 A 
ATOM     19  C   UNL     1       7.276   5.084  15.897  0.00  0.00    +0.000 A 
BRANCH  17  20
ATOM     20  N   UNL     1       6.397   3.780  12.470  0.00  0.00    +0.000 N 
ATOM     21  O   UNL     1       7.311   4.316  11.823  0.00  0.00    +0.000 OA
ATOM     22  O   UNL     1       5.530   3.041  11.985  0.00  0.00    +0.000 OA
ENDBRANCH  17  20
ENDBRANCH  11  14
ENDBRANCH  10  11
BRANCH   3  23
ATOM     23  C   UNL     1       1.428   7.776  18.007  0.00  0.00    +0.000 C 
BRANCH  23  24
ATOM     24  C   UNL     1       1.595   9.097  18.730  0.00  0.00    +0.000 C 
ATOM     25  O   UNL     1       1.939  10.126  18.160  0.00  0.00    +0.000 OA
BRANCH  24  26
ATOM     26  O   UNL     1       1.273   9.097  20.043  0.00  0.00    +0.000 OA
ATOM     27  H   UNL     1       0.441   9.561  20.253  0.00  0.00    +0.000 HD
ENDBRANCH  24  26
ENDBRANCH  23  24
ENDBRANCH   3  23
TORSDOF 6
ENDMDL
MODEL 2
REMARK VINA RESULT:      -7.1      0.989      1.543
REMARK  Name = 
REMARK  7 active torsions:
REMARK  status: ('A' for Active; 'I' for Inactive)
REMARK    1  A    between atoms: C_1  and  C_2
REMARK    2  A    between atoms: C_3  and  C_4
REMARK    3  A    between atoms: C_4  and  C_5
REMARK    4  A    between atoms: C_5  and  O_7
REMARK    5  A    between atoms: N_14  and  S_15
REMARK    6  A    between atoms: S_15  and  C_18
REMARK    7  A    between atoms: C_21  and  N_22
REMARK                            x       y       z     vdW  Elec       q    Type
REMARK                         _______ _______ _______ _____ _____    ______ ____
ROOT
ATOM      1  C   UNL     1       4.146   7.528  17.437  0.00  0.00    +0.000 C 
ATOM      2  C   UNL     1       3.914   6.326  18.293  0.00  0.00    +0.000 A 
ATOM      3  C   UNL     1       2.793   5.977  19.048  0.00  0.00    +0.000 A 
ATOM      4  C   UNL     1       3.084   4.721  19.673  0.00  0.00    +0.000 A 
ATOM      5  C   UNL     1       2.371   3.858  20.527  0.00  0.00    +0.000 A 
ATOM      6  C   UNL     1       2.995   2.687  20.949  0.00  0.00    +0.000 A 
ATOM      7  C   UNL     1       4.275   2.418  20.498  0.00  0.00    +0.000 A 
ATOM      8  N   UNL     1       4.987   3.195  19.655  0.00  0.00    +0.000 NA
ATOM      9  C   UNL     1       4.372   4.339  19.298  0.00  0.00    +0.000 A 
ATOM     10  N   UNL     1       4.888   5.357  18.534  0.00  0.00    +0.000 N 
ENDROOT
BRANCH  10  11
ATOM     11  S   UNL     1       6.473   5.347  17.889  0.00  0.00    +0.000 S 
ATOM     12  O   UNL     1       6.908   6.733  17.903  0.00  0.00    +0.000 OA
ATOM     13  O   UNL     1       7.248   4.323  18.558  0.00  0.00    +0.000 OA
BRANCH  11  14
ATOM     14  C   UNL     1       6.296   4.855  16.187  0.00  0.00    +0.000 A 
ATOM     15  C   UNL     1       7.313   5.171  15.274  0.00  0.00    +0.000 A 
ATOM     16  C   UNL     1       7.239   4.704  13.958  0.00  0.00    +0.000 A 
ATOM     17  C   UNL     1       6.150   3.916  13.565  0.00  0.00    +0.000 A 
ATOM     18  C   UNL     1       5.129   3.603  14.477  0.00  0.00    +0.000 A 
ATOM     19  C   UNL     1       5.205   4.072  15.794  0.00  0.00    +0.000 A 
BRANCH  17  20
ATOM     20  N   UNL     1       6.091   3.393  12.192  0.00  0.00    +0.000 N 
ATOM     21  O   UNL     1       7.166   3.209  11.601  0.00  0.00    +0.000 OA
ATOM     22  O   UNL     1       4.974   3.171  11.708  0.00  0.00    +0.000 OA
ENDBRANCH  17  20
ENDBRANCH  11  14
ENDBRANCH  10  11
BRANCH   3  23
ATOM     23  C   UNL     1       1.521   6.768  19.240  0.00  0.00    +0.000 C 
BRANCH  23  24
ATOM     24  C   UNL     1       1.636   7.995  20.122  0.00  0.00    +0.000 C 
ATOM     25  O   UNL     1       1.444   9.131  19.705  0.00  0.00    +0.000 OA
BRANCH  24  26
ATOM     26  O   UNL     1       1.895   7.763  21.428  0.00  0.00    +0.000 OA
ATOM     27  H   UNL     1       2.844   7.703  21.645  0.00  0.00    +0.000 HD
ENDBRANCH  24  26
ENDBRANCH  23  24
ENDBRANCH   3  23
TORSDOF 6
ENDMDL
MODEL 3
REMARK VINA RESULT:      -7.1      0.261      1.162
REMARK  Name = 
REMARK  7 active torsions:
REMARK  status: ('A' for Active; 'I' for Inactive)
REMARK    1  A    between atoms: C_1  and  C_2
REMARK    2  A    between atoms: C_3  and  C_4
REMARK    3  A    between atoms: C_4  and  C_5
REMARK    4  A    between atoms: C_5  and  O_7
REMARK    5  A    between atoms: N_14  and  S_15
REMARK    6  A    between atoms: S_15  and  C_18
REMARK    7  A    between atoms: C_21  and  N_22
REMARK                            x       y       z     vdW  Elec       q    Type
REMARK                         _______ _______ _______ _____ _____    ______ ____
ROOT
ATOM      1  C   UNL     1       4.278   7.524  16.814  0.00  0.00    +0.000 C 
ATOM      2  C   UNL     1       3.624   6.646  17.830  0.00  0.00    +0.000 A 
ATOM      3  C   UNL     1       2.337   6.715  18.367  0.00  0.00    +0.000 A 
ATOM      4  C   UNL     1       2.212   5.630  19.294  0.00  0.00    +0.000 A 
ATOM      5  C   UNL     1       1.178   5.162  20.127  0.00  0.00    +0.000 A 
ATOM      6  C   UNL     1       1.427   4.045  20.920  0.00  0.00    +0.000 A 
ATOM      7  C   UNL     1       2.668   3.438  20.840  0.00  0.00    +0.000 A 
ATOM      8  N   UNL     1       3.679   3.827  20.036  0.00  0.00    +0.000 NA
ATOM      9  C   UNL     1       3.421   4.935  19.313  0.00  0.00    +0.000 A 
ATOM     10  N   UNL     1       4.287   5.609  18.488  0.00  0.00    +0.000 N 
ENDROOT
BRANCH  10  11
ATOM     11  S   UNL     1       5.914   5.143  18.238  0.00  0.00    +0.000 S 
ATOM     12  O   UNL     1       6.707   6.324  18.532  0.00  0.00    +0.000 OA
ATOM     13  O   UNL     1       6.160   3.897  18.934  0.00  0.00    +0.000 OA
BRANCH  11  14
ATOM     14  C   UNL     1       6.059   4.818  16.493  0.00  0.00    +0.000 A 
ATOM     15  C   UNL     1       7.192   5.273  15.804  0.00  0.00    +0.000 A 
ATOM     16  C   UNL     1       7.372   4.938  14.459  0.00  0.00    +0.000 A 
ATOM     17  C   UNL     1       6.418   4.142  13.811  0.00  0.00    +0.000 A 
ATOM     18  C   UNL     1       5.280   3.690  14.500  0.00  0.00    +0.000 A 
ATOM     19  C   UNL     1       5.103   4.027  15.847  0.00  0.00    +0.000 A 
BRANCH  17  20
ATOM     20  N   UNL     1       6.625   3.758  12.407  0.00  0.00    +0.000 N 
ATOM     21  O   UNL     1       7.439   4.420  11.745  0.00  0.00    +0.000 OA
ATOM     22  O   UNL     1       5.973   2.801  11.970  0.00  0.00    +0.000 OA
ENDBRANCH  17  20
ENDBRANCH  11  14
ENDBRANCH  10  11
BRANCH   3  23
ATOM     23  C   UNL     1       1.272   7.749  18.091  0.00  0.00    +0.000 C 
BRANCH  23  24
ATOM     24  C   UNL     1       1.601   9.165  18.520  0.00  0.00    +0.000 C 
ATOM     25  O   UNL     1       1.599   9.518  19.694  0.00  0.00    +0.000 OA
BRANCH  24  26
ATOM     26  O   UNL     1       1.970  10.011  17.533  0.00  0.00    +0.000 OA
ATOM     27  H   UNL     1       1.321  10.713  17.342  0.00  0.00    +0.000 HD
ENDBRANCH  24  26
ENDBRANCH  23  24
ENDBRANCH   3  23
TORSDOF 6
ENDMDL
MODEL 4
REMARK VINA RESULT:      -6.9      2.376      6.887
REMARK  Name = 
REMARK  7 active torsions:
REMARK  status: ('A' for Active; 'I' for Inactive)
REMARK    1  A    between atoms: C_1  and  C_2
REMARK    2  A    between atoms: C_3  and  C_4
REMARK    3  A    between atoms: C_4  and  C_5
REMARK    4  A    between atoms: C_5  and  O_7
REMARK    5  A    between atoms: N_14  and  S_15
REMARK    6  A    between atoms: S_15  and  C_18
REMARK    7  A    between atoms: C_21  and  N_22
REMARK                            x       y       z     vdW  Elec       q    Type
REMARK                         _______ _______ _______ _____ _____    ______ ____
ROOT
ATOM      1  C   UNL     1       2.723   3.444  16.491  0.00  0.00    +0.000 C 
ATOM      2  C   UNL     1       4.009   3.921  17.081  0.00  0.00    +0.000 A 
ATOM      3  C   UNL     1       5.298   3.891  16.543  0.00  0.00    +0.000 A 
ATOM      4  C   UNL     1       6.170   4.484  17.514  0.00  0.00    +0.000 A 
ATOM      5  C   UNL     1       7.550   4.753  17.561  0.00  0.00    +0.000 A 
ATOM      6  C   UNL     1       8.063   5.355  18.707  0.00  0.00    +0.000 A 
ATOM      7  C   UNL     1       7.194   5.677  19.734  0.00  0.00    +0.000 A 
ATOM      8  N   UNL     1       5.861   5.470  19.724  0.00  0.00    +0.000 NA
ATOM      9  C   UNL     1       5.402   4.848  18.620  0.00  0.00    +0.000 A 
ATOM     10  N   UNL     1       4.117   4.427  18.376  0.00  0.00    +0.000 N 
ENDROOT
BRANCH  10  11
ATOM     11  S   UNL     1       2.831   4.619  19.488  0.00  0.00    +0.000 S 
ATOM     12  O   UNL     1       1.716   3.877  18.926  0.00  0.00    +0.000 OA
ATOM     13  O   UNL     1       3.313   4.328  20.822  0.00  0.00    +0.000 OA
BRANCH  11  14
ATOM     14  C   UNL     1       2.407   6.348  19.438  0.00  0.00    +0.000 A 
ATOM     15  C   UNL     1       2.516   7.045  18.226  0.00  0.00    +0.000 A 
ATOM     16  C   UNL     1       2.090   8.374  18.145  0.00  0.00    +0.000 A 
ATOM     17  C   UNL     1       1.550   8.997  19.277  0.00  0.00    +0.000 A 
ATOM     18  C   UNL     1       1.445   8.301  20.492  0.00  0.00    +0.000 A 
ATOM     19  C   UNL     1       1.873   6.971  20.572  0.00  0.00    +0.000 A 
BRANCH  17  20
ATOM     20  N   UNL     1       1.066  10.382  19.183  0.00  0.00    +0.000 N 
ATOM     21  O   UNL     1       0.061  10.686  19.842  0.00  0.00    +0.000 OA
ATOM     22  O   UNL     1       1.688  11.160  18.448  0.00  0.00    +0.000 OA
ENDBRANCH  17  20
ENDBRANCH  11  14
ENDBRANCH  10  11
BRANCH   3  23
ATOM     23  C   UNL     1       5.738   3.307  15.222  0.00  0.00    +0.000 C 
BRANCH  23  24
ATOM     24  C   UNL     1       6.184   4.308  14.176  0.00  0.00    +0.000 C 
ATOM     25  O   UNL     1       6.385   5.489  14.432  0.00  0.00    +0.000 OA
BRANCH  24  26
ATOM     26  O   UNL     1       6.421   3.808  12.943  0.00  0.00    +0.000 OA
ATOM     27  H   UNL     1       5.794   4.111  12.259  0.00  0.00    +0.000 HD
ENDBRANCH  24  26
ENDBRANCH  23  24
ENDBRANCH   3  23
TORSDOF 6
ENDMDL
MODEL 5
REMARK VINA RESULT:      -6.8      1.954      3.340
REMARK  Name = 
REMARK  7 active torsions:
REMARK  status: ('A' for Active; 'I' for Inactive)
REMARK    1  A    between atoms: C_1  and  C_2
REMARK    2  A    between atoms: C_3  and  C_4
REMARK    3  A    between atoms: C_4  and  C_5
REMARK    4  A    between atoms: C_5  and  O_7
REMARK    5  A    between atoms: N_14  and  S_15
REMARK    6  A    between atoms: S_15  and  C_18
REMARK    7  A    between atoms: C_21  and  N_22
REMARK                            x       y       z     vdW  Elec       q    Type
REMARK                         _______ _______ _______ _____ _____    ______ ____
ROOT
ATOM      1  C   UNL     1       4.905   3.159  19.679  0.00  0.00    +0.000 C 
ATOM      2  C   UNL     1       4.209   4.403  19.233  0.00  0.00    +0.000 A 
ATOM      3  C   UNL     1       2.875   4.781  19.397  0.00  0.00    +0.000 A 
ATOM      4  C   UNL     1       2.729   6.072  18.792  0.00  0.00    +0.000 A 
ATOM      5  C   UNL     1       1.657   6.972  18.642  0.00  0.00    +0.000 A 
ATOM      6  C   UNL     1       1.894   8.170  17.973  0.00  0.00    +0.000 A 
ATOM      7  C   UNL     1       3.170   8.427  17.504  0.00  0.00    +0.000 A 
ATOM      8  N   UNL     1       4.236   7.613  17.651  0.00  0.00    +0.000 NA
ATOM      9  C   UNL     1       3.965   6.445  18.265  0.00  0.00    +0.000 A 
ATOM     10  N   UNL     1       4.824   5.393  18.466  0.00  0.00    +0.000 N 
ENDROOT
BRANCH  10  11
ATOM     11  S   UNL     1       6.451   5.384  17.936  0.00  0.00    +0.000 S 
ATOM     12  O   UNL     1       6.843   6.781  17.860  0.00  0.00    +0.000 OA
ATOM     13  O   UNL     1       7.206   4.449  18.743  0.00  0.00    +0.000 OA
BRANCH  11  14
ATOM     14  C   UNL     1       6.411   4.745  16.274  0.00  0.00    +0.000 A 
ATOM     15  C   UNL     1       5.342   3.927  15.881  0.00  0.00    +0.000 A 
ATOM     16  C   UNL     1       5.240   3.502  14.553  0.00  0.00    +0.000 A 
ATOM     17  C   UNL     1       6.209   3.904  13.623  0.00  0.00    +0.000 A 
ATOM     18  C   UNL     1       7.282   4.718  14.018  0.00  0.00    +0.000 A 
ATOM     19  C   UNL     1       7.382   5.143  15.348  0.00  0.00    +0.000 A 
BRANCH  17  20
ATOM     20  N   UNL     1       6.082   3.489  12.218  0.00  0.00    +0.000 N 
ATOM     21  O   UNL     1       7.127   3.356  11.562  0.00  0.00    +0.000 OA
ATOM     22  O   UNL     1       4.943   3.300  11.774  0.00  0.00    +0.000 OA
ENDBRANCH  17  20
ENDBRANCH  11  14
ENDBRANCH  10  11
BRANCH   3  23
ATOM     23  C   UNL     1       1.758   3.989  20.033  0.00  0.00    +0.000 C 
BRANCH  23  24
ATOM     24  C   UNL     1       0.965   3.099  19.097  0.00  0.00    +0.000 C 
ATOM     25  O   UNL     1       1.329   2.850  17.954  0.00  0.00    +0.000 OA
BRANCH  24  26
ATOM     26  O   UNL     1      -0.143   2.530  19.621  0.00  0.00    +0.000 OA
ATOM     27  H   UNL     1       0.019   1.688  20.087  0.00  0.00    +0.000 HD
ENDBRANCH  24  26
ENDBRANCH  23  24
ENDBRANCH   3  23
TORSDOF 6
ENDMDL
MODEL 6
REMARK VINA RESULT:      -6.8      1.953      3.507
REMARK  Name = 
REMARK  7 active torsions:
REMARK  status: ('A' for Active; 'I' for Inactive)
REMARK    1  A    between atoms: C_1  and  C_2
REMARK    2  A    between atoms: C_3  and  C_4
REMARK    3  A    between atoms: C_4  and  C_5
REMARK    4  A    between atoms: C_5  and  O_7
REMARK    5  A    between atoms: N_14  and  S_15
REMARK    6  A    between atoms: S_15  and  C_18
REMARK    7  A    between atoms: C_21  and  N_22
REMARK                            x       y       z     vdW  Elec       q    Type
REMARK                         _______ _______ _______ _____ _____    ______ ____
ROOT
ATOM      1  C   UNL     1       4.775   3.226  19.634  0.00  0.00    +0.000 C 
ATOM      2  C   UNL     1       4.111   4.494  19.209  0.00  0.00    +0.000 A 
ATOM      3  C   UNL     1       2.798   4.921  19.418  0.00  0.00    +0.000 A 
ATOM      4  C   UNL     1       2.679   6.216  18.815  0.00  0.00    +0.000 A 
ATOM      5  C   UNL     1       1.638   7.156  18.699  0.00  0.00    +0.000 A 
ATOM      6  C   UNL     1       1.895   8.343  18.019  0.00  0.00    +0.000 A 
ATOM      7  C   UNL     1       3.163   8.552  17.506  0.00  0.00    +0.000 A 
ATOM      8  N   UNL     1       4.203   7.699  17.618  0.00  0.00    +0.000 NA
ATOM      9  C   UNL     1       3.910   6.543  18.244  0.00  0.00    +0.000 A 
ATOM     10  N   UNL     1       4.736   5.459  18.419  0.00  0.00    +0.000 N 
ENDROOT
BRANCH  10  11
ATOM     11  S   UNL     1       6.341   5.389  17.833  0.00  0.00    +0.000 S 
ATOM     12  O   UNL     1       6.818   6.762  17.837  0.00  0.00    +0.000 OA
ATOM     13  O   UNL     1       7.061   4.357  18.549  0.00  0.00    +0.000 OA
BRANCH  11  14
ATOM     14  C   UNL     1       6.211   4.870  16.135  0.00  0.00    +0.000 A 
ATOM     15  C   UNL     1       7.260   5.157  15.249  0.00  0.00    +0.000 A 
ATOM     16  C   UNL     1       7.221   4.667  13.940  0.00  0.00    +0.000 A 
ATOM     17  C   UNL     1       6.134   3.886  13.526  0.00  0.00    +0.000 A 
ATOM     18  C   UNL     1       5.082   3.602  14.412  0.00  0.00    +0.000 A 
ATOM     19  C   UNL     1       5.122   4.093  15.722  0.00  0.00    +0.000 A 
BRANCH  17  20
ATOM     20  N   UNL     1       6.111   3.339  12.162  0.00  0.00    +0.000 N 
ATOM     21  O   UNL     1       5.003   3.174  11.627  0.00  0.00    +0.000 OA
ATOM     22  O   UNL     1       7.196   3.071  11.630  0.00  0.00    +0.000 OA
ENDBRANCH  17  20
ENDBRANCH  11  14
ENDBRANCH  10  11
BRANCH   3  23
ATOM     23  C   UNL     1       1.675   4.173  20.094  0.00  0.00    +0.000 C 
BRANCH  23  24
ATOM     24  C   UNL     1       0.906   3.206  19.217  0.00  0.00    +0.000 C 
ATOM     25  O   UNL     1       1.132   3.074  18.020  0.00  0.00    +0.000 OA
BRANCH  24  26
ATOM     26  O   UNL     1      -0.008   2.435  19.847  0.00  0.00    +0.000 OA
ATOM     27  H   UNL     1      -0.181   1.579  19.412  0.00  0.00    +0.000 HD
ENDBRANCH  24  26
ENDBRANCH  23  24
ENDBRANCH   3  23
TORSDOF 6
ENDMDL
MODEL 7
REMARK VINA RESULT:      -6.7      0.916      1.270
REMARK  Name = 
REMARK  7 active torsions:
REMARK  status: ('A' for Active; 'I' for Inactive)
REMARK    1  A    between atoms: C_1  and  C_2
REMARK    2  A    between atoms: C_3  and  C_4
REMARK    3  A    between atoms: C_4  and  C_5
REMARK    4  A    between atoms: C_5  and  O_7
REMARK    5  A    between atoms: N_14  and  S_15
REMARK    6  A    between atoms: S_15  and  C_18
REMARK    7  A    between atoms: C_21  and  N_22
REMARK                            x       y       z     vdW  Elec       q    Type
REMARK                         _______ _______ _______ _____ _____    ______ ____
ROOT
ATOM      1  C   UNL     1       4.742   7.184  17.775  0.00  0.00    +0.000 C 
ATOM      2  C   UNL     1       3.812   6.286  18.524  0.00  0.00    +0.000 A 
ATOM      3  C   UNL     1       2.473   6.482  18.866  0.00  0.00    +0.000 A 
ATOM      4  C   UNL     1       2.047   5.311  19.574  0.00  0.00    +0.000 A 
ATOM      5  C   UNL     1       0.833   4.899  20.154  0.00  0.00    +0.000 A 
ATOM      6  C   UNL     1       0.791   3.657  20.782  0.00  0.00    +0.000 A 
ATOM      7  C   UNL     1       1.936   2.879  20.790  0.00  0.00    +0.000 A 
ATOM      8  N   UNL     1       3.112   3.214  20.221  0.00  0.00    +0.000 NA
ATOM      9  C   UNL     1       3.132   4.438  19.659  0.00  0.00    +0.000 A 
ATOM     10  N   UNL     1       4.209   5.077  19.094  0.00  0.00    +0.000 N 
ENDROOT
BRANCH  10  11
ATOM     11  S   UNL     1       5.778   4.399  19.018  0.00  0.00    +0.000 S 
ATOM     12  O   UNL     1       6.649   5.360  19.672  0.00  0.00    +0.000 OA
ATOM     13  O   UNL     1       5.722   3.026  19.473  0.00  0.00    +0.000 OA
BRANCH  11  14
ATOM     14  C   UNL     1       6.207   4.372  17.290  0.00  0.00    +0.000 A 
ATOM     15  C   UNL     1       5.290   3.850  16.366  0.00  0.00    +0.000 A 
ATOM     16  C   UNL     1       5.566   3.915  14.997  0.00  0.00    +0.000 A 
ATOM     17  C   UNL     1       6.757   4.510  14.559  0.00  0.00    +0.000 A 
ATOM     18  C   UNL     1       7.677   5.028  15.485  0.00  0.00    +0.000 A 
ATOM     19  C   UNL     1       7.399   4.961  16.855  0.00  0.00    +0.000 A 
BRANCH  17  20
ATOM     20  N   UNL     1       7.030   4.613  13.118  0.00  0.00    +0.000 N 
ATOM     21  O   UNL     1       6.464   3.804  12.367  0.00  0.00    +0.000 OA
ATOM     22  O   UNL     1       7.811   5.497  12.743  0.00  0.00    +0.000 OA
ENDBRANCH  17  20
ENDBRANCH  11  14
ENDBRANCH  10  11
BRANCH   3  23
ATOM     23  C   UNL     1       1.618   7.698  18.607  0.00  0.00    +0.000 C 
BRANCH  23  24
ATOM     24  C   UNL     1       1.434   8.637  19.783  0.00  0.00    +0.000 C 
ATOM     25  O   UNL     1       1.599   8.284  20.944  0.00  0.00    +0.000 OA
BRANCH  24  26
ATOM     26  O   UNL     1       1.143   9.920  19.475  0.00  0.00    +0.000 OA
ATOM     27  H   UNL     1       0.188  10.117  19.429  0.00  0.00    +0.000 HD
ENDBRANCH  24  26
ENDBRANCH  23  24
ENDBRANCH   3  23
TORSDOF 6
ENDMDL
MODEL 8
REMARK VINA RESULT:      -6.7      7.148     11.916
REMARK  Name = 
REMARK  7 active torsions:
REMARK  status: ('A' for Active; 'I' for Inactive)
REMARK    1  A    between atoms: C_1  and  C_2
REMARK    2  A    between atoms: C_3  and  C_4
REMARK    3  A    between atoms: C_4  and  C_5
REMARK    4  A    between atoms: C_5  and  O_7
REMARK    5  A    between atoms: N_14  and  S_15
REMARK    6  A    between atoms: S_15  and  C_18
REMARK    7  A    between atoms: C_21  and  N_22
REMARK                            x       y       z     vdW  Elec       q    Type
REMARK                         _______ _______ _______ _____ _____    ______ ____
ROOT
ATOM      1  C   UNL     1      -0.781  13.071  18.458  0.00  0.00    +0.000 C 
ATOM      2  C   UNL     1      -0.587  12.035  19.516  0.00  0.00    +0.000 A 
ATOM      3  C   UNL     1      -0.177  10.706  19.393  0.00  0.00    +0.000 A 
ATOM      4  C   UNL     1      -0.145  10.154  20.715  0.00  0.00    +0.000 A 
ATOM      5  C   UNL     1       0.191   8.896  21.249  0.00  0.00    +0.000 A 
ATOM      6  C   UNL     1       0.096   8.719  22.626  0.00  0.00    +0.000 A 
ATOM      7  C   UNL     1      -0.306   9.788  23.407  0.00  0.00    +0.000 A 
ATOM      8  N   UNL     1      -0.609  11.020  22.949  0.00  0.00    +0.000 NA
ATOM      9  C   UNL     1      -0.547  11.148  21.609  0.00  0.00    +0.000 A 
ATOM     10  N   UNL     1      -0.889  12.249  20.861  0.00  0.00    +0.000 N 
ENDROOT
BRANCH  10  11
ATOM     11  S   UNL     1      -1.488  13.702  21.536  0.00  0.00    +0.000 S 
ATOM     12  O   UNL     1      -0.594  14.017  22.637  0.00  0.00    +0.000 OA
ATOM     13  O   UNL     1      -1.716  14.658  20.473  0.00  0.00    +0.000 OA
BRANCH  11  14
ATOM     14  C   UNL     1      -3.075  13.290  22.232  0.00  0.00    +0.000 A 
ATOM     15  C   UNL     1      -3.242  13.328  23.624  0.00  0.00    +0.000 A 
ATOM     16  C   UNL     1      -4.506  13.109  24.181  0.00  0.00    +0.000 A 
ATOM     17  C   UNL     1      -5.598  12.859  23.340  0.00  0.00    +0.000 A 
ATOM     18  C   UNL     1      -5.430  12.816  21.946  0.00  0.00    +0.000 A 
ATOM     19  C   UNL     1      -4.164  13.035  21.391  0.00  0.00    +0.000 A 
BRANCH  17  20
ATOM     20  N   UNL     1      -6.934  12.666  23.922  0.00  0.00    +0.000 N 
ATOM     21  O   UNL     1      -7.519  13.669  24.362  0.00  0.00    +0.000 OA
ATOM     22  O   UNL     1      -7.392  11.517  23.944  0.00  0.00    +0.000 OA
ENDBRANCH  17  20
ENDBRANCH  11  14
ENDBRANCH  10  11
BRANCH   3  23
ATOM     23  C   UNL     1       0.131   9.944  18.127  0.00  0.00    +0.000 C 
BRANCH  23  24
ATOM     24  C   UNL     1       1.601   9.721  17.834  0.00  0.00    +0.000 C 
ATOM     25  O   UNL     1       2.121   8.612  17.865  0.00  0.00    +0.000 OA
BRANCH  24  26
ATOM     26  O   UNL     1       2.302  10.815  17.462  0.00  0.00    +0.000 OA
ATOM     27  H   UNL     1       2.270  11.007  16.506  0.00  0.00    +0.000 HD
ENDBRANCH  24  26
ENDBRANCH  23  24
ENDBRANCH   3  23
TORSDOF 6
ENDMDL
MODEL 9
REMARK VINA RESULT:      -6.7      2.329      6.800
REMARK  Name = 
REMARK  7 active torsions:
REMARK  status: ('A' for Active; 'I' for Inactive)
REMARK    1  A    between atoms: C_1  and  C_2
REMARK    2  A    between atoms: C_3  and  C_4
REMARK    3  A    between atoms: C_4  and  C_5
REMARK    4  A    between atoms: C_5  and  O_7
REMARK    5  A    between atoms: N_14  and  S_15
REMARK    6  A    between atoms: S_15  and  C_18
REMARK    7  A    between atoms: C_21  and  N_22
REMARK                            x       y       z     vdW  Elec       q    Type
REMARK                         _______ _______ _______ _____ _____    ______ ____
ROOT
ATOM      1  C   UNL     1       2.803   3.307  16.504  0.00  0.00    +0.000 C 
ATOM      2  C   UNL     1       4.071   3.836  17.090  0.00  0.00    +0.000 A 
ATOM      3  C   UNL     1       5.361   3.840  16.556  0.00  0.00    +0.000 A 
ATOM      4  C   UNL     1       6.210   4.477  17.520  0.00  0.00    +0.000 A 
ATOM      5  C   UNL     1       7.581   4.792  17.567  0.00  0.00    +0.000 A 
ATOM      6  C   UNL     1       8.070   5.429  18.705  0.00  0.00    +0.000 A 
ATOM      7  C   UNL     1       7.187   5.737  19.724  0.00  0.00    +0.000 A 
ATOM      8  N   UNL     1       5.861   5.486  19.713  0.00  0.00    +0.000 NA
ATOM      9  C   UNL     1       5.427   4.832  18.619  0.00  0.00    +0.000 A 
ATOM     10  N   UNL     1       4.158   4.365  18.378  0.00  0.00    +0.000 N 
ENDROOT
BRANCH  10  11
ATOM     11  S   UNL     1       2.862   4.531  19.483  0.00  0.00    +0.000 S 
ATOM     12  O   UNL     1       1.804   3.677  18.973  0.00  0.00    +0.000 OA
ATOM     13  O   UNL     1       3.365   4.358  20.829  0.00  0.00    +0.000 OA
BRANCH  11  14
ATOM     14  C   UNL     1       2.314   6.218  19.330  0.00  0.00    +0.000 A 
ATOM     15  C   UNL     1       1.842   6.890  20.467  0.00  0.00    +0.000 A 
ATOM     16  C   UNL     1       1.506   8.245  20.388  0.00  0.00    +0.000 A 
ATOM     17  C   UNL     1       1.649   8.922  19.169  0.00  0.00    +0.000 A 
ATOM     18  C   UNL     1       2.117   8.248  18.030  0.00  0.00    +0.000 A 
ATOM     19  C   UNL     1       2.454   6.892  18.112  0.00  0.00    +0.000 A 
BRANCH  17  20
ATOM     20  N   UNL     1       1.332  10.356  19.094  0.00  0.00    +0.000 N 
ATOM     21  O   UNL     1       0.474  10.796  19.876  0.00  0.00    +0.000 OA
ATOM     22  O   UNL     1       1.935  11.035  18.254  0.00  0.00    +0.000 OA
ENDBRANCH  17  20
ENDBRANCH  11  14
ENDBRANCH  10  11
BRANCH   3  23
ATOM     23  C   UNL     1       5.825   3.252  15.246  0.00  0.00    +0.000 C 
BRANCH  23  24
ATOM     24  C   UNL     1       5.988   4.234  14.103  0.00  0.00    +0.000 C 
ATOM     25  O   UNL     1       6.793   5.157  14.134  0.00  0.00    +0.000 OA
BRANCH  24  26
ATOM     26  O   UNL     1       5.239   3.993  13.004  0.00  0.00    +0.000 OA
ATOM     27  H   UNL     1       4.557   4.667  12.827  0.00  0.00    +0.000 HD
ENDBRANCH  24  26
ENDBRANCH  23  24
ENDBRANCH   3  23
TORSDOF 6
ENDMDL
