MODEL 1
REMARK VINA RESULT:      -8.9      0.000      0.000
REMARK  Name = 
REMARK  5 active torsions:
REMARK  status: ('A' for Active; 'I' for Inactive)
REMARK    1  A    between atoms: O_1  and  C_2
REMARK    2  A    between atoms: C_5  and  C_6
REMARK    3  A    between atoms: C_6  and  C_7
REMARK    4  A    between atoms: C_6  and  C_16
REMARK    5  A    between atoms: C_26  and  O_27
REMARK                            x       y       z     vdW  Elec       q    Type
REMARK                         _______ _______ _______ _____ _____    ______ ____
ROOT
ATOM      1  C   UNL     1       3.121   6.865  18.950  0.00  0.00    +0.000 C 
ENDROOT
BRANCH   1   2
ATOM      2  C   UNL     1       4.143   6.714  17.849  0.00  0.00    +0.000 A 
ATOM      3  C   UNL     1       4.101   7.262  16.577  0.00  0.00    +0.000 A 
ATOM      4  N   UNL     1       5.200   6.846  15.883  0.00  0.00    +0.000 N 
ATOM      5  C   UNL     1       5.980   6.035  16.670  0.00  0.00    +0.000 A 
ATOM      6  C   UNL     1       7.172   5.366  16.365  0.00  0.00    +0.000 A 
ATOM      7  C   UNL     1       7.762   4.599  17.372  0.00  0.00    +0.000 A 
ATOM      8  C   UNL     1       7.190   4.520  18.638  0.00  0.00    +0.000 A 
ATOM      9  C   UNL     1       5.998   5.196  18.927  0.00  0.00    +0.000 A 
ATOM     10  C   UNL     1       5.366   5.958  17.920  0.00  0.00    +0.000 A 
ATOM     11  H   UNL     1       5.411   7.088  14.924  0.00  0.00    +0.000 HD
ENDBRANCH   1   2
BRANCH   1  12
ATOM     12  C   UNL     1       2.178   8.049  18.814  0.00  0.00    +0.000 A 
ATOM     13  C   UNL     1       1.818   8.766  17.681  0.00  0.00    +0.000 A 
ATOM     14  N   UNL     1       0.905   9.721  18.026  0.00  0.00    +0.000 N 
ATOM     15  C   UNL     1       0.631   9.657  19.368  0.00  0.00    +0.000 A 
ATOM     16  C   UNL     1      -0.252  10.424  20.139  0.00  0.00    +0.000 A 
ATOM     17  C   UNL     1      -0.331  10.145  21.505  0.00  0.00    +0.000 A 
ATOM     18  C   UNL     1       0.450   9.142  22.075  0.00  0.00    +0.000 A 
ATOM     19  C   UNL     1       1.323   8.380  21.284  0.00  0.00    +0.000 A 
ATOM     20  C   UNL     1       1.417   8.633  19.898  0.00  0.00    +0.000 A 
ATOM     21  H   UNL     1       0.477  10.375  17.385  0.00  0.00    +0.000 HD
ENDBRANCH   1  12
BRANCH   1  25
ATOM     22  C   UNL     1       0.843   3.158  19.068  0.00  0.00    +0.000 A 
ATOM     23  C   UNL     1       1.153   3.725  17.838  0.00  0.00    +0.000 A 
ATOM     24  C   UNL     1       1.897   4.908  17.789  0.00  0.00    +0.000 A 
ATOM     25  C   UNL     1       2.326   5.557  18.967  0.00  0.00    +0.000 A 
ATOM     26  C   UNL     1       2.008   4.956  20.201  0.00  0.00    +0.000 A 
ATOM     27  C   UNL     1       1.279   3.764  20.245  0.00  0.00    +0.000 A 
BRANCH  22  28
ATOM     28  O   UNL     1       0.113   2.005  19.134  0.00  0.00    +0.000 OA
ATOM     29  H   UNL     1       0.464   1.374  18.488  0.00  0.00    +0.000 HD
ENDBRANCH  22  28
BRANCH  27  30
ATOM     30  O   UNL     1       0.986   3.177  21.445  0.00  0.00    +0.000 OA
ATOM     31  H   UNL     1       1.452   3.653  22.149  0.00  0.00    +0.000 HD
ENDBRANCH  27  30
ENDBRANCH   1  25
TORSDOF 5
ENDMDL
MODEL 2
REMARK VINA RESULT:      -8.5      2.140      6.202
REMARK  Name = 
REMARK  5 active torsions:
REMARK  status: ('A' for Active; 'I' for Inactive)
REMARK    1  A    between atoms: O_1  and  C_2
REMARK    2  A    between atoms: C_5  and  C_6
REMARK    3  A    between atoms: C_6  and  C_7
REMARK    4  A    between atoms: C_6  and  C_16
REMARK    5  A    between atoms: C_26  and  O_27
REMARK                            x       y       z     vdW  Elec       q    Type
REMARK                         _______ _______ _______ _____ _____    ______ ____
ROOT
ATOM      1  C   UNL     1       3.266   5.683  17.518  0.00  0.00    +0.000 C 
ENDROOT
BRANCH   1   2
ATOM      2  C   UNL     1       2.732   6.427  18.718  0.00  0.00    +0.000 A 
ATOM      3  C   UNL     1       2.662   5.979  20.028  0.00  0.00    +0.000 A 
ATOM      4  N   UNL     1       2.075   6.945  20.792  0.00  0.00    +0.000 N 
ATOM      5  C   UNL     1       1.756   8.034  20.020  0.00  0.00    +0.000 A 
ATOM      6  C   UNL     1       1.120   9.231  20.374  0.00  0.00    +0.000 A 
ATOM      7  C   UNL     1       0.921  10.182  19.371  0.00  0.00    +0.000 A 
ATOM      8  C   UNL     1       1.358   9.951  18.069  0.00  0.00    +0.000 A 
ATOM      9  C   UNL     1       1.993   8.749  17.732  0.00  0.00    +0.000 A 
ATOM     10  C   UNL     1       2.185   7.759  18.720  0.00  0.00    +0.000 A 
ATOM     11  H   UNL     1       1.890   6.873  21.784  0.00  0.00    +0.000 HD
ENDBRANCH   1   2
BRANCH   1  12
ATOM     12  C   UNL     1       4.646   6.106  17.044  0.00  0.00    +0.000 A 
ATOM     13  C   UNL     1       5.490   7.089  17.543  0.00  0.00    +0.000 A 
ATOM     14  N   UNL     1       6.654   7.088  16.829  0.00  0.00    +0.000 N 
ATOM     15  C   UNL     1       6.619   6.115  15.863  0.00  0.00    +0.000 A 
ATOM     16  C   UNL     1       7.594   5.748  14.926  0.00  0.00    +0.000 A 
ATOM     17  C   UNL     1       7.288   4.710  14.044  0.00  0.00    +0.000 A 
ATOM     18  C   UNL     1       6.052   4.072  14.094  0.00  0.00    +0.000 A 
ATOM     19  C   UNL     1       5.091   4.449  15.044  0.00  0.00    +0.000 A 
ATOM     20  C   UNL     1       5.375   5.489  15.957  0.00  0.00    +0.000 A 
ATOM     21  H   UNL     1       7.437   7.703  16.994  0.00  0.00    +0.000 HD
ENDBRANCH   1  12
BRANCH   1  25
ATOM     22  C   UNL     1       3.327   1.493  18.695  0.00  0.00    +0.000 A 
ATOM     23  C   UNL     1       2.361   1.932  17.798  0.00  0.00    +0.000 A 
ATOM     24  C   UNL     1       2.343   3.273  17.402  0.00  0.00    +0.000 A 
ATOM     25  C   UNL     1       3.274   4.204  17.911  0.00  0.00    +0.000 A 
ATOM     26  C   UNL     1       4.250   3.731  18.811  0.00  0.00    +0.000 A 
ATOM     27  C   UNL     1       4.276   2.386  19.190  0.00  0.00    +0.000 A 
BRANCH  22  28
ATOM     28  O   UNL     1       3.358   0.187  19.095  0.00  0.00    +0.000 OA
ATOM     29  H   UNL     1       3.162  -0.379  18.334  0.00  0.00    +0.000 HD
ENDBRANCH  22  28
BRANCH  27  30
ATOM     30  O   UNL     1       5.235   1.930  20.052  0.00  0.00    +0.000 OA
ATOM     31  H   UNL     1       5.957   2.575  20.088  0.00  0.00    +0.000 HD
ENDBRANCH  27  30
ENDBRANCH   1  25
TORSDOF 5
ENDMDL
MODEL 3
REMARK VINA RESULT:      -8.4      1.647      2.247
REMARK  Name = 
REMARK  5 active torsions:
REMARK  status: ('A' for Active; 'I' for Inactive)
REMARK    1  A    between atoms: O_1  and  C_2
REMARK    2  A    between atoms: C_5  and  C_6
REMARK    3  A    between atoms: C_6  and  C_7
REMARK    4  A    between atoms: C_6  and  C_16
REMARK    5  A    between atoms: C_26  and  O_27
REMARK                            x       y       z     vdW  Elec       q    Type
REMARK                         _______ _______ _______ _____ _____    ______ ____
ROOT
ATOM      1  C   UNL     1       3.895   5.720  19.416  0.00  0.00    +0.000 C 
ENDROOT
BRANCH   1   2
ATOM      2  C   UNL     1       5.233   5.402  18.792  0.00  0.00    +0.000 A 
ATOM      3  C   UNL     1       6.474   5.401  19.410  0.00  0.00    +0.000 A 
ATOM      4  N   UNL     1       7.427   5.098  18.480  0.00  0.00    +0.000 N 
ATOM      5  C   UNL     1       6.845   4.891  17.254  0.00  0.00    +0.000 A 
ATOM      6  C   UNL     1       7.436   4.591  16.020  0.00  0.00    +0.000 A 
ATOM      7  C   UNL     1       6.593   4.429  14.918  0.00  0.00    +0.000 A 
ATOM      8  C   UNL     1       5.212   4.545  15.052  0.00  0.00    +0.000 A 
ATOM      9  C   UNL     1       4.637   4.845  16.294  0.00  0.00    +0.000 A 
ATOM     10  C   UNL     1       5.468   5.039  17.419  0.00  0.00    +0.000 A 
ATOM     11  H   UNL     1       8.420   5.042  18.659  0.00  0.00    +0.000 HD
ENDBRANCH   1   2
BRANCH   1  12
ATOM     12  C   UNL     1       3.199   6.960  18.880  0.00  0.00    +0.000 A 
ATOM     13  C   UNL     1       3.315   7.572  17.640  0.00  0.00    +0.000 A 
ATOM     14  N   UNL     1       2.463   8.639  17.584  0.00  0.00    +0.000 N 
ATOM     15  C   UNL     1       1.764   8.752  18.759  0.00  0.00    +0.000 A 
ATOM     16  C   UNL     1       0.780   9.678  19.129  0.00  0.00    +0.000 A 
ATOM     17  C   UNL     1       0.230   9.564  20.407  0.00  0.00    +0.000 A 
ATOM     18  C   UNL     1       0.656   8.568  21.281  0.00  0.00    +0.000 A 
ATOM     19  C   UNL     1       1.638   7.645  20.890  0.00  0.00    +0.000 A 
ATOM     20  C   UNL     1       2.206   7.729  19.599  0.00  0.00    +0.000 A 
ATOM     21  H   UNL     1       2.349   9.250  16.789  0.00  0.00    +0.000 HD
ENDBRANCH   1  12
BRANCH   1  25
ATOM     22  C   UNL     1       1.466   2.163  18.787  0.00  0.00    +0.000 A 
ATOM     23  C   UNL     1       0.842   3.401  18.897  0.00  0.00    +0.000 A 
ATOM     24  C   UNL     1       1.615   4.550  19.084  0.00  0.00    +0.000 A 
ATOM     25  C   UNL     1       3.022   4.484  19.186  0.00  0.00    +0.000 A 
ATOM     26  C   UNL     1       3.630   3.219  19.061  0.00  0.00    +0.000 A 
ATOM     27  C   UNL     1       2.855   2.074  18.856  0.00  0.00    +0.000 A 
BRANCH  22  28
ATOM     28  O   UNL     1       0.726   1.029  18.608  0.00  0.00    +0.000 OA
ATOM     29  H   UNL     1       1.140   0.489  17.918  0.00  0.00    +0.000 HD
ENDBRANCH  22  28
BRANCH  27  30
ATOM     30  O   UNL     1       3.452   0.851  18.720  0.00  0.00    +0.000 OA
ATOM     31  H   UNL     1       3.507   0.430  19.590  0.00  0.00    +0.000 HD
ENDBRANCH  27  30
ENDBRANCH   1  25
TORSDOF 5
ENDMDL
MODEL 4
REMARK VINA RESULT:      -8.3      0.571      1.248
REMARK  Name = 
REMARK  5 active torsions:
REMARK  status: ('A' for Active; 'I' for Inactive)
REMARK    1  A    between atoms: O_1  and  C_2
REMARK    2  A    between atoms: C_5  and  C_6
REMARK    3  A    between atoms: C_6  and  C_7
REMARK    4  A    between atoms: C_6  and  C_16
REMARK    5  A    between atoms: C_26  and  O_27
REMARK                            x       y       z     vdW  Elec       q    Type
REMARK                         _______ _______ _______ _____ _____    ______ ____
ROOT
ATOM      1  C   UNL     1       3.128   6.996  19.024  0.00  0.00    +0.000 C 
ENDROOT
BRANCH   1   2
ATOM      2  C   UNL     1       4.111   6.770  17.901  0.00  0.00    +0.000 A 
ATOM      3  C   UNL     1       4.025   7.233  16.597  0.00  0.00    +0.000 A 
ATOM      4  N   UNL     1       5.100   6.770  15.895  0.00  0.00    +0.000 N 
ATOM      5  C   UNL     1       5.906   6.010  16.706  0.00  0.00    +0.000 A 
ATOM      6  C   UNL     1       7.087   5.319  16.404  0.00  0.00    +0.000 A 
ATOM      7  C   UNL     1       7.711   4.618  17.438  0.00  0.00    +0.000 A 
ATOM      8  C   UNL     1       7.183   4.624  18.727  0.00  0.00    +0.000 A 
ATOM      9  C   UNL     1       6.002   5.321  19.012  0.00  0.00    +0.000 A 
ATOM     10  C   UNL     1       5.336   6.017  17.979  0.00  0.00    +0.000 A 
ATOM     11  H   UNL     1       5.278   6.948  14.916  0.00  0.00    +0.000 HD
ENDBRANCH   1   2
BRANCH   1  12
ATOM     12  C   UNL     1       2.162   8.152  18.830  0.00  0.00    +0.000 A 
ATOM     13  C   UNL     1       1.778   8.795  17.661  0.00  0.00    +0.000 A 
ATOM     14  N   UNL     1       0.850   9.752  17.959  0.00  0.00    +0.000 N 
ATOM     15  C   UNL     1       0.589   9.760  19.305  0.00  0.00    +0.000 A 
ATOM     16  C   UNL     1      -0.303  10.552  20.040  0.00  0.00    +0.000 A 
ATOM     17  C   UNL     1      -0.364  10.351  21.420  0.00  0.00    +0.000 A 
ATOM     18  C   UNL     1       0.440   9.398  22.039  0.00  0.00    +0.000 A 
ATOM     19  C   UNL     1       1.321   8.608  21.285  0.00  0.00    +0.000 A 
ATOM     20  C   UNL     1       1.399   8.783  19.885  0.00  0.00    +0.000 A 
ATOM     21  H   UNL     1       0.405  10.359  17.286  0.00  0.00    +0.000 HD
ENDBRANCH   1  12
BRANCH   1  25
ATOM     22  C   UNL     1       0.974   3.232  19.403  0.00  0.00    +0.000 A 
ATOM     23  C   UNL     1       0.937   4.144  20.451  0.00  0.00    +0.000 A 
ATOM     24  C   UNL     1       1.613   5.362  20.333  0.00  0.00    +0.000 A 
ATOM     25  C   UNL     1       2.357   5.683  19.176  0.00  0.00    +0.000 A 
ATOM     26  C   UNL     1       2.370   4.746  18.124  0.00  0.00    +0.000 A 
ATOM     27  C   UNL     1       1.677   3.537  18.239  0.00  0.00    +0.000 A 
BRANCH  22  28
ATOM     28  O   UNL     1       0.322   2.036  19.504  0.00  0.00    +0.000 OA
ATOM     29  H   UNL     1       0.621   1.455  18.789  0.00  0.00    +0.000 HD
ENDBRANCH  22  28
BRANCH  27  30
ATOM     30  O   UNL     1       1.681   2.638  17.208  0.00  0.00    +0.000 OA
ATOM     31  H   UNL     1       1.014   2.904  16.557  0.00  0.00    +0.000 HD
ENDBRANCH  27  30
ENDBRANCH   1  25
TORSDOF 5
ENDMDL
MODEL 5
REMARK VINA RESULT:      -8.1      1.709      6.105
REMARK  Name = 
REMARK  5 active torsions:
REMARK  status: ('A' for Active; 'I' for Inactive)
REMARK    1  A    between atoms: O_1  and  C_2
REMARK    2  A    between atoms: C_5  and  C_6
REMARK    3  A    between atoms: C_6  and  C_7
REMARK    4  A    between atoms: C_6  and  C_16
REMARK    5  A    between atoms: C_26  and  O_27
REMARK                            x       y       z     vdW  Elec       q    Type
REMARK                         _______ _______ _______ _____ _____    ______ ____
ROOT
ATOM      1  C   UNL     1       2.996   6.005  17.731  0.00  0.00    +0.000 C 
ENDROOT
BRANCH   1   2
ATOM      2  C   UNL     1       2.493   6.865  18.865  0.00  0.00    +0.000 A 
ATOM      3  C   UNL     1       2.400   6.526  20.206  0.00  0.00    +0.000 A 
ATOM      4  N   UNL     1       1.855   7.576  20.888  0.00  0.00    +0.000 N 
ATOM      5  C   UNL     1       1.588   8.613  20.029  0.00  0.00    +0.000 A 
ATOM      6  C   UNL     1       1.006   9.862  20.282  0.00  0.00    +0.000 A 
ATOM      7  C   UNL     1       0.852  10.738  19.206  0.00  0.00    +0.000 A 
ATOM      8  C   UNL     1       1.282  10.384  17.930  0.00  0.00    +0.000 A 
ATOM      9  C   UNL     1       1.863   9.132  17.693  0.00  0.00    +0.000 A 
ATOM     10  C   UNL     1       2.007   8.216  18.758  0.00  0.00    +0.000 A 
ATOM     11  H   UNL     1       1.664   7.592  21.880  0.00  0.00    +0.000 HD
ENDBRANCH   1   2
BRANCH   1  12
ATOM     12  C   UNL     1       4.426   6.270  17.290  0.00  0.00    +0.000 A 
ATOM     13  C   UNL     1       5.351   7.176  17.789  0.00  0.00    +0.000 A 
ATOM     14  N   UNL     1       6.529   7.034  17.112  0.00  0.00    +0.000 N 
ATOM     15  C   UNL     1       6.422   6.041  16.172  0.00  0.00    +0.000 A 
ATOM     16  C   UNL     1       7.380   5.548  15.277  0.00  0.00    +0.000 A 
ATOM     17  C   UNL     1       6.995   4.521  14.414  0.00  0.00    +0.000 A 
ATOM     18  C   UNL     1       5.698   4.014  14.442  0.00  0.00    +0.000 A 
ATOM     19  C   UNL     1       4.754   4.516  15.351  0.00  0.00    +0.000 A 
ATOM     20  C   UNL     1       5.118   5.548  16.244  0.00  0.00    +0.000 A 
ATOM     21  H   UNL     1       7.367   7.571  17.285  0.00  0.00    +0.000 HD
ENDBRANCH   1  12
BRANCH   1  25
ATOM     22  C   UNL     1       2.525   1.880  19.041  0.00  0.00    +0.000 A 
ATOM     23  C   UNL     1       3.746   2.517  19.228  0.00  0.00    +0.000 A 
ATOM     24  C   UNL     1       3.903   3.846  18.824  0.00  0.00    +0.000 A 
ATOM     25  C   UNL     1       2.851   4.557  18.207  0.00  0.00    +0.000 A 
ATOM     26  C   UNL     1       1.620   3.893  18.039  0.00  0.00    +0.000 A 
ATOM     27  C   UNL     1       1.461   2.569  18.461  0.00  0.00    +0.000 A 
BRANCH  22  28
ATOM     28  O   UNL     1       2.356   0.581  19.426  0.00  0.00    +0.000 OA
ATOM     29  H   UNL     1       2.189   0.555  20.380  0.00  0.00    +0.000 HD
ENDBRANCH  22  28
BRANCH  27  30
ATOM     30  O   UNL     1       0.260   1.935  18.308  0.00  0.00    +0.000 OA
ATOM     31  H   UNL     1       0.386   1.151  17.754  0.00  0.00    +0.000 HD
ENDBRANCH  27  30
ENDBRANCH   1  25
TORSDOF 5
ENDMDL
MODEL 6
REMARK VINA RESULT:      -8.0      1.322      1.961
REMARK  Name = 
REMARK  5 active torsions:
REMARK  status: ('A' for Active; 'I' for Inactive)
REMARK    1  A    between atoms: O_1  and  C_2
REMARK    2  A    between atoms: C_5  and  C_6
REMARK    3  A    between atoms: C_6  and  C_7
REMARK    4  A    between atoms: C_6  and  C_16
REMARK    5  A    between atoms: C_26  and  O_27
REMARK                            x       y       z     vdW  Elec       q    Type
REMARK                         _______ _______ _______ _____ _____    ______ ____
ROOT
ATOM      1  C   UNL     1       3.863   5.859  19.398  0.00  0.00    +0.000 C 
ENDROOT
BRANCH   1   2
ATOM      2  C   UNL     1       5.196   5.474  18.803  0.00  0.00    +0.000 A 
ATOM      3  C   UNL     1       6.397   5.289  19.469  0.00  0.00    +0.000 A 
ATOM      4  N   UNL     1       7.364   4.987  18.556  0.00  0.00    +0.000 N 
ATOM      5  C   UNL     1       6.832   4.960  17.290  0.00  0.00    +0.000 A 
ATOM      6  C   UNL     1       7.456   4.726  16.058  0.00  0.00    +0.000 A 
ATOM      7  C   UNL     1       6.660   4.757  14.911  0.00  0.00    +0.000 A 
ATOM      8  C   UNL     1       5.291   4.995  14.997  0.00  0.00    +0.000 A 
ATOM      9  C   UNL     1       4.682   5.227  16.237  0.00  0.00    +0.000 A 
ATOM     10  C   UNL     1       5.467   5.227  17.411  0.00  0.00    +0.000 A 
ATOM     11  H   UNL     1       8.337   4.816  18.770  0.00  0.00    +0.000 HD
ENDBRANCH   1   2
BRANCH   1  12
ATOM     12  C   UNL     1       3.206   7.091  18.796  0.00  0.00    +0.000 A 
ATOM     13  C   UNL     1       3.390   7.669  17.548  0.00  0.00    +0.000 A 
ATOM     14  N   UNL     1       2.553   8.740  17.421  0.00  0.00    +0.000 N 
ATOM     15  C   UNL     1       1.796   8.890  18.555  0.00  0.00    +0.000 A 
ATOM     16  C   UNL     1       0.803   9.833  18.851  0.00  0.00    +0.000 A 
ATOM     17  C   UNL     1       0.188   9.757  20.102  0.00  0.00    +0.000 A 
ATOM     18  C   UNL     1       0.559   8.780  21.022  0.00  0.00    +0.000 A 
ATOM     19  C   UNL     1       1.552   7.840  20.705  0.00  0.00    +0.000 A 
ATOM     20  C   UNL     1       2.185   7.886  19.443  0.00  0.00    +0.000 A 
ATOM     21  H   UNL     1       2.485   9.332  16.606  0.00  0.00    +0.000 HD
ENDBRANCH   1  12
BRANCH   1  25
ATOM     22  C   UNL     1       1.249   2.406  18.958  0.00  0.00    +0.000 A 
ATOM     23  C   UNL     1       1.954   2.869  17.854  0.00  0.00    +0.000 A 
ATOM     24  C   UNL     1       2.808   3.968  17.989  0.00  0.00    +0.000 A 
ATOM     25  C   UNL     1       2.956   4.639  19.222  0.00  0.00    +0.000 A 
ATOM     26  C   UNL     1       2.239   4.144  20.329  0.00  0.00    +0.000 A 
ATOM     27  C   UNL     1       1.400   3.033  20.194  0.00  0.00    +0.000 A 
BRANCH  22  28
ATOM     28  O   UNL     1       0.408   1.336  18.844  0.00  0.00    +0.000 OA
ATOM     29  H   UNL     1      -0.015   1.361  17.973  0.00  0.00    +0.000 HD
ENDBRANCH  22  28
BRANCH  27  30
ATOM     30  O   UNL     1       0.718   2.548  21.275  0.00  0.00    +0.000 OA
ATOM     31  H   UNL     1       1.334   2.445  22.015  0.00  0.00    +0.000 HD
ENDBRANCH  27  30
ENDBRANCH   1  25
TORSDOF 5
ENDMDL
MODEL 7
REMARK VINA RESULT:      -8.0      1.317      5.568
REMARK  Name = 
REMARK  5 active torsions:
REMARK  status: ('A' for Active; 'I' for Inactive)
REMARK    1  A    between atoms: O_1  and  C_2
REMARK    2  A    between atoms: C_5  and  C_6
REMARK    3  A    between atoms: C_6  and  C_7
REMARK    4  A    between atoms: C_6  and  C_16
REMARK    5  A    between atoms: C_26  and  O_27
REMARK                            x       y       z     vdW  Elec       q    Type
REMARK                         _______ _______ _______ _____ _____    ______ ____
ROOT
ATOM      1  C   UNL     1       2.615   6.370  17.741  0.00  0.00    +0.000 C 
ENDROOT
BRANCH   1   2
ATOM      2  C   UNL     1       2.240   7.167  18.967  0.00  0.00    +0.000 A 
ATOM      3  C   UNL     1       2.385   6.794  20.294  0.00  0.00    +0.000 A 
ATOM      4  N   UNL     1       1.885   7.786  21.087  0.00  0.00    +0.000 N 
ATOM      5  C   UNL     1       1.413   8.819  20.314  0.00  0.00    +0.000 A 
ATOM      6  C   UNL     1       0.793  10.015  20.697  0.00  0.00    +0.000 A 
ATOM      7  C   UNL     1       0.410  10.900  19.687  0.00  0.00    +0.000 A 
ATOM      8  C   UNL     1       0.656  10.606  18.349  0.00  0.00    +0.000 A 
ATOM      9  C   UNL     1       1.277   9.406  17.983  0.00  0.00    +0.000 A 
ATOM     10  C   UNL     1       1.651   8.480  18.982  0.00  0.00    +0.000 A 
ATOM     11  H   UNL     1       1.853   7.767  22.097  0.00  0.00    +0.000 HD
ENDBRANCH   1   2
BRANCH   1  12
ATOM     12  C   UNL     1       4.050   6.529  17.267  0.00  0.00    +0.000 A 
ATOM     13  C   UNL     1       4.536   7.100  16.099  0.00  0.00    +0.000 A 
ATOM     14  N   UNL     1       5.901   7.064  16.116  0.00  0.00    +0.000 N 
ATOM     15  C   UNL     1       6.349   6.491  17.279  0.00  0.00    +0.000 A 
ATOM     16  C   UNL     1       7.659   6.273  17.723  0.00  0.00    +0.000 A 
ATOM     17  C   UNL     1       7.829   5.656  18.964  0.00  0.00    +0.000 A 
ATOM     18  C   UNL     1       6.730   5.268  19.725  0.00  0.00    +0.000 A 
ATOM     19  C   UNL     1       5.425   5.501  19.266  0.00  0.00    +0.000 A 
ATOM     20  C   UNL     1       5.221   6.132  18.019  0.00  0.00    +0.000 A 
ATOM     21  H   UNL     1       6.501   7.421  15.386  0.00  0.00    +0.000 HD
ENDBRANCH   1  12
BRANCH   1  25
ATOM     22  C   UNL     1       1.761   2.229  18.776  0.00  0.00    +0.000 A 
ATOM     23  C   UNL     1       2.521   2.503  17.646  0.00  0.00    +0.000 A 
ATOM     24  C   UNL     1       2.814   3.830  17.314  0.00  0.00    +0.000 A 
ATOM     25  C   UNL     1       2.334   4.907  18.090  0.00  0.00    +0.000 A 
ATOM     26  C   UNL     1       1.574   4.602  19.237  0.00  0.00    +0.000 A 
ATOM     27  C   UNL     1       1.299   3.273  19.576  0.00  0.00    +0.000 A 
BRANCH  22  28
ATOM     28  O   UNL     1       1.462   0.939  19.114  0.00  0.00    +0.000 OA
ATOM     29  H   UNL     1       2.282   0.425  19.143  0.00  0.00    +0.000 HD
ENDBRANCH  22  28
BRANCH  27  30
ATOM     30  O   UNL     1       0.574   2.983  20.698  0.00  0.00    +0.000 OA
ATOM     31  H   UNL     1      -0.318   3.348  20.599  0.00  0.00    +0.000 HD
ENDBRANCH  27  30
ENDBRANCH   1  25
TORSDOF 5
ENDMDL
MODEL 8
REMARK VINA RESULT:      -8.0      2.963      6.144
REMARK  Name = 
REMARK  5 active torsions:
REMARK  status: ('A' for Active; 'I' for Inactive)
REMARK    1  A    between atoms: O_1  and  C_2
REMARK    2  A    between atoms: C_5  and  C_6
REMARK    3  A    between atoms: C_6  and  C_7
REMARK    4  A    between atoms: C_6  and  C_16
REMARK    5  A    between atoms: C_26  and  O_27
REMARK                            x       y       z     vdW  Elec       q    Type
REMARK                         _______ _______ _______ _____ _____    ______ ____
ROOT
ATOM      1  C   UNL     1       3.323   6.313  18.809  0.00  0.00    +0.000 C 
ENDROOT
BRANCH   1   2
ATOM      2  C   UNL     1       2.660   7.631  18.489  0.00  0.00    +0.000 A 
ATOM      3  C   UNL     1       2.732   8.347  17.305  0.00  0.00    +0.000 A 
ATOM      4  N   UNL     1       2.021   9.504  17.447  0.00  0.00    +0.000 N 
ATOM      5  C   UNL     1       1.470   9.572  18.703  0.00  0.00    +0.000 A 
ATOM      6  C   UNL     1       0.697  10.581  19.291  0.00  0.00    +0.000 A 
ATOM      7  C   UNL     1       0.261  10.384  20.603  0.00  0.00    +0.000 A 
ATOM      8  C   UNL     1       0.571   9.215  21.291  0.00  0.00    +0.000 A 
ATOM      9  C   UNL     1       1.345   8.214  20.689  0.00  0.00    +0.000 A 
ATOM     10  C   UNL     1       1.821   8.398  19.372  0.00  0.00    +0.000 A 
ATOM     11  H   UNL     1       1.918  10.217  16.738  0.00  0.00    +0.000 HD
ENDBRANCH   1   2
BRANCH   1  12
ATOM     12  C   UNL     1       2.411   5.098  18.795  0.00  0.00    +0.000 A 
ATOM     13  C   UNL     1       1.698   4.541  17.742  0.00  0.00    +0.000 A 
ATOM     14  N   UNL     1       1.047   3.424  18.182  0.00  0.00    +0.000 N 
ATOM     15  C   UNL     1       1.315   3.207  19.510  0.00  0.00    +0.000 A 
ATOM     16  C   UNL     1       0.881   2.177  20.354  0.00  0.00    +0.000 A 
ATOM     17  C   UNL     1       1.309   2.204  21.683  0.00  0.00    +0.000 A 
ATOM     18  C   UNL     1       2.132   3.227  22.147  0.00  0.00    +0.000 A 
ATOM     19  C   UNL     1       2.562   4.246  21.284  0.00  0.00    +0.000 A 
ATOM     20  C   UNL     1       2.154   4.240  19.932  0.00  0.00    +0.000 A 
ATOM     21  H   UNL     1       0.462   2.830  17.612  0.00  0.00    +0.000 HD
ENDBRANCH   1  12
BRANCH   1  25
ATOM     22  C   UNL     1       6.550   5.869  15.921  0.00  0.00    +0.000 A 
ATOM     23  C   UNL     1       5.426   5.059  15.813  0.00  0.00    +0.000 A 
ATOM     24  C   UNL     1       4.377   5.205  16.727  0.00  0.00    +0.000 A 
ATOM     25  C   UNL     1       4.441   6.145  17.778  0.00  0.00    +0.000 A 
ATOM     26  C   UNL     1       5.587   6.961  17.859  0.00  0.00    +0.000 A 
ATOM     27  C   UNL     1       6.625   6.825  16.933  0.00  0.00    +0.000 A 
BRANCH  22  28
ATOM     28  O   UNL     1       7.585   5.738  15.039  0.00  0.00    +0.000 OA
ATOM     29  H   UNL     1       7.922   4.831  15.084  0.00  0.00    +0.000 HD
ENDBRANCH  22  28
BRANCH  27  30
ATOM     30  O   UNL     1       7.728   7.631  17.008  0.00  0.00    +0.000 OA
ATOM     31  H   UNL     1       7.569   8.430  16.485  0.00  0.00    +0.000 HD
ENDBRANCH  27  30
ENDBRANCH   1  25
TORSDOF 5
ENDMDL
MODEL 9
REMARK VINA RESULT:      -7.9      1.553      2.283
REMARK  Name = 
REMARK  5 active torsions:
REMARK  status: ('A' for Active; 'I' for Inactive)
REMARK    1  A    between atoms: O_1  and  C_2
REMARK    2  A    between atoms: C_5  and  C_6
REMARK    3  A    between atoms: C_6  and  C_7
REMARK    4  A    between atoms: C_6  and  C_16
REMARK    5  A    between atoms: C_26  and  O_27
REMARK                            x       y       z     vdW  Elec       q    Type
REMARK                         _______ _______ _______ _____ _____    ______ ____
ROOT
ATOM      1  C   UNL     1       4.119   5.804  19.428  0.00  0.00    +0.000 C 
ENDROOT
BRANCH   1   2
ATOM      2  C   UNL     1       5.427   5.515  18.731  0.00  0.00    +0.000 A 
ATOM      3  C   UNL     1       6.706   5.646  19.248  0.00  0.00    +0.000 A 
ATOM      4  N   UNL     1       7.608   5.321  18.276  0.00  0.00    +0.000 N 
ATOM      5  C   UNL     1       6.955   4.970  17.120  0.00  0.00    +0.000 A 
ATOM      6  C   UNL     1       7.474   4.598  15.873  0.00  0.00    +0.000 A 
ATOM      7  C   UNL     1       6.566   4.286  14.859  0.00  0.00    +0.000 A 
ATOM      8  C   UNL     1       5.194   4.328  15.090  0.00  0.00    +0.000 A 
ATOM      9  C   UNL     1       4.691   4.701  16.343  0.00  0.00    +0.000 A 
ATOM     10  C   UNL     1       5.586   5.047  17.380  0.00  0.00    +0.000 A 
ATOM     11  H   UNL     1       8.613   5.343  18.381  0.00  0.00    +0.000 HD
ENDBRANCH   1   2
BRANCH   1  12
ATOM     12  C   UNL     1       3.332   6.984  18.884  0.00  0.00    +0.000 A 
ATOM     13  C   UNL     1       3.388   7.583  17.633  0.00  0.00    +0.000 A 
ATOM     14  N   UNL     1       2.464   8.587  17.573  0.00  0.00    +0.000 N 
ATOM     15  C   UNL     1       1.774   8.671  18.755  0.00  0.00    +0.000 A 
ATOM     16  C   UNL     1       0.733   9.531  19.125  0.00  0.00    +0.000 A 
ATOM     17  C   UNL     1       0.209   9.401  20.413  0.00  0.00    +0.000 A 
ATOM     18  C   UNL     1       0.714   8.450  21.296  0.00  0.00    +0.000 A 
ATOM     19  C   UNL     1       1.753   7.592  20.904  0.00  0.00    +0.000 A 
ATOM     20  C   UNL     1       2.296   7.694  19.605  0.00  0.00    +0.000 A 
ATOM     21  H   UNL     1       2.297   9.176  16.770  0.00  0.00    +0.000 HD
ENDBRANCH   1  12
BRANCH   1  25
ATOM     22  C   UNL     1       1.731   2.184  19.053  0.00  0.00    +0.000 A 
ATOM     23  C   UNL     1       2.928   2.138  19.758  0.00  0.00    +0.000 A 
ATOM     24  C   UNL     1       3.694   3.299  19.897  0.00  0.00    +0.000 A 
ATOM     25  C   UNL     1       3.292   4.521  19.316  0.00  0.00    +0.000 A 
ATOM     26  C   UNL     1       2.070   4.544  18.616  0.00  0.00    +0.000 A 
ATOM     27  C   UNL     1       1.297   3.385  18.494  0.00  0.00    +0.000 A 
BRANCH  22  28
ATOM     28  O   UNL     1       0.972   1.058  18.905  0.00  0.00    +0.000 OA
ATOM     29  H   UNL     1       1.016   0.540  19.722  0.00  0.00    +0.000 HD
ENDBRANCH  22  28
BRANCH  27  30
ATOM     30  O   UNL     1       0.104   3.417  17.826  0.00  0.00    +0.000 OA
ATOM     31  H   UNL     1      -0.040   4.312  17.485  0.00  0.00    +0.000 HD
ENDBRANCH  27  30
ENDBRANCH   1  25
TORSDOF 5
ENDMDL
