MODEL 1
REMARK VINA RESULT:      -8.2      0.000      0.000
REMARK  Name = 
REMARK  9 active torsions:
REMARK  status: ('A' for Active; 'I' for Inactive)
REMARK    1  A    between atoms: C_1  and  C_2
REMARK    2  A    between atoms: N_4  and  C_5
REMARK    3  A    between atoms: C_9  and  N_10
REMARK    4  A    between atoms: C_11  and  C_13
REMARK    5  A    between atoms: C_13  and  S_14
REMARK    6  A    between atoms: S_14  and  C_15
REMARK    7  A    between atoms: N_19  and  C_20
REMARK    8  A    between atoms: C_20  and  C_21
REMARK    9  A    between atoms: C_21  and  N_22
REMARK                            x       y       z     vdW  Elec       q    Type
REMARK                         _______ _______ _______ _____ _____    ______ ____
ROOT
ATOM      1  C   UNL     1       1.005   9.060  20.356  0.00  0.00    +0.000 A 
ATOM      2  N   UNL     1       1.147   8.987  21.632  0.00  0.00    +0.000 NA
ATOM      3  C   UNL     1       0.329   9.750  22.438  0.00  0.00    +0.000 A 
ATOM      4  O   UNL     1       0.377   9.590  23.652  0.00  0.00    +0.000 OA
ATOM      5  N   UNL     1      -0.523  10.707  21.840  0.00  0.00    +0.000 N 
ATOM      6  C   UNL     1      -0.670  10.712  20.467  0.00  0.00    +0.000 A 
ATOM      7  C   UNL     1       0.040   9.909  19.675  0.00  0.00    +0.000 A 
ATOM      8  C   UNL     1      -0.298  10.042  18.239  0.00  0.00    +0.000 C 
ATOM      9  C   UNL     1      -1.106  11.343  18.236  0.00  0.00    +0.000 C 
ATOM     10  C   UNL     1      -1.622  11.543  19.668  0.00  0.00    +0.000 C 
ENDROOT
BRANCH   1  11
ATOM     11  S   UNL     1       2.050   8.125  19.311  0.00  0.00    +0.000 S 
BRANCH  11  12
ATOM     12  C   UNL     1       1.905   6.488  20.085  0.00  0.00    +0.000 C 
BRANCH  12  14
ATOM     13  N   UNL     1       4.021   6.272  18.880  0.00  0.00    +0.000 N 
ATOM     14  C   UNL     1       3.109   5.635  19.717  0.00  0.00    +0.000 C 
ATOM     15  O   UNL     1       3.230   4.507  20.190  0.00  0.00    +0.000 OA
ATOM     16  H   UNL     1       3.845   7.247  18.672  0.00  0.00    +0.000 HD
BRANCH  13  21
ATOM     17  C   UNL     1       6.161   4.465  16.418  0.00  0.00    +0.000 A 
ATOM     18  C   UNL     1       7.389   4.478  17.081  0.00  0.00    +0.000 A 
ATOM     19  C   UNL     1       7.511   5.064  18.334  0.00  0.00    +0.000 A 
ATOM     20  C   UNL     1       6.409   5.661  18.940  0.00  0.00    +0.000 A 
ATOM     21  C   UNL     1       5.172   5.691  18.294  0.00  0.00    +0.000 A 
ATOM     22  C   UNL     1       5.055   5.092  17.026  0.00  0.00    +0.000 A 
BRANCH  17  26
ATOM     23  C   UNL     1       6.121   3.523  12.758  0.00  0.00    +0.000 C 
ATOM     24  C   UNL     1       6.541   4.338  13.954  0.00  0.00    +0.000 C 
ATOM     25  O   UNL     1       7.300   5.292  13.815  0.00  0.00    +0.000 OA
ATOM     26  N   UNL     1       5.996   3.874  15.144  0.00  0.00    +0.000 N 
ATOM     27  H   UNL     1       5.511   2.986  15.111  0.00  0.00    +0.000 HD
ENDBRANCH  17  26
ENDBRANCH  13  21
ENDBRANCH  12  14
ENDBRANCH  11  12
ENDBRANCH   1  11
BRANCH   5  28
ATOM     28  C   UNL     1      -1.395  11.560  22.681  0.00  0.00    +0.000 C 
BRANCH  28  29
ATOM     29  C   UNL     1      -0.874  12.992  22.953  0.00  0.00    +0.000 C 
BRANCH  29  30
ATOM     30  N   UNL     1      -1.779  14.107  22.586  0.00  0.00    +0.000 NA
ATOM     31  C   UNL     1      -1.463  15.399  23.226  0.00  0.00    +0.000 C 
ATOM     32  C   UNL     1      -1.718  15.418  24.740  0.00  0.00    +0.000 C 
ATOM     33  O   UNL     1      -3.080  15.087  25.039  0.00  0.00    +0.000 OA
ATOM     34  C   UNL     1      -3.438  13.814  24.484  0.00  0.00    +0.000 C 
ATOM     35  C   UNL     1      -3.175  13.759  22.966  0.00  0.00    +0.000 C 
ENDBRANCH  29  30
ENDBRANCH  28  29
ENDBRANCH   5  28
TORSDOF 8
ENDMDL
MODEL 2
REMARK VINA RESULT:      -7.9      2.948      3.851
REMARK  Name = 
REMARK  9 active torsions:
REMARK  status: ('A' for Active; 'I' for Inactive)
REMARK    1  A    between atoms: C_1  and  C_2
REMARK    2  A    between atoms: N_4  and  C_5
REMARK    3  A    between atoms: C_9  and  N_10
REMARK    4  A    between atoms: C_11  and  C_13
REMARK    5  A    between atoms: C_13  and  S_14
REMARK    6  A    between atoms: S_14  and  C_15
REMARK    7  A    between atoms: N_19  and  C_20
REMARK    8  A    between atoms: C_20  and  C_21
REMARK    9  A    between atoms: C_21  and  N_22
REMARK                            x       y       z     vdW  Elec       q    Type
REMARK                         _______ _______ _______ _____ _____    ______ ____
ROOT
ATOM      1  C   UNL     1       1.476   8.163  20.398  0.00  0.00    +0.000 A 
ATOM      2  N   UNL     1       1.803   8.387  19.174  0.00  0.00    +0.000 NA
ATOM      3  C   UNL     1       1.486   9.604  18.611  0.00  0.00    +0.000 A 
ATOM      4  O   UNL     1       1.905   9.866  17.489  0.00  0.00    +0.000 OA
ATOM      5  N   UNL     1       0.670  10.503  19.337  0.00  0.00    +0.000 N 
ATOM      6  C   UNL     1       0.386  10.234  20.661  0.00  0.00    +0.000 A 
ATOM      7  C   UNL     1       0.772   9.105  21.255  0.00  0.00    +0.000 A 
ATOM      8  C   UNL     1       0.402   9.032  22.686  0.00  0.00    +0.000 C 
ATOM      9  C   UNL     1      -0.610  10.175  22.800  0.00  0.00    +0.000 C 
ATOM     10  C   UNL     1      -0.333  11.124  21.625  0.00  0.00    +0.000 C 
ENDROOT
BRANCH   1  11
ATOM     11  S   UNL     1       1.841   6.616  21.126  0.00  0.00    +0.000 S 
BRANCH  11  12
ATOM     12  C   UNL     1       1.665   5.528  19.683  0.00  0.00    +0.000 C 
BRANCH  12  14
ATOM     13  N   UNL     1       3.791   5.659  18.483  0.00  0.00    +0.000 N 
ATOM     14  C   UNL     1       3.007   4.898  19.345  0.00  0.00    +0.000 C 
ATOM     15  O   UNL     1       3.333   3.830  19.862  0.00  0.00    +0.000 OA
ATOM     16  H   UNL     1       3.438   6.576  18.237  0.00  0.00    +0.000 HD
BRANCH  13  21
ATOM     17  C   UNL     1       6.247   4.282  16.037  0.00  0.00    +0.000 A 
ATOM     18  C   UNL     1       7.440   4.456  16.740  0.00  0.00    +0.000 A 
ATOM     19  C   UNL     1       7.436   5.009  18.015  0.00  0.00    +0.000 A 
ATOM     20  C   UNL     1       6.241   5.411  18.602  0.00  0.00    +0.000 A 
ATOM     21  C   UNL     1       5.032   5.278  17.916  0.00  0.00    +0.000 A 
ATOM     22  C   UNL     1       5.042   4.714  16.628  0.00  0.00    +0.000 A 
BRANCH  17  26
ATOM     23  C   UNL     1       6.476   3.467  12.354  0.00  0.00    +0.000 C 
ATOM     24  C   UNL     1       6.742   4.285  13.591  0.00  0.00    +0.000 C 
ATOM     25  O   UNL     1       7.385   5.327  13.514  0.00  0.00    +0.000 OA
ATOM     26  N   UNL     1       6.208   3.719  14.741  0.00  0.00    +0.000 N 
ATOM     27  H   UNL     1       5.837   2.781  14.660  0.00  0.00    +0.000 HD
ENDBRANCH  17  26
ENDBRANCH  13  21
ENDBRANCH  12  14
ENDBRANCH  11  12
ENDBRANCH   1  11
BRANCH   5  28
ATOM     28  C   UNL     1       0.290  11.810  18.748  0.00  0.00    +0.000 C 
BRANCH  28  29
ATOM     29  C   UNL     1       0.945  13.054  19.396  0.00  0.00    +0.000 C 
BRANCH  29  30
ATOM     30  N   UNL     1       2.421  13.030  19.532  0.00  0.00    +0.000 NA
ATOM     31  C   UNL     1       2.957  13.869  20.621  0.00  0.00    +0.000 C 
ATOM     32  C   UNL     1       2.798  15.376  20.376  0.00  0.00    +0.000 C 
ATOM     33  O   UNL     1       3.428  15.770  19.150  0.00  0.00    +0.000 OA
ATOM     34  C   UNL     1       2.915  15.023  18.040  0.00  0.00    +0.000 C 
ATOM     35  C   UNL     1       3.044  13.503  18.266  0.00  0.00    +0.000 C 
ENDBRANCH  29  30
ENDBRANCH  28  29
ENDBRANCH   5  28
TORSDOF 8
ENDMDL
MODEL 3
REMARK VINA RESULT:      -7.8      3.624      4.540
REMARK  Name = 
REMARK  9 active torsions:
REMARK  status: ('A' for Active; 'I' for Inactive)
REMARK    1  A    between atoms: C_1  and  C_2
REMARK    2  A    between atoms: N_4  and  C_5
REMARK    3  A    between atoms: C_9  and  N_10
REMARK    4  A    between atoms: C_11  and  C_13
REMARK    5  A    between atoms: C_13  and  S_14
REMARK    6  A    between atoms: S_14  and  C_15
REMARK    7  A    between atoms: N_19  and  C_20
REMARK    8  A    between atoms: C_20  and  C_21
REMARK    9  A    between atoms: C_21  and  N_22
REMARK                            x       y       z     vdW  Elec       q    Type
REMARK                         _______ _______ _______ _____ _____    ______ ____
ROOT
ATOM      1  C   UNL     1      -0.248  10.563  21.187  0.00  0.00    +0.000 A 
ATOM      2  N   UNL     1       0.239  11.480  21.945  0.00  0.00    +0.000 NA
ATOM      3  C   UNL     1       0.193  12.791  21.520  0.00  0.00    +0.000 A 
ATOM      4  O   UNL     1       0.542  13.677  22.292  0.00  0.00    +0.000 OA
ATOM      5  N   UNL     1      -0.235  13.069  20.202  0.00  0.00    +0.000 N 
ATOM      6  C   UNL     1      -0.789  12.054  19.446  0.00  0.00    +0.000 A 
ATOM      7  C   UNL     1      -0.847  10.796  19.881  0.00  0.00    +0.000 A 
ATOM      8  C   UNL     1      -1.516   9.872  18.937  0.00  0.00    +0.000 C 
ATOM      9  C   UNL     1      -1.554  10.716  17.660  0.00  0.00    +0.000 C 
ATOM     10  C   UNL     1      -1.424  12.181  18.098  0.00  0.00    +0.000 C 
ENDROOT
BRANCH   1  11
ATOM     11  S   UNL     1      -0.174   8.890  21.690  0.00  0.00    +0.000 S 
BRANCH  11  12
ATOM     12  C   UNL     1       1.602   8.567  21.486  0.00  0.00    +0.000 C 
BRANCH  12  14
ATOM     13  N   UNL     1       1.999   6.371  20.490  0.00  0.00    +0.000 N 
ATOM     14  C   UNL     1       1.834   7.730  20.239  0.00  0.00    +0.000 C 
ATOM     15  O   UNL     1       1.817   8.261  19.130  0.00  0.00    +0.000 OA
ATOM     16  H   UNL     1       1.866   6.065  21.446  0.00  0.00    +0.000 HD
BRANCH  13  21
ATOM     17  C   UNL     1       4.020   4.384  18.065  0.00  0.00    +0.000 A 
ATOM     18  C   UNL     1       3.068   3.463  17.625  0.00  0.00    +0.000 A 
ATOM     19  C   UNL     1       1.767   3.502  18.112  0.00  0.00    +0.000 A 
ATOM     20  C   UNL     1       1.400   4.455  19.058  0.00  0.00    +0.000 A 
ATOM     21  C   UNL     1       2.334   5.374  19.540  0.00  0.00    +0.000 A 
ATOM     22  C   UNL     1       3.648   5.331  19.040  0.00  0.00    +0.000 A 
BRANCH  17  26
ATOM     23  C   UNL     1       7.279   4.809  16.199  0.00  0.00    +0.000 C 
ATOM     24  C   UNL     1       5.824   5.076  16.485  0.00  0.00    +0.000 C 
ATOM     25  O   UNL     1       5.189   5.853  15.778  0.00  0.00    +0.000 OA
ATOM     26  N   UNL     1       5.352   4.380  17.589  0.00  0.00    +0.000 N 
ATOM     27  H   UNL     1       6.038   3.898  18.156  0.00  0.00    +0.000 HD
ENDBRANCH  17  26
ENDBRANCH  13  21
ENDBRANCH  12  14
ENDBRANCH  11  12
ENDBRANCH   1  11
BRANCH   5  28
ATOM     28  C   UNL     1      -0.271  14.466  19.706  0.00  0.00    +0.000 C 
BRANCH  28  29
ATOM     29  C   UNL     1       0.944  14.909  18.855  0.00  0.00    +0.000 C 
BRANCH  29  30
ATOM     30  N   UNL     1       1.741  16.043  19.381  0.00  0.00    +0.000 NA
ATOM     31  C   UNL     1       1.229  17.380  19.024  0.00  0.00    +0.000 C 
ATOM     32  C   UNL     1       1.358  17.712  17.531  0.00  0.00    +0.000 C 
ATOM     33  O   UNL     1       2.721  17.620  17.096  0.00  0.00    +0.000 OA
ATOM     34  C   UNL     1       3.266  16.323  17.372  0.00  0.00    +0.000 C 
ATOM     35  C   UNL     1       3.134  15.953  18.863  0.00  0.00    +0.000 C 
ENDBRANCH  29  30
ENDBRANCH  28  29
ENDBRANCH   5  28
TORSDOF 8
ENDMDL
MODEL 4
REMARK VINA RESULT:      -7.5      5.591      9.235
REMARK  Name = 
REMARK  9 active torsions:
REMARK  status: ('A' for Active; 'I' for Inactive)
REMARK    1  A    between atoms: C_1  and  C_2
REMARK    2  A    between atoms: N_4  and  C_5
REMARK    3  A    between atoms: C_9  and  N_10
REMARK    4  A    between atoms: C_11  and  C_13
REMARK    5  A    between atoms: C_13  and  S_14
REMARK    6  A    between atoms: S_14  and  C_15
REMARK    7  A    between atoms: N_19  and  C_20
REMARK    8  A    between atoms: C_20  and  C_21
REMARK    9  A    between atoms: C_21  and  N_22
REMARK                            x       y       z     vdW  Elec       q    Type
REMARK                         _______ _______ _______ _____ _____    ______ ____
ROOT
ATOM      1  C   UNL     1       1.201  11.084  19.317  0.00  0.00    +0.000 A 
ATOM      2  N   UNL     1       1.751  10.590  18.265  0.00  0.00    +0.000 NA
ATOM      3  C   UNL     1       1.942   9.227  18.189  0.00  0.00    +0.000 A 
ATOM      4  O   UNL     1       2.349   8.743  17.139  0.00  0.00    +0.000 OA
ATOM      5  N   UNL     1       1.682   8.434  19.330  0.00  0.00    +0.000 N 
ATOM      6  C   UNL     1       1.051   9.006  20.417  0.00  0.00    +0.000 A 
ATOM      7  C   UNL     1       0.765  10.307  20.468  0.00  0.00    +0.000 A 
ATOM      8  C   UNL     1       0.052  10.710  21.702  0.00  0.00    +0.000 C 
ATOM      9  C   UNL     1       0.257   9.479  22.589  0.00  0.00    +0.000 C 
ATOM     10  C   UNL     1       0.567   8.307  21.647  0.00  0.00    +0.000 C 
ENDROOT
BRANCH   1  11
ATOM     11  S   UNL     1       0.976  12.812  19.451  0.00  0.00    +0.000 S 
BRANCH  11  12
ATOM     12  C   UNL     1       2.055  13.386  18.108  0.00  0.00    +0.000 C 
BRANCH  12  14
ATOM     13  N   UNL     1       4.226  14.449  17.745  0.00  0.00    +0.000 N 
ATOM     14  C   UNL     1       3.262  14.107  18.688  0.00  0.00    +0.000 C 
ATOM     15  O   UNL     1       3.298  14.378  19.887  0.00  0.00    +0.000 OA
ATOM     16  H   UNL     1       3.999  14.267  16.775  0.00  0.00    +0.000 HD
BRANCH  13  21
ATOM     17  C   UNL     1       7.932  14.844  17.886  0.00  0.00    +0.000 A 
ATOM     18  C   UNL     1       8.038  16.078  18.530  0.00  0.00    +0.000 A 
ATOM     19  C   UNL     1       6.900  16.769  18.927  0.00  0.00    +0.000 A 
ATOM     20  C   UNL     1       5.636  16.245  18.674  0.00  0.00    +0.000 A 
ATOM     21  C   UNL     1       5.492  15.027  18.007  0.00  0.00    +0.000 A 
ATOM     22  C   UNL     1       6.649  14.331  17.611  0.00  0.00    +0.000 A 
BRANCH  17  26
ATOM     23  C   UNL     1      10.907  12.547  17.499  0.00  0.00    +0.000 C 
ATOM     24  C   UNL     1       9.677  13.086  18.183  0.00  0.00    +0.000 C 
ATOM     25  O   UNL     1       9.308  12.610  19.252  0.00  0.00    +0.000 OA
ATOM     26  N   UNL     1       9.066  14.108  17.471  0.00  0.00    +0.000 N 
ATOM     27  H   UNL     1       9.407  14.283  16.534  0.00  0.00    +0.000 HD
ENDBRANCH  17  26
ENDBRANCH  13  21
ENDBRANCH  12  14
ENDBRANCH  11  12
ENDBRANCH   1  11
BRANCH   5  28
ATOM     28  C   UNL     1       1.902   6.969  19.289  0.00  0.00    +0.000 C 
BRANCH  28  29
ATOM     29  C   UNL     1       3.381   6.511  19.280  0.00  0.00    +0.000 C 
BRANCH  29  30
ATOM     30  N   UNL     1       3.847   5.802  18.065  0.00  0.00    +0.000 NA
ATOM     31  C   UNL     1       3.786   4.330  18.144  0.00  0.00    +0.000 C 
ATOM     32  C   UNL     1       4.789   3.722  19.135  0.00  0.00    +0.000 C 
ATOM     33  O   UNL     1       6.133   4.101  18.808  0.00  0.00    +0.000 OA
ATOM     34  C   UNL     1       6.272   5.527  18.762  0.00  0.00    +0.000 C 
ATOM     35  C   UNL     1       5.263   6.168  17.788  0.00  0.00    +0.000 C 
ENDBRANCH  29  30
ENDBRANCH  28  29
ENDBRANCH   5  28
TORSDOF 8
ENDMDL
MODEL 5
REMARK VINA RESULT:      -7.5      2.916      4.041
REMARK  Name = 
REMARK  9 active torsions:
REMARK  status: ('A' for Active; 'I' for Inactive)
REMARK    1  A    between atoms: C_1  and  C_2
REMARK    2  A    between atoms: N_4  and  C_5
REMARK    3  A    between atoms: C_9  and  N_10
REMARK    4  A    between atoms: C_11  and  C_13
REMARK    5  A    between atoms: C_13  and  S_14
REMARK    6  A    between atoms: S_14  and  C_15
REMARK    7  A    between atoms: N_19  and  C_20
REMARK    8  A    between atoms: C_20  and  C_21
REMARK    9  A    between atoms: C_21  and  N_22
REMARK                            x       y       z     vdW  Elec       q    Type
REMARK                         _______ _______ _______ _____ _____    ______ ____
ROOT
ATOM      1  C   UNL     1      -0.852  10.931  19.153  0.00  0.00    +0.000 A 
ATOM      2  N   UNL     1      -0.622  11.517  20.274  0.00  0.00    +0.000 NA
ATOM      3  C   UNL     1      -1.625  12.263  20.855  0.00  0.00    +0.000 A 
ATOM      4  O   UNL     1      -1.450  12.718  21.980  0.00  0.00    +0.000 OA
ATOM      5  N   UNL     1      -2.814  12.496  20.127  0.00  0.00    +0.000 N 
ATOM      6  C   UNL     1      -3.029  11.807  18.950  0.00  0.00    +0.000 A 
ATOM      7  C   UNL     1      -2.108  11.000  18.422  0.00  0.00    +0.000 A 
ATOM      8  C   UNL     1      -2.552  10.326  17.181  0.00  0.00    +0.000 C 
ATOM      9  C   UNL     1      -3.801  11.136  16.824  0.00  0.00    +0.000 C 
ATOM     10  C   UNL     1      -4.273  11.810  18.120  0.00  0.00    +0.000 C 
ENDROOT
BRANCH   1  11
ATOM     11  S   UNL     1       0.414  10.005  18.381  0.00  0.00    +0.000 S 
BRANCH  11  12
ATOM     12  C   UNL     1       1.150   9.189  19.827  0.00  0.00    +0.000 C 
BRANCH  12  14
ATOM     13  N   UNL     1       1.772   6.877  20.319  0.00  0.00    +0.000 N 
ATOM     14  C   UNL     1       1.859   7.915  19.396  0.00  0.00    +0.000 C 
ATOM     15  O   UNL     1       2.402   7.857  18.294  0.00  0.00    +0.000 OA
ATOM     16  H   UNL     1       1.186   7.036  21.129  0.00  0.00    +0.000 HD
BRANCH  13  21
ATOM     17  C   UNL     1       4.395   4.335  19.566  0.00  0.00    +0.000 A 
ATOM     18  C   UNL     1       3.756   3.168  19.992  0.00  0.00    +0.000 A 
ATOM     19  C   UNL     1       2.468   3.215  20.509  0.00  0.00    +0.000 A 
ATOM     20  C   UNL     1       1.802   4.431  20.625  0.00  0.00    +0.000 A 
ATOM     21  C   UNL     1       2.420   5.620  20.235  0.00  0.00    +0.000 A 
ATOM     22  C   UNL     1       3.723   5.566  19.708  0.00  0.00    +0.000 A 
BRANCH  17  26
ATOM     23  C   UNL     1       7.521   4.501  17.450  0.00  0.00    +0.000 C 
ATOM     24  C   UNL     1       6.052   4.680  17.732  0.00  0.00    +0.000 C 
ATOM     25  O   UNL     1       5.304   5.111  16.860  0.00  0.00    +0.000 OA
ATOM     26  N   UNL     1       5.703   4.328  19.029  0.00  0.00    +0.000 N 
ATOM     27  H   UNL     1       6.460   4.135  19.672  0.00  0.00    +0.000 HD
ENDBRANCH  17  26
ENDBRANCH  13  21
ENDBRANCH  12  14
ENDBRANCH  11  12
ENDBRANCH   1  11
BRANCH   5  28
ATOM     28  C   UNL     1      -3.902  13.315  20.714  0.00  0.00    +0.000 C 
BRANCH  28  29
ATOM     29  C   UNL     1      -5.066  12.523  21.359  0.00  0.00    +0.000 C 
BRANCH  29  30
ATOM     30  N   UNL     1      -6.266  13.305  21.741  0.00  0.00    +0.000 NA
ATOM     31  C   UNL     1      -6.401  13.568  23.187  0.00  0.00    +0.000 C 
ATOM     32  C   UNL     1      -6.701  12.312  24.017  0.00  0.00    +0.000 C 
ATOM     33  O   UNL     1      -7.897  11.664  23.562  0.00  0.00    +0.000 OA
ATOM     34  C   UNL     1      -7.811  11.337  22.169  0.00  0.00    +0.000 C 
ATOM     35  C   UNL     1      -7.491  12.577  21.310  0.00  0.00    +0.000 C 
ENDBRANCH  29  30
ENDBRANCH  28  29
ENDBRANCH   5  28
TORSDOF 8
ENDMDL
MODEL 6
REMARK VINA RESULT:      -7.4      4.294      5.517
REMARK  Name = 
REMARK  9 active torsions:
REMARK  status: ('A' for Active; 'I' for Inactive)
REMARK    1  A    between atoms: C_1  and  C_2
REMARK    2  A    between atoms: N_4  and  C_5
REMARK    3  A    between atoms: C_9  and  N_10
REMARK    4  A    between atoms: C_11  and  C_13
REMARK    5  A    between atoms: C_13  and  S_14
REMARK    6  A    between atoms: S_14  and  C_15
REMARK    7  A    between atoms: N_19  and  C_20
REMARK    8  A    between atoms: C_20  and  C_21
REMARK    9  A    between atoms: C_21  and  N_22
REMARK                            x       y       z     vdW  Elec       q    Type
REMARK                         _______ _______ _______ _____ _____    ______ ____
ROOT
ATOM      1  C   UNL     1       0.571  11.075  20.166  0.00  0.00    +0.000 A 
ATOM      2  N   UNL     1       1.335  11.288  19.154  0.00  0.00    +0.000 NA
ATOM      3  C   UNL     1       1.854  12.550  18.964  0.00  0.00    +0.000 A 
ATOM      4  O   UNL     1       2.679  12.725  18.075  0.00  0.00    +0.000 OA
ATOM      5  N   UNL     1       1.402  13.608  19.787  0.00  0.00    +0.000 N 
ATOM      6  C   UNL     1       0.617  13.317  20.885  0.00  0.00    +0.000 A 
ATOM      7  C   UNL     1       0.188  12.083  21.144  0.00  0.00    +0.000 A 
ATOM      8  C   UNL     1      -0.604  11.979  22.391  0.00  0.00    +0.000 C 
ATOM      9  C   UNL     1      -0.900  13.452  22.688  0.00  0.00    +0.000 C 
ATOM     10  C   UNL     1       0.164  14.272  21.944  0.00  0.00    +0.000 C 
ENDROOT
BRANCH   1  11
ATOM     11  S   UNL     1      -0.124   9.490  20.413  0.00  0.00    +0.000 S 
BRANCH  11  12
ATOM     12  C   UNL     1       1.277   8.638  21.194  0.00  0.00    +0.000 C 
BRANCH  12  14
ATOM     13  N   UNL     1       1.826   6.288  20.807  0.00  0.00    +0.000 N 
ATOM     14  C   UNL     1       1.816   7.567  20.259  0.00  0.00    +0.000 C 
ATOM     15  O   UNL     1       2.151   7.863  19.113  0.00  0.00    +0.000 OA
ATOM     16  H   UNL     1       1.404   6.181  21.721  0.00  0.00    +0.000 HD
BRANCH  13  21
ATOM     17  C   UNL     1       4.289   4.011  19.176  0.00  0.00    +0.000 A 
ATOM     18  C   UNL     1       3.505   2.873  18.985  0.00  0.00    +0.000 A 
ATOM     19  C   UNL     1       2.172   2.857  19.377  0.00  0.00    +0.000 A 
ATOM     20  C   UNL     1       1.605   3.975  19.980  0.00  0.00    +0.000 A 
ATOM     21  C   UNL     1       2.368   5.122  20.212  0.00  0.00    +0.000 A 
ATOM     22  C   UNL     1       3.716   5.132  19.809  0.00  0.00    +0.000 A 
BRANCH  17  26
ATOM     23  C   UNL     1       7.627   4.496  17.471  0.00  0.00    +0.000 C 
ATOM     24  C   UNL     1       6.139   4.665  17.632  0.00  0.00    +0.000 C 
ATOM     25  O   UNL     1       5.495   5.291  16.796  0.00  0.00    +0.000 OA
ATOM     26  N   UNL     1       5.647   4.068  18.786  0.00  0.00    +0.000 N 
ATOM     27  H   UNL     1       6.329   3.721  19.448  0.00  0.00    +0.000 HD
ENDBRANCH  17  26
ENDBRANCH  13  21
ENDBRANCH  12  14
ENDBRANCH  11  12
ENDBRANCH   1  11
BRANCH   5  28
ATOM     28  C   UNL     1       1.921  14.983  19.590  0.00  0.00    +0.000 C 
BRANCH  28  29
ATOM     29  C   UNL     1       3.271  15.296  20.282  0.00  0.00    +0.000 C 
BRANCH  29  30
ATOM     30  N   UNL     1       4.092  16.370  19.675  0.00  0.00    +0.000 NA
ATOM     31  C   UNL     1       4.397  16.184  18.243  0.00  0.00    +0.000 C 
ATOM     32  C   UNL     1       5.351  15.014  17.962  0.00  0.00    +0.000 C 
ATOM     33  O   UNL     1       6.587  15.172  18.671  0.00  0.00    +0.000 OA
ATOM     34  C   UNL     1       6.362  15.311  20.080  0.00  0.00    +0.000 C 
ATOM     35  C   UNL     1       5.392  16.468  20.392  0.00  0.00    +0.000 C 
ENDBRANCH  29  30
ENDBRANCH  28  29
ENDBRANCH   5  28
TORSDOF 8
ENDMDL
MODEL 7
REMARK VINA RESULT:      -7.4      3.145     10.917
REMARK  Name = 
REMARK  9 active torsions:
REMARK  status: ('A' for Active; 'I' for Inactive)
REMARK    1  A    between atoms: C_1  and  C_2
REMARK    2  A    between atoms: N_4  and  C_5
REMARK    3  A    between atoms: C_9  and  N_10
REMARK    4  A    between atoms: C_11  and  C_13
REMARK    5  A    between atoms: C_13  and  S_14
REMARK    6  A    between atoms: S_14  and  C_15
REMARK    7  A    between atoms: N_19  and  C_20
REMARK    8  A    between atoms: C_20  and  C_21
REMARK    9  A    between atoms: C_21  and  N_22
REMARK                            x       y       z     vdW  Elec       q    Type
REMARK                         _______ _______ _______ _____ _____    ______ ____
ROOT
ATOM      1  C   UNL     1       1.490   8.090  20.006  0.00  0.00    +0.000 A 
ATOM      2  N   UNL     1       1.834   8.849  19.027  0.00  0.00    +0.000 NA
ATOM      3  C   UNL     1       2.602   8.321  18.012  0.00  0.00    +0.000 A 
ATOM      4  O   UNL     1       2.826   9.006  17.021  0.00  0.00    +0.000 OA
ATOM      5  N   UNL     1       3.125   7.016  18.157  0.00  0.00    +0.000 N 
ATOM      6  C   UNL     1       2.688   6.228  19.204  0.00  0.00    +0.000 A 
ATOM      7  C   UNL     1       1.862   6.690  20.142  0.00  0.00    +0.000 A 
ATOM      8  C   UNL     1       1.484   5.674  21.151  0.00  0.00    +0.000 C 
ATOM      9  C   UNL     1       2.512   4.574  20.877  0.00  0.00    +0.000 C 
ATOM     10  C   UNL     1       3.011   4.787  19.441  0.00  0.00    +0.000 C 
ENDROOT
BRANCH   1  11
ATOM     11  S   UNL     1       0.541   8.744  21.321  0.00  0.00    +0.000 S 
BRANCH  11  12
ATOM     12  C   UNL     1       0.539  10.505  20.878  0.00  0.00    +0.000 C 
BRANCH  12  14
ATOM     13  N   UNL     1      -0.875  10.246  18.901  0.00  0.00    +0.000 N 
ATOM     14  C   UNL     1      -0.748  10.852  20.147  0.00  0.00    +0.000 C 
ATOM     15  O   UNL     1      -1.586  11.572  20.687  0.00  0.00    +0.000 OA
ATOM     16  H   UNL     1      -0.156   9.581  18.643  0.00  0.00    +0.000 HD
BRANCH  13  21
ATOM     17  C   UNL     1      -4.051  11.530  17.427  0.00  0.00    +0.000 A 
ATOM     18  C   UNL     1      -4.019  10.923  16.171  0.00  0.00    +0.000 A 
ATOM     19  C   UNL     1      -2.969  10.087  15.815  0.00  0.00    +0.000 A 
ATOM     20  C   UNL     1      -1.924   9.855  16.704  0.00  0.00    +0.000 A 
ATOM     21  C   UNL     1      -1.909  10.468  17.959  0.00  0.00    +0.000 A 
ATOM     22  C   UNL     1      -2.978  11.310  18.314  0.00  0.00    +0.000 A 
BRANCH  17  26
ATOM     23  C   UNL     1      -7.293  13.137  18.519  0.00  0.00    +0.000 C 
ATOM     24  C   UNL     1      -6.376  11.980  18.214  0.00  0.00    +0.000 C 
ATOM     25  O   UNL     1      -6.779  10.827  18.331  0.00  0.00    +0.000 OA
ATOM     26  N   UNL     1      -5.105  12.383  17.829  0.00  0.00    +0.000 N 
ATOM     27  H   UNL     1      -4.886  13.366  17.928  0.00  0.00    +0.000 HD
ENDBRANCH  17  26
ENDBRANCH  13  21
ENDBRANCH  12  14
ENDBRANCH  11  12
ENDBRANCH   1  11
BRANCH   5  28
ATOM     28  C   UNL     1       3.976   6.429  17.094  0.00  0.00    +0.000 C 
BRANCH  28  29
ATOM     29  C   UNL     1       5.457   6.189  17.476  0.00  0.00    +0.000 C 
BRANCH  29  30
ATOM     30  N   UNL     1       5.921   4.781  17.475  0.00  0.00    +0.000 NA
ATOM     31  C   UNL     1       7.329   4.592  17.074  0.00  0.00    +0.000 C 
ATOM     32  C   UNL     1       7.597   4.898  15.594  0.00  0.00    +0.000 C 
ATOM     33  O   UNL     1       6.773   4.091  14.742  0.00  0.00    +0.000 OA
ATOM     34  C   UNL     1       5.383   4.266  15.048  0.00  0.00    +0.000 C 
ATOM     35  C   UNL     1       5.087   3.984  16.535  0.00  0.00    +0.000 C 
ENDBRANCH  29  30
ENDBRANCH  28  29
ENDBRANCH   5  28
TORSDOF 8
ENDMDL
MODEL 8
REMARK VINA RESULT:      -7.3      2.294     11.552
REMARK  Name = 
REMARK  9 active torsions:
REMARK  status: ('A' for Active; 'I' for Inactive)
REMARK    1  A    between atoms: C_1  and  C_2
REMARK    2  A    between atoms: N_4  and  C_5
REMARK    3  A    between atoms: C_9  and  N_10
REMARK    4  A    between atoms: C_11  and  C_13
REMARK    5  A    between atoms: C_13  and  S_14
REMARK    6  A    between atoms: S_14  and  C_15
REMARK    7  A    between atoms: N_19  and  C_20
REMARK    8  A    between atoms: C_20  and  C_21
REMARK    9  A    between atoms: C_21  and  N_22
REMARK                            x       y       z     vdW  Elec       q    Type
REMARK                         _______ _______ _______ _____ _____    ______ ____
ROOT
ATOM      1  C   UNL     1       1.837   6.991  20.183  0.00  0.00    +0.000 A 
ATOM      2  N   UNL     1       2.300   7.773  19.274  0.00  0.00    +0.000 NA
ATOM      3  C   UNL     1       2.985   7.227  18.210  0.00  0.00    +0.000 A 
ATOM      4  O   UNL     1       3.318   7.956  17.282  0.00  0.00    +0.000 OA
ATOM      5  N   UNL     1       3.299   5.849  18.232  0.00  0.00    +0.000 N 
ATOM      6  C   UNL     1       2.740   5.047  19.207  0.00  0.00    +0.000 A 
ATOM      7  C   UNL     1       1.989   5.544  20.189  0.00  0.00    +0.000 A 
ATOM      8  C   UNL     1       1.452   4.512  21.106  0.00  0.00    +0.000 C 
ATOM      9  C   UNL     1       2.301   3.295  20.726  0.00  0.00    +0.000 C 
ATOM     10  C   UNL     1       2.836   3.558  19.311  0.00  0.00    +0.000 C 
ENDROOT
BRANCH   1  11
ATOM     11  S   UNL     1       0.991   7.662  21.559  0.00  0.00    +0.000 S 
BRANCH  11  12
ATOM     12  C   UNL     1       0.577   9.308  20.915  0.00  0.00    +0.000 C 
BRANCH  12  14
ATOM     13  N   UNL     1      -0.809  11.195  21.620  0.00  0.00    +0.000 N 
ATOM     14  C   UNL     1       0.053  10.186  22.041  0.00  0.00    +0.000 C 
ATOM     15  O   UNL     1       0.364   9.942  23.205  0.00  0.00    +0.000 OA
ATOM     16  H   UNL     1      -1.066  11.194  20.641  0.00  0.00    +0.000 HD
BRANCH  13  21
ATOM     17  C   UNL     1      -3.292  13.093  23.655  0.00  0.00    +0.000 A 
ATOM     18  C   UNL     1      -2.544  14.223  23.990  0.00  0.00    +0.000 A 
ATOM     19  C   UNL     1      -1.238  14.367  23.540  0.00  0.00    +0.000 A 
ATOM     20  C   UNL     1      -0.652  13.376  22.759  0.00  0.00    +0.000 A 
ATOM     21  C   UNL     1      -1.361  12.220  22.427  0.00  0.00    +0.000 A 
ATOM     22  C   UNL     1      -2.684  12.082  22.884  0.00  0.00    +0.000 A 
BRANCH  17  26
ATOM     23  C   UNL     1      -7.040  12.936  24.113  0.00  0.00    +0.000 C 
ATOM     24  C   UNL     1      -5.767  13.165  23.341  0.00  0.00    +0.000 C 
ATOM     25  O   UNL     1      -5.813  13.525  22.169  0.00  0.00    +0.000 OA
ATOM     26  N   UNL     1      -4.625  12.912  24.090  0.00  0.00    +0.000 N 
ATOM     27  H   UNL     1      -4.757  12.477  24.994  0.00  0.00    +0.000 HD
ENDBRANCH  17  26
ENDBRANCH  13  21
ENDBRANCH  12  14
ENDBRANCH  11  12
ENDBRANCH   1  11
BRANCH   5  28
ATOM     28  C   UNL     1       4.057   5.236  17.114  0.00  0.00    +0.000 C 
BRANCH  28  29
ATOM     29  C   UNL     1       5.278   4.376  17.523  0.00  0.00    +0.000 C 
BRANCH  29  30
ATOM     30  N   UNL     1       6.559   4.681  16.844  0.00  0.00    +0.000 NA
ATOM     31  C   UNL     1       7.759   4.539  17.691  0.00  0.00    +0.000 C 
ATOM     32  C   UNL     1       7.859   5.594  18.802  0.00  0.00    +0.000 C 
ATOM     33  O   UNL     1       7.844   6.921  18.258  0.00  0.00    +0.000 OA
ATOM     34  C   UNL     1       6.674   7.140  17.460  0.00  0.00    +0.000 C 
ATOM     35  C   UNL     1       6.536   6.083  16.346  0.00  0.00    +0.000 C 
ENDBRANCH  29  30
ENDBRANCH  28  29
ENDBRANCH   5  28
TORSDOF 8
ENDMDL
MODEL 9
REMARK VINA RESULT:      -7.3      2.521      3.435
REMARK  Name = 
REMARK  9 active torsions:
REMARK  status: ('A' for Active; 'I' for Inactive)
REMARK    1  A    between atoms: C_1  and  C_2
REMARK    2  A    between atoms: N_4  and  C_5
REMARK    3  A    between atoms: C_9  and  N_10
REMARK    4  A    between atoms: C_11  and  C_13
REMARK    5  A    between atoms: C_13  and  S_14
REMARK    6  A    between atoms: S_14  and  C_15
REMARK    7  A    between atoms: N_19  and  C_20
REMARK    8  A    between atoms: C_20  and  C_21
REMARK    9  A    between atoms: C_21  and  N_22
REMARK                            x       y       z     vdW  Elec       q    Type
REMARK                         _______ _______ _______ _____ _____    ______ ____
ROOT
ATOM      1  C   UNL     1      -0.749  10.708  19.001  0.00  0.00    +0.000 A 
ATOM      2  N   UNL     1      -0.604  11.374  20.092  0.00  0.00    +0.000 NA
ATOM      3  C   UNL     1      -1.655  12.139  20.550  0.00  0.00    +0.000 A 
ATOM      4  O   UNL     1      -1.564  12.674  21.649  0.00  0.00    +0.000 OA
ATOM      5  N   UNL     1      -2.795  12.299  19.730  0.00  0.00    +0.000 N 
ATOM      6  C   UNL     1      -2.919  11.527  18.592  0.00  0.00    +0.000 A 
ATOM      7  C   UNL     1      -1.954  10.703  18.185  0.00  0.00    +0.000 A 
ATOM      8  C   UNL     1      -2.302   9.937  16.967  0.00  0.00    +0.000 C 
ATOM      9  C   UNL     1      -3.536  10.696  16.471  0.00  0.00    +0.000 C 
ATOM     10  C   UNL     1      -4.104  11.449  17.682  0.00  0.00    +0.000 C 
ENDROOT
BRANCH   1  11
ATOM     11  S   UNL     1       0.579   9.754  18.383  0.00  0.00    +0.000 S 
BRANCH  11  12
ATOM     12  C   UNL     1       1.358   9.232  19.938  0.00  0.00    +0.000 C 
BRANCH  12  14
ATOM     13  N   UNL     1       2.268   7.362  18.654  0.00  0.00    +0.000 N 
ATOM     14  C   UNL     1       1.711   7.754  19.868  0.00  0.00    +0.000 C 
ATOM     15  O   UNL     1       1.540   7.034  20.849  0.00  0.00    +0.000 OA
ATOM     16  H   UNL     1       2.460   8.095  17.983  0.00  0.00    +0.000 HD
BRANCH  13  21
ATOM     17  C   UNL     1       4.118   4.528  17.086  0.00  0.00    +0.000 A 
ATOM     18  C   UNL     1       3.289   3.457  17.424  0.00  0.00    +0.000 A 
ATOM     19  C   UNL     1       2.124   3.666  18.151  0.00  0.00    +0.000 A 
ATOM     20  C   UNL     1       1.775   4.948  18.565  0.00  0.00    +0.000 A 
ATOM     21  C   UNL     1       2.594   6.039  18.268  0.00  0.00    +0.000 A 
ATOM     22  C   UNL     1       3.771   5.821  17.528  0.00  0.00    +0.000 A 
BRANCH  17  26
ATOM     23  C   UNL     1       7.084   4.756  14.755  0.00  0.00    +0.000 C 
ATOM     24  C   UNL     1       5.837   5.263  15.432  0.00  0.00    +0.000 C 
ATOM     25  O   UNL     1       5.400   6.378  15.165  0.00  0.00    +0.000 OA
ATOM     26  N   UNL     1       5.309   4.358  16.343  0.00  0.00    +0.000 N 
ATOM     27  H   UNL     1       5.871   3.545  16.560  0.00  0.00    +0.000 HD
ENDBRANCH  17  26
ENDBRANCH  13  21
ENDBRANCH  12  14
ENDBRANCH  11  12
ENDBRANCH   1  11
BRANCH   5  28
ATOM     28  C   UNL     1      -3.932  13.136  20.184  0.00  0.00    +0.000 C 
BRANCH  28  29
ATOM     29  C   UNL     1      -4.678  12.631  21.442  0.00  0.00    +0.000 C 
BRANCH  29  30
ATOM     30  N   UNL     1      -4.774  13.577  22.579  0.00  0.00    +0.000 NA
ATOM     31  C   UNL     1      -5.319  12.999  23.823  0.00  0.00    +0.000 C 
ATOM     32  C   UNL     1      -6.808  12.633  23.733  0.00  0.00    +0.000 C 
ATOM     33  O   UNL     1      -7.600  13.774  23.381  0.00  0.00    +0.000 OA
ATOM     34  C   UNL     1      -7.151  14.357  22.151  0.00  0.00    +0.000 C 
ATOM     35  C   UNL     1      -5.652  14.718  22.204  0.00  0.00    +0.000 C 
ENDBRANCH  29  30
ENDBRANCH  28  29
ENDBRANCH   5  28
TORSDOF 8
ENDMDL
