MODEL 1
REMARK VINA RESULT:      -8.2      0.000      0.000
REMARK  Name = 
REMARK  4 active torsions:
REMARK  status: ('A' for Active; 'I' for Inactive)
REMARK    1  A    between atoms: C_2  and  C_5
REMARK    2  A    between atoms: C_9  and  C_10
REMARK    3  A    between atoms: C_10  and  N_11
REMARK    4  A    between atoms: C_14  and  N_15
REMARK                            x       y       z     vdW  Elec       q    Type
REMARK                         _______ _______ _______ _____ _____    ______ ____
ROOT
ATOM      1  N   UNL     1       4.803   5.984  18.244  0.00  0.00    +0.000 NA
ATOM      2  C   UNL     1       5.620   6.989  17.553  0.00  0.00    +0.000 C 
ATOM      3  C   UNL     1       6.229   6.297  16.345  0.00  0.00    +0.000 C 
ATOM      4  C   UNL     1       6.440   4.849  16.787  0.00  0.00    +0.000 C 
ATOM      5  C   UNL     1       5.485   4.691  17.989  0.00  0.00    +0.000 C 
ENDROOT
BRANCH   4   6
ATOM      6  N   UNL     1       6.105   3.951  15.691  0.00  0.00    +0.000 N 
ATOM      7  C   UNL     1       6.573   4.230  14.423  0.00  0.00    +0.000 A 
ATOM      8  N   UNL     1       7.566   5.110  14.221  0.00  0.00    +0.000 NA
ATOM      9  C   UNL     1       7.973   5.287  12.947  0.00  0.00    +0.000 A 
ATOM     10  C   UNL     1       7.442   4.612  11.876  0.00  0.00    +0.000 A 
ATOM     11  C   UNL     1       6.432   3.745  12.181  0.00  0.00    +0.000 A 
ATOM     12  N   UNL     1       5.971   3.552  13.434  0.00  0.00    +0.000 NA
ATOM     13  H   UNL     1       5.135   3.677  15.588  0.00  0.00    +0.000 HD
ENDBRANCH   4   6
BRANCH   1  14
ATOM     14  C   UNL     1       3.410   5.948  17.767  0.00  0.00    +0.000 C 
BRANCH  14  19
ATOM     15  C   UNL     1       1.933   3.419  20.245  0.00  0.00    +0.000 A 
ATOM     16  C   UNL     1       1.246   2.627  19.338  0.00  0.00    +0.000 A 
ATOM     17  N   UNL     1       1.185   2.883  18.013  0.00  0.00    +0.000 NA
ATOM     18  C   UNL     1       1.859   3.970  17.565  0.00  0.00    +0.000 A 
ATOM     19  C   UNL     1       2.559   4.855  18.382  0.00  0.00    +0.000 A 
ATOM     20  C   UNL     1       2.570   4.567  19.752  0.00  0.00    +0.000 A 
BRANCH  15  22
ATOM     21  F   UNL     1       2.375   4.051  22.512  0.00  0.00    +0.000 F 
ATOM     22  C   UNL     1       2.042   3.022  21.683  0.00  0.00    +0.000 C 
ATOM     23  F   UNL     1       2.975   2.055  21.898  0.00  0.00    +0.000 F 
ATOM     24  F   UNL     1       0.870   2.526  22.173  0.00  0.00    +0.000 F 
ENDBRANCH  15  22
ENDBRANCH  14  19
ENDBRANCH   1  14
TORSDOF 4
ENDMDL
MODEL 2
REMARK VINA RESULT:      -8.0      4.174      7.793
REMARK  Name = 
REMARK  4 active torsions:
REMARK  status: ('A' for Active; 'I' for Inactive)
REMARK    1  A    between atoms: C_2  and  C_5
REMARK    2  A    between atoms: C_9  and  C_10
REMARK    3  A    between atoms: C_10  and  N_11
REMARK    4  A    between atoms: C_14  and  N_15
REMARK                            x       y       z     vdW  Elec       q    Type
REMARK                         _______ _______ _______ _____ _____    ______ ____
ROOT
ATOM      1  N   UNL     1       6.179   5.709  16.748  0.00  0.00    +0.000 NA
ATOM      2  C   UNL     1       7.047   6.195  17.827  0.00  0.00    +0.000 C 
ATOM      3  C   UNL     1       6.603   5.484  19.093  0.00  0.00    +0.000 C 
ATOM      4  C   UNL     1       5.097   5.283  18.924  0.00  0.00    +0.000 C 
ATOM      5  C   UNL     1       4.880   5.411  17.402  0.00  0.00    +0.000 C 
ENDROOT
BRANCH   4   6
ATOM      6  N   UNL     1       4.720   3.972  19.430  0.00  0.00    +0.000 N 
ATOM      7  C   UNL     1       3.459   3.790  19.961  0.00  0.00    +0.000 A 
ATOM      8  N   UNL     1       2.474   4.677  19.747  0.00  0.00    +0.000 NA
ATOM      9  C   UNL     1       1.270   4.391  20.281  0.00  0.00    +0.000 A 
ATOM     10  C   UNL     1       1.006   3.252  21.001  0.00  0.00    +0.000 A 
ATOM     11  C   UNL     1       2.071   2.414  21.171  0.00  0.00    +0.000 A 
ATOM     12  N   UNL     1       3.302   2.669  20.681  0.00  0.00    +0.000 NA
ATOM     13  H   UNL     1       5.367   3.506  20.056  0.00  0.00    +0.000 HD
ENDBRANCH   4   6
BRANCH   1  14
ATOM     14  C   UNL     1       6.714   4.516  16.070  0.00  0.00    +0.000 C 
BRANCH  14  19
ATOM     15  C   UNL     1       5.718   3.880  12.420  0.00  0.00    +0.000 A 
ATOM     16  C   UNL     1       6.839   4.419  11.809  0.00  0.00    +0.000 A 
ATOM     17  N   UNL     1       7.850   5.011  12.483  0.00  0.00    +0.000 NA
ATOM     18  C   UNL     1       7.749   5.050  13.834  0.00  0.00    +0.000 A 
ATOM     19  C   UNL     1       6.659   4.569  14.556  0.00  0.00    +0.000 A 
ATOM     20  C   UNL     1       5.622   3.991  13.815  0.00  0.00    +0.000 A 
BRANCH  15  22
ATOM     21  F   UNL     1       3.537   2.898  12.311  0.00  0.00    +0.000 F 
ATOM     22  C   UNL     1       4.685   3.151  11.621  0.00  0.00    +0.000 C 
ATOM     23  F   UNL     1       5.119   1.943  11.167  0.00  0.00    +0.000 F 
ATOM     24  F   UNL     1       4.298   3.849  10.515  0.00  0.00    +0.000 F 
ENDBRANCH  15  22
ENDBRANCH  14  19
ENDBRANCH   1  14
TORSDOF 4
ENDMDL
MODEL 3
REMARK VINA RESULT:      -7.7      4.144      7.803
REMARK  Name = 
REMARK  4 active torsions:
REMARK  status: ('A' for Active; 'I' for Inactive)
REMARK    1  A    between atoms: C_2  and  C_5
REMARK    2  A    between atoms: C_9  and  C_10
REMARK    3  A    between atoms: C_10  and  N_11
REMARK    4  A    between atoms: C_14  and  N_15
REMARK                            x       y       z     vdW  Elec       q    Type
REMARK                         _______ _______ _______ _____ _____    ______ ____
ROOT
ATOM      1  N   UNL     1       6.489   5.874  16.779  0.00  0.00    +0.000 NA
ATOM      2  C   UNL     1       6.600   5.850  18.242  0.00  0.00    +0.000 C 
ATOM      3  C   UNL     1       5.266   5.348  18.769  0.00  0.00    +0.000 C 
ATOM      4  C   UNL     1       4.230   5.864  17.771  0.00  0.00    +0.000 C 
ATOM      5  C   UNL     1       5.059   6.162  16.504  0.00  0.00    +0.000 C 
ENDROOT
BRANCH   4   6
ATOM      6  N   UNL     1       3.220   4.841  17.544  0.00  0.00    +0.000 N 
ATOM      7  C   UNL     1       2.474   4.381  18.610  0.00  0.00    +0.000 A 
ATOM      8  N   UNL     1       2.425   5.052  19.772  0.00  0.00    +0.000 NA
ATOM      9  C   UNL     1       1.640   4.536  20.740  0.00  0.00    +0.000 A 
ATOM     10  C   UNL     1       0.893   3.395  20.589  0.00  0.00    +0.000 A 
ATOM     11  C   UNL     1       1.013   2.780  19.376  0.00  0.00    +0.000 A 
ATOM     12  N   UNL     1       1.805   3.240  18.385  0.00  0.00    +0.000 NA
ATOM     13  H   UNL     1       3.490   4.025  17.007  0.00  0.00    +0.000 HD
ENDBRANCH   4   6
BRANCH   1  14
ATOM     14  C   UNL     1       6.902   4.608  16.149  0.00  0.00    +0.000 C 
BRANCH  14  19
ATOM     15  C   UNL     1       6.434   3.606  12.476  0.00  0.00    +0.000 A 
ATOM     16  C   UNL     1       7.274   4.547  11.902  0.00  0.00    +0.000 A 
ATOM     17  N   UNL     1       7.927   5.500  12.606  0.00  0.00    +0.000 NA
ATOM     18  C   UNL     1       7.749   5.502  13.949  0.00  0.00    +0.000 A 
ATOM     19  C   UNL     1       6.909   4.627  14.633  0.00  0.00    +0.000 A 
ATOM     20  C   UNL     1       6.230   3.676  13.861  0.00  0.00    +0.000 A 
BRANCH  15  22
ATOM     21  F   UNL     1       4.625   2.858  11.097  0.00  0.00    +0.000 F 
ATOM     22  C   UNL     1       5.823   2.518  11.650  0.00  0.00    +0.000 C 
ATOM     23  F   UNL     1       5.595   1.378  12.358  0.00  0.00    +0.000 F 
ATOM     24  F   UNL     1       6.618   2.154  10.604  0.00  0.00    +0.000 F 
ENDBRANCH  15  22
ENDBRANCH  14  19
ENDBRANCH   1  14
TORSDOF 4
ENDMDL
MODEL 4
REMARK VINA RESULT:      -7.6      4.644      7.822
REMARK  Name = 
REMARK  4 active torsions:
REMARK  status: ('A' for Active; 'I' for Inactive)
REMARK    1  A    between atoms: C_2  and  C_5
REMARK    2  A    between atoms: C_9  and  C_10
REMARK    3  A    between atoms: C_10  and  N_11
REMARK    4  A    between atoms: C_14  and  N_15
REMARK                            x       y       z     vdW  Elec       q    Type
REMARK                         _______ _______ _______ _____ _____    ______ ____
ROOT
ATOM      1  N   UNL     1       4.344   3.949  18.357  0.00  0.00    +0.000 NA
ATOM      2  C   UNL     1       3.160   3.712  19.192  0.00  0.00    +0.000 C 
ATOM      3  C   UNL     1       2.393   5.022  19.237  0.00  0.00    +0.000 C 
ATOM      4  C   UNL     1       3.466   6.109  19.165  0.00  0.00    +0.000 C 
ATOM      5  C   UNL     1       4.688   5.377  18.571  0.00  0.00    +0.000 C 
ENDROOT
BRANCH   4   6
ATOM      6  N   UNL     1       3.004   7.196  18.315  0.00  0.00    +0.000 N 
ATOM      7  C   UNL     1       2.077   8.091  18.809  0.00  0.00    +0.000 A 
ATOM      8  N   UNL     1       1.824   8.184  20.124  0.00  0.00    +0.000 NA
ATOM      9  C   UNL     1       0.925   9.113  20.507  0.00  0.00    +0.000 A 
ATOM     10  C   UNL     1       0.286   9.962  19.637  0.00  0.00    +0.000 A 
ATOM     11  C   UNL     1       0.604   9.787  18.320  0.00  0.00    +0.000 A 
ATOM     12  N   UNL     1       1.474   8.853  17.883  0.00  0.00    +0.000 NA
ATOM     13  H   UNL     1       2.708   6.963  17.374  0.00  0.00    +0.000 HD
ENDBRANCH   4   6
BRANCH   1  14
ATOM     14  C   UNL     1       4.107   3.671  16.930  0.00  0.00    +0.000 C 
BRANCH  14  19
ATOM     15  C   UNL     1       6.347   4.106  13.845  0.00  0.00    +0.000 A 
ATOM     16  C   UNL     1       7.462   4.630  14.479  0.00  0.00    +0.000 A 
ATOM     17  N   UNL     1       7.518   4.897  15.803  0.00  0.00    +0.000 NA
ATOM     18  C   UNL     1       6.414   4.610  16.535  0.00  0.00    +0.000 A 
ATOM     19  C   UNL     1       5.227   4.109  16.006  0.00  0.00    +0.000 A 
ATOM     20  C   UNL     1       5.205   3.875  14.626  0.00  0.00    +0.000 A 
BRANCH  15  22
ATOM     21  F   UNL     1       5.184   3.851  11.768  0.00  0.00    +0.000 F 
ATOM     22  C   UNL     1       6.388   3.741  12.395  0.00  0.00    +0.000 C 
ATOM     23  F   UNL     1       6.803   2.462  12.181  0.00  0.00    +0.000 F 
ATOM     24  F   UNL     1       7.242   4.533  11.686  0.00  0.00    +0.000 F 
ENDBRANCH  15  22
ENDBRANCH  14  19
ENDBRANCH   1  14
TORSDOF 4
ENDMDL
MODEL 5
REMARK VINA RESULT:      -7.5      1.710      2.057
REMARK  Name = 
REMARK  4 active torsions:
REMARK  status: ('A' for Active; 'I' for Inactive)
REMARK    1  A    between atoms: C_2  and  C_5
REMARK    2  A    between atoms: C_9  and  C_10
REMARK    3  A    between atoms: C_10  and  N_11
REMARK    4  A    between atoms: C_14  and  N_15
REMARK                            x       y       z     vdW  Elec       q    Type
REMARK                         _______ _______ _______ _____ _____    ______ ____
ROOT
ATOM      1  N   UNL     1       5.702   6.306  18.340  0.00  0.00    +0.000 NA
ATOM      2  C   UNL     1       6.591   7.154  17.537  0.00  0.00    +0.000 C 
ATOM      3  C   UNL     1       7.035   6.316  16.351  0.00  0.00    +0.000 C 
ATOM      4  C   UNL     1       7.095   4.884  16.882  0.00  0.00    +0.000 C 
ATOM      5  C   UNL     1       6.204   4.923  18.141  0.00  0.00    +0.000 C 
ENDROOT
BRANCH   4   6
ATOM      6  N   UNL     1       6.587   3.967  15.872  0.00  0.00    +0.000 N 
ATOM      7  C   UNL     1       6.837   4.225  14.540  0.00  0.00    +0.000 A 
ATOM      8  N   UNL     1       7.780   5.102  14.161  0.00  0.00    +0.000 NA
ATOM      9  C   UNL     1       7.969   5.257  12.835  0.00  0.00    +0.000 A 
ATOM     10  C   UNL     1       7.271   4.564  11.877  0.00  0.00    +0.000 A 
ATOM     11  C   UNL     1       6.328   3.701  12.360  0.00  0.00    +0.000 A 
ATOM     12  N   UNL     1       6.082   3.530  13.675  0.00  0.00    +0.000 NA
ATOM     13  H   UNL     1       5.614   3.691  15.936  0.00  0.00    +0.000 HD
ENDBRANCH   4   6
BRANCH   1  14
ATOM     14  C   UNL     1       4.288   6.415  17.942  0.00  0.00    +0.000 C 
BRANCH  14  19
ATOM     15  C   UNL     1       1.930   3.635  19.141  0.00  0.00    +0.000 A 
ATOM     16  C   UNL     1       1.316   4.325  20.175  0.00  0.00    +0.000 A 
ATOM     17  N   UNL     1       1.646   5.585  20.537  0.00  0.00    +0.000 NA
ATOM     18  C   UNL     1       2.621   6.195  19.821  0.00  0.00    +0.000 A 
ATOM     19  C   UNL     1       3.329   5.595  18.783  0.00  0.00    +0.000 A 
ATOM     20  C   UNL     1       2.974   4.279  18.461  0.00  0.00    +0.000 A 
BRANCH  15  22
ATOM     21  F   UNL     1       1.747   1.297  19.623  0.00  0.00    +0.000 F 
ATOM     22  C   UNL     1       1.448   2.281  18.729  0.00  0.00    +0.000 C 
ATOM     23  F   UNL     1       1.968   1.871  17.539  0.00  0.00    +0.000 F 
ATOM     24  F   UNL     1       0.094   2.237  18.579  0.00  0.00    +0.000 F 
ENDBRANCH  15  22
ENDBRANCH  14  19
ENDBRANCH   1  14
TORSDOF 4
ENDMDL
MODEL 6
REMARK VINA RESULT:      -7.5      3.460      4.224
REMARK  Name = 
REMARK  4 active torsions:
REMARK  status: ('A' for Active; 'I' for Inactive)
REMARK    1  A    between atoms: C_2  and  C_5
REMARK    2  A    between atoms: C_9  and  C_10
REMARK    3  A    between atoms: C_10  and  N_11
REMARK    4  A    between atoms: C_14  and  N_15
REMARK                            x       y       z     vdW  Elec       q    Type
REMARK                         _______ _______ _______ _____ _____    ______ ____
ROOT
ATOM      1  N   UNL     1       4.439   5.184  18.094  0.00  0.00    +0.000 NA
ATOM      2  C   UNL     1       5.557   5.224  19.044  0.00  0.00    +0.000 C 
ATOM      3  C   UNL     1       6.819   5.411  18.220  0.00  0.00    +0.000 C 
ATOM      4  C   UNL     1       6.543   4.681  16.906  0.00  0.00    +0.000 C 
ATOM      5  C   UNL     1       5.004   4.584  16.859  0.00  0.00    +0.000 C 
ENDROOT
BRANCH   4   6
ATOM      6  N   UNL     1       7.083   5.453  15.796  0.00  0.00    +0.000 N 
ATOM      7  C   UNL     1       7.037   4.926  14.522  0.00  0.00    +0.000 A 
ATOM      8  N   UNL     1       6.245   3.884  14.223  0.00  0.00    +0.000 NA
ATOM      9  C   UNL     1       6.247   3.466  12.941  0.00  0.00    +0.000 A 
ATOM     10  C   UNL     1       6.990   4.053  11.947  0.00  0.00    +0.000 A 
ATOM     11  C   UNL     1       7.769   5.100  12.350  0.00  0.00    +0.000 A 
ATOM     12  N   UNL     1       7.824   5.539  13.624  0.00  0.00    +0.000 NA
ATOM     13  H   UNL     1       8.007   5.855  15.910  0.00  0.00    +0.000 HD
ENDBRANCH   4   6
BRANCH   1  14
ATOM     14  C   UNL     1       3.868   6.513  17.820  0.00  0.00    +0.000 C 
BRANCH  14  19
ATOM     15  C   UNL     1       1.352   8.650  19.776  0.00  0.00    +0.000 A 
ATOM     16  C   UNL     1       1.085   7.756  20.802  0.00  0.00    +0.000 A 
ATOM     17  N   UNL     1       1.612   6.514  20.872  0.00  0.00    +0.000 NA
ATOM     18  C   UNL     1       2.463   6.150  19.882  0.00  0.00    +0.000 A 
ATOM     19  C   UNL     1       2.784   6.948  18.787  0.00  0.00    +0.000 A 
ATOM     20  C   UNL     1       2.192   8.216  18.740  0.00  0.00    +0.000 A 
BRANCH  15  22
ATOM     21  F   UNL     1      -0.545  10.110  19.720  0.00  0.00    +0.000 F 
ATOM     22  C   UNL     1       0.813  10.045  19.813  0.00  0.00    +0.000 C 
ATOM     23  F   UNL     1       1.293  10.826  18.807  0.00  0.00    +0.000 F 
ATOM     24  F   UNL     1       1.130  10.691  20.971  0.00  0.00    +0.000 F 
ENDBRANCH  15  22
ENDBRANCH  14  19
ENDBRANCH   1  14
TORSDOF 4
ENDMDL
MODEL 7
REMARK VINA RESULT:      -7.5      4.755      8.139
REMARK  Name = 
REMARK  4 active torsions:
REMARK  status: ('A' for Active; 'I' for Inactive)
REMARK    1  A    between atoms: C_2  and  C_5
REMARK    2  A    between atoms: C_9  and  C_10
REMARK    3  A    between atoms: C_10  and  N_11
REMARK    4  A    between atoms: C_14  and  N_15
REMARK                            x       y       z     vdW  Elec       q    Type
REMARK                         _______ _______ _______ _____ _____    ______ ____
ROOT
ATOM      1  N   UNL     1       4.045   4.289  18.438  0.00  0.00    +0.000 NA
ATOM      2  C   UNL     1       2.925   3.767  19.230  0.00  0.00    +0.000 C 
ATOM      3  C   UNL     1       2.045   4.956  19.574  0.00  0.00    +0.000 C 
ATOM      4  C   UNL     1       3.012   6.133  19.713  0.00  0.00    +0.000 C 
ATOM      5  C   UNL     1       4.267   5.667  18.946  0.00  0.00    +0.000 C 
ENDROOT
BRANCH   4   6
ATOM      6  N   UNL     1       2.416   7.325  19.128  0.00  0.00    +0.000 N 
ATOM      7  C   UNL     1       1.667   8.166  19.925  0.00  0.00    +0.000 A 
ATOM      8  N   UNL     1       1.725   8.097  21.265  0.00  0.00    +0.000 NA
ATOM      9  C   UNL     1       0.980   8.986  21.953  0.00  0.00    +0.000 A 
ATOM     10  C   UNL     1       0.197   9.946  21.361  0.00  0.00    +0.000 A 
ATOM     11  C   UNL     1       0.198   9.932  19.996  0.00  0.00    +0.000 A 
ATOM     12  N   UNL     1       0.903   9.047  19.262  0.00  0.00    +0.000 NA
ATOM     13  H   UNL     1       1.903   7.216  18.260  0.00  0.00    +0.000 HD
ENDBRANCH   4   6
BRANCH   1  14
ATOM     14  C   UNL     1       3.772   4.299  16.991  0.00  0.00    +0.000 C 
BRANCH  14  19
ATOM     15  C   UNL     1       6.203   4.166  14.026  0.00  0.00    +0.000 A 
ATOM     16  C   UNL     1       7.363   4.508  14.702  0.00  0.00    +0.000 A 
ATOM     17  N   UNL     1       7.402   4.824  16.016  0.00  0.00    +0.000 NA
ATOM     18  C   UNL     1       6.229   4.779  16.693  0.00  0.00    +0.000 A 
ATOM     19  C   UNL     1       4.998   4.480  16.117  0.00  0.00    +0.000 A 
ATOM     20  C   UNL     1       5.001   4.187  14.747  0.00  0.00    +0.000 A 
BRANCH  15  22
ATOM     21  F   UNL     1       6.633   2.433  12.431  0.00  0.00    +0.000 F 
ATOM     22  C   UNL     1       6.248   3.729  12.596  0.00  0.00    +0.000 C 
ATOM     23  F   UNL     1       7.105   4.470  11.841  0.00  0.00    +0.000 F 
ATOM     24  F   UNL     1       5.032   3.829  11.986  0.00  0.00    +0.000 F 
ENDBRANCH  15  22
ENDBRANCH  14  19
ENDBRANCH   1  14
TORSDOF 4
ENDMDL
MODEL 8
REMARK VINA RESULT:      -7.5      4.121      7.418
REMARK  Name = 
REMARK  4 active torsions:
REMARK  status: ('A' for Active; 'I' for Inactive)
REMARK    1  A    between atoms: C_2  and  C_5
REMARK    2  A    between atoms: C_9  and  C_10
REMARK    3  A    between atoms: C_10  and  N_11
REMARK    4  A    between atoms: C_14  and  N_15
REMARK                            x       y       z     vdW  Elec       q    Type
REMARK                         _______ _______ _______ _____ _____    ______ ____
ROOT
ATOM      1  N   UNL     1       2.750   2.946  20.187  0.00  0.00    +0.000 NA
ATOM      2  C   UNL     1       1.289   2.988  20.312  0.00  0.00    +0.000 C 
ATOM      3  C   UNL     1       0.873   4.427  20.061  0.00  0.00    +0.000 C 
ATOM      4  C   UNL     1       2.030   5.270  20.600  0.00  0.00    +0.000 C 
ATOM      5  C   UNL     1       3.215   4.282  20.636  0.00  0.00    +0.000 C 
ENDROOT
BRANCH   4   6
ATOM      6  N   UNL     1       2.273   6.393  19.707  0.00  0.00    +0.000 N 
ATOM      7  C   UNL     1       1.717   7.622  20.001  0.00  0.00    +0.000 A 
ATOM      8  N   UNL     1       1.230   7.896  21.222  0.00  0.00    +0.000 NA
ATOM      9  C   UNL     1       0.739   9.136  21.417  0.00  0.00    +0.000 A 
ATOM     10  C   UNL     1       0.731  10.115  20.454  0.00  0.00    +0.000 A 
ATOM     11  C   UNL     1       1.241   9.739  19.243  0.00  0.00    +0.000 A 
ATOM     12  N   UNL     1       1.718   8.503  18.990  0.00  0.00    +0.000 NA
ATOM     13  H   UNL     1       2.132   6.243  18.714  0.00  0.00    +0.000 HD
ENDBRANCH   4   6
BRANCH   1  14
ATOM     14  C   UNL     1       3.203   2.666  18.813  0.00  0.00    +0.000 C 
BRANCH  14  19
ATOM     15  C   UNL     1       5.512   4.717  16.538  0.00  0.00    +0.000 A 
ATOM     16  C   UNL     1       6.563   4.893  17.425  0.00  0.00    +0.000 A 
ATOM     17  N   UNL     1       6.552   4.448  18.701  0.00  0.00    +0.000 NA
ATOM     18  C   UNL     1       5.447   3.777  19.108  0.00  0.00    +0.000 A 
ATOM     19  C   UNL     1       4.319   3.564  18.319  0.00  0.00    +0.000 A 
ATOM     20  C   UNL     1       4.363   4.069  17.013  0.00  0.00    +0.000 A 
BRANCH  15  22
ATOM     21  F   UNL     1       5.089   6.372  14.861  0.00  0.00    +0.000 F 
ATOM     22  C   UNL     1       5.632   5.148  15.111  0.00  0.00    +0.000 C 
ATOM     23  F   UNL     1       5.027   4.289  14.244  0.00  0.00    +0.000 F 
ATOM     24  F   UNL     1       6.930   5.235  14.704  0.00  0.00    +0.000 F 
ENDBRANCH  15  22
ENDBRANCH  14  19
ENDBRANCH   1  14
TORSDOF 4
ENDMDL
MODEL 9
REMARK VINA RESULT:      -7.5      2.643      3.295
REMARK  Name = 
REMARK  4 active torsions:
REMARK  status: ('A' for Active; 'I' for Inactive)
REMARK    1  A    between atoms: C_2  and  C_5
REMARK    2  A    between atoms: C_9  and  C_10
REMARK    3  A    between atoms: C_10  and  N_11
REMARK    4  A    between atoms: C_14  and  N_15
REMARK                            x       y       z     vdW  Elec       q    Type
REMARK                         _______ _______ _______ _____ _____    ______ ____
ROOT
ATOM      1  N   UNL     1       5.362   4.967  18.544  0.00  0.00    +0.000 NA
ATOM      2  C   UNL     1       6.554   5.366  19.302  0.00  0.00    +0.000 C 
ATOM      3  C   UNL     1       7.614   5.735  18.279  0.00  0.00    +0.000 C 
ATOM      4  C   UNL     1       7.347   4.815  17.087  0.00  0.00    +0.000 C 
ATOM      5  C   UNL     1       5.884   4.371  17.289  0.00  0.00    +0.000 C 
ENDROOT
BRANCH   4   6
ATOM      6  N   UNL     1       7.536   5.555  15.848  0.00  0.00    +0.000 N 
ATOM      7  C   UNL     1       7.243   4.943  14.646  0.00  0.00    +0.000 A 
ATOM      8  N   UNL     1       6.507   3.822  14.591  0.00  0.00    +0.000 NA
ATOM      9  C   UNL     1       6.250   3.322  13.366  0.00  0.00    +0.000 A 
ATOM     10  C   UNL     1       6.679   3.903  12.198  0.00  0.00    +0.000 A 
ATOM     11  C   UNL     1       7.426   5.035  12.357  0.00  0.00    +0.000 A 
ATOM     12  N   UNL     1       7.735   5.560  13.560  0.00  0.00    +0.000 NA
ATOM     13  H   UNL     1       8.417   6.039  15.719  0.00  0.00    +0.000 HD
ENDBRANCH   4   6
BRANCH   1  14
ATOM     14  C   UNL     1       4.459   6.095  18.256  0.00  0.00    +0.000 C 
BRANCH  14  19
ATOM     15  C   UNL     1       1.549   7.245  20.477  0.00  0.00    +0.000 A 
ATOM     16  C   UNL     1       1.069   5.997  20.841  0.00  0.00    +0.000 A 
ATOM     17  N   UNL     1       1.579   4.832  20.382  0.00  0.00    +0.000 NA
ATOM     18  C   UNL     1       2.633   4.915  19.534  0.00  0.00    +0.000 A 
ATOM     19  C   UNL     1       3.183   6.109  19.075  0.00  0.00    +0.000 A 
ATOM     20  C   UNL     1       2.603   7.291  19.553  0.00  0.00    +0.000 A 
BRANCH  15  22
ATOM     21  F   UNL     1       0.911   9.540  20.237  0.00  0.00    +0.000 F 
ATOM     22  C   UNL     1       1.002   8.490  21.100  0.00  0.00    +0.000 C 
ATOM     23  F   UNL     1       1.751   8.933  22.147  0.00  0.00    +0.000 F 
ATOM     24  F   UNL     1      -0.257   8.312  21.592  0.00  0.00    +0.000 F 
ENDBRANCH  15  22
ENDBRANCH  14  19
ENDBRANCH   1  14
TORSDOF 4
ENDMDL
