MODEL 1
REMARK VINA RESULT:      -7.9      0.000      0.000
REMARK  Name = 
REMARK  5 active torsions:
REMARK  status: ('A' for Active; 'I' for Inactive)
REMARK    1  A    between atoms: C_1  and  O_2
REMARK    2  A    between atoms: O_2  and  C_3
REMARK    3  A    between atoms: C_8  and  O_9
REMARK    4  A    between atoms: O_9  and  C_10
REMARK    5  A    between atoms: C_10  and  C_11
REMARK                            x       y       z     vdW  Elec       q    Type
REMARK                         _______ _______ _______ _____ _____    ______ ____
ROOT
ATOM      1  C   UNL     1       5.638   5.368  18.113  0.00  0.00    +0.000 A 
ATOM      2  C   UNL     1       4.534   5.642  18.922  0.00  0.00    +0.000 A 
ATOM      3  C   UNL     1       3.353   4.870  18.879  0.00  0.00    +0.000 A 
ATOM      4  C   UNL     1       3.276   3.788  17.990  0.00  0.00    +0.000 A 
ATOM      5  C   UNL     1       4.389   3.543  17.143  0.00  0.00    +0.000 A 
ATOM      6  C   UNL     1       5.547   4.322  17.194  0.00  0.00    +0.000 A 
ATOM      7  C   UNL     1       2.125   2.831  17.788  0.00  0.00    +0.000 C 
ATOM      8  C   UNL     1       0.938   2.842  18.737  0.00  0.00    +0.000 C 
ATOM      9  C   UNL     1       1.346   3.001  20.191  0.00  0.00    +0.000 C 
ATOM     10  C   UNL     1       1.350   4.467  20.559  0.00  0.00    +0.000 C 
ATOM     11  C   UNL     1       2.286   5.372  19.798  0.00  0.00    +0.000 C 
ATOM     12  O   UNL     1       2.230   6.589  20.007  0.00  0.00    +0.000 OA
ENDROOT
BRANCH   1  14
ATOM     13  C   UNL     1       7.692   5.785  19.221  0.00  0.00    +0.000 C 
ATOM     14  O   UNL     1       6.806   6.089  18.146  0.00  0.00    +0.000 OA
ENDBRANCH   1  14
BRANCH   6  15
ATOM     15  O   UNL     1       6.675   4.111  16.351  0.00  0.00    +0.000 OA
BRANCH  15  16
ATOM     16  C   UNL     1       6.919   4.678  15.098  0.00  0.00    +0.000 C 
ATOM     17  C   UNL     1       6.100   3.963  14.059  0.00  0.00    +0.000 C 
ATOM     18  O   UNL     1       7.641   5.631  14.849  0.00  0.00    +0.000 OA
ENDBRANCH  15  16
ENDBRANCH   6  15
TORSDOF 3
ENDMDL
MODEL 2
REMARK VINA RESULT:      -7.6      1.298      1.371
REMARK  Name = 
REMARK  5 active torsions:
REMARK  status: ('A' for Active; 'I' for Inactive)
REMARK    1  A    between atoms: C_1  and  O_2
REMARK    2  A    between atoms: O_2  and  C_3
REMARK    3  A    between atoms: C_8  and  O_9
REMARK    4  A    between atoms: O_9  and  C_10
REMARK    5  A    between atoms: C_10  and  C_11
REMARK                            x       y       z     vdW  Elec       q    Type
REMARK                         _______ _______ _______ _____ _____    ______ ____
ROOT
ATOM      1  C   UNL     1       5.908   6.017  16.795  0.00  0.00    +0.000 A 
ATOM      2  C   UNL     1       4.865   6.463  17.610  0.00  0.00    +0.000 A 
ATOM      3  C   UNL     1       3.731   5.672  17.891  0.00  0.00    +0.000 A 
ATOM      4  C   UNL     1       3.637   4.389  17.331  0.00  0.00    +0.000 A 
ATOM      5  C   UNL     1       4.683   3.961  16.471  0.00  0.00    +0.000 A 
ATOM      6  C   UNL     1       5.795   4.761  16.199  0.00  0.00    +0.000 A 
ATOM      7  C   UNL     1       2.529   3.378  17.505  0.00  0.00    +0.000 C 
ATOM      8  C   UNL     1       1.431   3.606  18.531  0.00  0.00    +0.000 C 
ATOM      9  C   UNL     1       1.957   4.160  19.843  0.00  0.00    +0.000 C 
ATOM     10  C   UNL     1       1.911   5.671  19.810  0.00  0.00    +0.000 C 
ATOM     11  C   UNL     1       2.723   6.368  18.748  0.00  0.00    +0.000 C 
ATOM     12  O   UNL     1       2.617   7.594  18.634  0.00  0.00    +0.000 OA
ENDROOT
BRANCH   1  14
ATOM     13  C   UNL     1       7.625   7.420  17.633  0.00  0.00    +0.000 C 
ATOM     14  O   UNL     1       7.032   6.756  16.520  0.00  0.00    +0.000 OA
ENDBRANCH   1  14
BRANCH   6  15
ATOM     15  O   UNL     1       6.854   4.367  15.332  0.00  0.00    +0.000 OA
BRANCH  15  16
ATOM     16  C   UNL     1       6.987   4.645  13.970  0.00  0.00    +0.000 C 
ATOM     17  C   UNL     1       6.120   3.703  13.181  0.00  0.00    +0.000 C 
ATOM     18  O   UNL     1       7.656   5.530  13.461  0.00  0.00    +0.000 OA
ENDBRANCH  15  16
ENDBRANCH   6  15
TORSDOF 3
ENDMDL
MODEL 3
REMARK VINA RESULT:      -7.4      1.567      3.304
REMARK  Name = 
REMARK  5 active torsions:
REMARK  status: ('A' for Active; 'I' for Inactive)
REMARK    1  A    between atoms: C_1  and  O_2
REMARK    2  A    between atoms: O_2  and  C_3
REMARK    3  A    between atoms: C_8  and  O_9
REMARK    4  A    between atoms: O_9  and  C_10
REMARK    5  A    between atoms: C_10  and  C_11
REMARK                            x       y       z     vdW  Elec       q    Type
REMARK                         _______ _______ _______ _____ _____    ______ ____
ROOT
ATOM      1  C   UNL     1       5.550   4.482  16.592  0.00  0.00    +0.000 A 
ATOM      2  C   UNL     1       4.756   3.421  17.033  0.00  0.00    +0.000 A 
ATOM      3  C   UNL     1       3.757   3.581  18.017  0.00  0.00    +0.000 A 
ATOM      4  C   UNL     1       3.549   4.849  18.581  0.00  0.00    +0.000 A 
ATOM      5  C   UNL     1       4.390   5.912  18.154  0.00  0.00    +0.000 A 
ATOM      6  C   UNL     1       5.378   5.733  17.184  0.00  0.00    +0.000 A 
ATOM      7  C   UNL     1       2.538   5.246  19.630  0.00  0.00    +0.000 C 
ATOM      8  C   UNL     1       1.449   4.275  20.056  0.00  0.00    +0.000 C 
ATOM      9  C   UNL     1       0.845   3.516  18.888  0.00  0.00    +0.000 C 
ATOM     10  C   UNL     1       1.592   2.217  18.687  0.00  0.00    +0.000 C 
ATOM     11  C   UNL     1       3.063   2.304  18.367  0.00  0.00    +0.000 C 
ATOM     12  O   UNL     1       3.715   1.256  18.304  0.00  0.00    +0.000 OA
ENDROOT
BRANCH   1  14
ATOM     13  C   UNL     1       6.042   4.094  14.306  0.00  0.00    +0.000 C 
ATOM     14  O   UNL     1       6.516   4.361  15.624  0.00  0.00    +0.000 OA
ENDBRANCH   1  14
BRANCH   6  15
ATOM     15  O   UNL     1       6.245   6.773  16.744  0.00  0.00    +0.000 OA
BRANCH  15  16
ATOM     16  C   UNL     1       7.285   7.374  17.457  0.00  0.00    +0.000 C 
ATOM     17  C   UNL     1       7.792   6.418  18.501  0.00  0.00    +0.000 C 
ATOM     18  O   UNL     1       7.765   8.481  17.267  0.00  0.00    +0.000 OA
ENDBRANCH  15  16
ENDBRANCH   6  15
TORSDOF 3
ENDMDL
MODEL 4
REMARK VINA RESULT:      -7.4      1.595      3.363
REMARK  Name = 
REMARK  5 active torsions:
REMARK  status: ('A' for Active; 'I' for Inactive)
REMARK    1  A    between atoms: C_1  and  O_2
REMARK    2  A    between atoms: O_2  and  C_3
REMARK    3  A    between atoms: C_8  and  O_9
REMARK    4  A    between atoms: O_9  and  C_10
REMARK    5  A    between atoms: C_10  and  C_11
REMARK                            x       y       z     vdW  Elec       q    Type
REMARK                         _______ _______ _______ _____ _____    ______ ____
ROOT
ATOM      1  C   UNL     1       5.345   4.506  17.044  0.00  0.00    +0.000 A 
ATOM      2  C   UNL     1       4.524   3.430  17.387  0.00  0.00    +0.000 A 
ATOM      3  C   UNL     1       3.620   3.482  18.469  0.00  0.00    +0.000 A 
ATOM      4  C   UNL     1       3.540   4.653  19.237  0.00  0.00    +0.000 A 
ATOM      5  C   UNL     1       4.409   5.726  18.905  0.00  0.00    +0.000 A 
ATOM      6  C   UNL     1       5.302   5.654  17.834  0.00  0.00    +0.000 A 
ATOM      7  C   UNL     1       2.644   4.929  20.421  0.00  0.00    +0.000 C 
ATOM      8  C   UNL     1       1.534   3.958  20.790  0.00  0.00    +0.000 C 
ATOM      9  C   UNL     1       0.790   3.425  19.578  0.00  0.00    +0.000 C 
ATOM     10  C   UNL     1       1.434   2.139  19.113  0.00  0.00    +0.000 C 
ATOM     11  C   UNL     1       2.877   2.202  18.680  0.00  0.00    +0.000 C 
ATOM     12  O   UNL     1       3.454   1.146  18.398  0.00  0.00    +0.000 OA
ENDROOT
BRANCH   1  14
ATOM     13  C   UNL     1       5.627   4.384  14.693  0.00  0.00    +0.000 C 
ATOM     14  O   UNL     1       6.220   4.492  15.985  0.00  0.00    +0.000 OA
ENDBRANCH   1  14
BRANCH   6  15
ATOM     15  O   UNL     1       6.195   6.706  17.483  0.00  0.00    +0.000 OA
BRANCH  15  16
ATOM     16  C   UNL     1       7.438   6.993  18.051  0.00  0.00    +0.000 C 
ATOM     17  C   UNL     1       7.875   8.368  17.627  0.00  0.00    +0.000 C 
ATOM     18  O   UNL     1       8.082   6.285  18.810  0.00  0.00    +0.000 OA
ENDBRANCH  15  16
ENDBRANCH   6  15
TORSDOF 3
ENDMDL
MODEL 5
REMARK VINA RESULT:      -7.3      1.648      3.181
REMARK  Name = 
REMARK  5 active torsions:
REMARK  status: ('A' for Active; 'I' for Inactive)
REMARK    1  A    between atoms: C_1  and  O_2
REMARK    2  A    between atoms: O_2  and  C_3
REMARK    3  A    between atoms: C_8  and  O_9
REMARK    4  A    between atoms: O_9  and  C_10
REMARK    5  A    between atoms: C_10  and  C_11
REMARK                            x       y       z     vdW  Elec       q    Type
REMARK                         _______ _______ _______ _____ _____    ______ ____
ROOT
ATOM      1  C   UNL     1       4.614   5.053  16.777  0.00  0.00    +0.000 A 
ATOM      2  C   UNL     1       3.752   3.980  17.013  0.00  0.00    +0.000 A 
ATOM      3  C   UNL     1       3.105   3.785  18.252  0.00  0.00    +0.000 A 
ATOM      4  C   UNL     1       3.334   4.698  19.293  0.00  0.00    +0.000 A 
ATOM      5  C   UNL     1       4.243   5.762  19.056  0.00  0.00    +0.000 A 
ATOM      6  C   UNL     1       4.880   5.935  17.825  0.00  0.00    +0.000 A 
ATOM      7  C   UNL     1       2.743   4.688  20.683  0.00  0.00    +0.000 C 
ATOM      8  C   UNL     1       1.620   3.727  21.037  0.00  0.00    +0.000 C 
ATOM      9  C   UNL     1       0.581   3.604  19.937  0.00  0.00    +0.000 C 
ATOM     10  C   UNL     1       0.948   2.461  19.019  0.00  0.00    +0.000 C 
ATOM     11  C   UNL     1       2.266   2.548  18.292  0.00  0.00    +0.000 C 
ATOM     12  O   UNL     1       2.635   1.578  17.621  0.00  0.00    +0.000 OA
ENDROOT
BRANCH   1  14
ATOM     13  C   UNL     1       6.040   4.206  15.084  0.00  0.00    +0.000 C 
ATOM     14  O   UNL     1       5.242   5.279  15.578  0.00  0.00    +0.000 OA
ENDBRANCH   1  14
BRANCH   6  15
ATOM     15  O   UNL     1       5.806   6.983  17.559  0.00  0.00    +0.000 OA
BRANCH  15  16
ATOM     16  C   UNL     1       7.199   6.896  17.507  0.00  0.00    +0.000 C 
ATOM     17  C   UNL     1       7.699   6.166  18.722  0.00  0.00    +0.000 C 
ATOM     18  O   UNL     1       7.928   7.297  16.613  0.00  0.00    +0.000 OA
ENDBRANCH  15  16
ENDBRANCH   6  15
TORSDOF 3
ENDMDL
MODEL 6
REMARK VINA RESULT:      -7.2      1.068      1.075
REMARK  Name = 
REMARK  5 active torsions:
REMARK  status: ('A' for Active; 'I' for Inactive)
REMARK    1  A    between atoms: C_1  and  O_2
REMARK    2  A    between atoms: O_2  and  C_3
REMARK    3  A    between atoms: C_8  and  O_9
REMARK    4  A    between atoms: O_9  and  C_10
REMARK    5  A    between atoms: C_10  and  C_11
REMARK                            x       y       z     vdW  Elec       q    Type
REMARK                         _______ _______ _______ _____ _____    ______ ____
ROOT
ATOM      1  C   UNL     1       4.761   6.175  17.517  0.00  0.00    +0.000 A 
ATOM      2  C   UNL     1       3.923   6.099  18.631  0.00  0.00    +0.000 A 
ATOM      3  C   UNL     1       3.024   5.031  18.832  0.00  0.00    +0.000 A 
ATOM      4  C   UNL     1       2.959   4.003  17.879  0.00  0.00    +0.000 A 
ATOM      5  C   UNL     1       3.786   4.110  16.729  0.00  0.00    +0.000 A 
ATOM      6  C   UNL     1       4.665   5.179  16.544  0.00  0.00    +0.000 A 
ATOM      7  C   UNL     1       2.085   2.772  17.898  0.00  0.00    +0.000 C 
ATOM      8  C   UNL     1       1.281   2.416  19.138  0.00  0.00    +0.000 C 
ATOM      9  C   UNL     1       2.057   2.629  20.426  0.00  0.00    +0.000 C 
ATOM     10  C   UNL     1       1.799   4.023  20.949  0.00  0.00    +0.000 C 
ATOM     11  C   UNL     1       2.195   5.181  20.068  0.00  0.00    +0.000 C 
ATOM     12  O   UNL     1       1.897   6.325  20.427  0.00  0.00    +0.000 OA
ENDROOT
BRANCH   1  14
ATOM     13  C   UNL     1       6.961   6.992  17.851  0.00  0.00    +0.000 C 
ATOM     14  O   UNL     1       5.660   7.190  17.304  0.00  0.00    +0.000 OA
ENDBRANCH   1  14
BRANCH   6  15
ATOM     15  O   UNL     1       5.498   5.322  15.398  0.00  0.00    +0.000 OA
BRANCH  15  16
ATOM     16  C   UNL     1       6.596   4.538  15.040  0.00  0.00    +0.000 C 
ATOM     17  C   UNL     1       6.288   3.797  13.769  0.00  0.00    +0.000 C 
ATOM     18  O   UNL     1       7.671   4.469  15.617  0.00  0.00    +0.000 OA
ENDBRANCH  15  16
ENDBRANCH   6  15
TORSDOF 3
ENDMDL
MODEL 7
REMARK VINA RESULT:      -7.2      1.333      1.424
REMARK  Name = 
REMARK  5 active torsions:
REMARK  status: ('A' for Active; 'I' for Inactive)
REMARK    1  A    between atoms: C_1  and  O_2
REMARK    2  A    between atoms: O_2  and  C_3
REMARK    3  A    between atoms: C_8  and  O_9
REMARK    4  A    between atoms: O_9  and  C_10
REMARK    5  A    between atoms: C_10  and  C_11
REMARK                            x       y       z     vdW  Elec       q    Type
REMARK                         _______ _______ _______ _____ _____    ______ ____
ROOT
ATOM      1  C   UNL     1       5.366   5.809  16.974  0.00  0.00    +0.000 A 
ATOM      2  C   UNL     1       4.438   6.301  17.894  0.00  0.00    +0.000 A 
ATOM      3  C   UNL     1       3.345   5.534  18.351  0.00  0.00    +0.000 A 
ATOM      4  C   UNL     1       3.175   4.228  17.866  0.00  0.00    +0.000 A 
ATOM      5  C   UNL     1       4.101   3.753  16.901  0.00  0.00    +0.000 A 
ATOM      6  C   UNL     1       5.173   4.529  16.454  0.00  0.00    +0.000 A 
ATOM      7  C   UNL     1       2.094   3.237  18.224  0.00  0.00    +0.000 C 
ATOM      8  C   UNL     1       1.136   3.521  19.370  0.00  0.00    +0.000 C 
ATOM      9  C   UNL     1       1.827   4.128  20.579  0.00  0.00    +0.000 C 
ATOM     10  C   UNL     1       1.783   5.636  20.484  0.00  0.00    +0.000 C 
ATOM     11  C   UNL     1       2.456   6.278  19.297  0.00  0.00    +0.000 C 
ATOM     12  O   UNL     1       2.342   7.498  19.142  0.00  0.00    +0.000 OA
ENDROOT
BRANCH   1  14
ATOM     13  C   UNL     1       7.431   6.843  17.509  0.00  0.00    +0.000 C 
ATOM     14  O   UNL     1       6.449   6.524  16.526  0.00  0.00    +0.000 OA
ENDBRANCH   1  14
BRANCH   6  15
ATOM     15  O   UNL     1       6.112   4.087  15.479  0.00  0.00    +0.000 OA
BRANCH  15  16
ATOM     16  C   UNL     1       6.017   4.207  14.091  0.00  0.00    +0.000 C 
ATOM     17  C   UNL     1       7.276   4.834  13.557  0.00  0.00    +0.000 C 
ATOM     18  O   UNL     1       5.095   3.836  13.380  0.00  0.00    +0.000 OA
ENDBRANCH  15  16
ENDBRANCH   6  15
TORSDOF 3
ENDMDL
MODEL 8
REMARK VINA RESULT:      -7.1      1.761      3.010
REMARK  Name = 
REMARK  5 active torsions:
REMARK  status: ('A' for Active; 'I' for Inactive)
REMARK    1  A    between atoms: C_1  and  O_2
REMARK    2  A    between atoms: O_2  and  C_3
REMARK    3  A    between atoms: C_8  and  O_9
REMARK    4  A    between atoms: O_9  and  C_10
REMARK    5  A    between atoms: C_10  and  C_11
REMARK                            x       y       z     vdW  Elec       q    Type
REMARK                         _______ _______ _______ _____ _____    ______ ____
ROOT
ATOM      1  C   UNL     1       4.857   5.143  17.436  0.00  0.00    +0.000 A 
ATOM      2  C   UNL     1       3.494   4.861  17.543  0.00  0.00    +0.000 A 
ATOM      3  C   UNL     1       2.968   4.035  18.559  0.00  0.00    +0.000 A 
ATOM      4  C   UNL     1       3.841   3.468  19.500  0.00  0.00    +0.000 A 
ATOM      5  C   UNL     1       5.230   3.728  19.358  0.00  0.00    +0.000 A 
ATOM      6  C   UNL     1       5.733   4.543  18.341  0.00  0.00    +0.000 A 
ATOM      7  C   UNL     1       3.497   2.572  20.665  0.00  0.00    +0.000 C 
ATOM      8  C   UNL     1       2.047   2.347  21.063  0.00  0.00    +0.000 C 
ATOM      9  C   UNL     1       1.217   3.617  21.009  0.00  0.00    +0.000 C 
ATOM     10  C   UNL     1       0.574   3.746  19.647  0.00  0.00    +0.000 C 
ATOM     11  C   UNL     1       1.490   3.836  18.452  0.00  0.00    +0.000 C 
ATOM     12  O   UNL     1       0.988   3.834  17.323  0.00  0.00    +0.000 OA
ENDROOT
BRANCH   1  14
ATOM     13  C   UNL     1       5.552   5.371  15.181  0.00  0.00    +0.000 C 
ATOM     14  O   UNL     1       5.396   5.958  16.472  0.00  0.00    +0.000 OA
ENDBRANCH   1  14
BRANCH   6  15
ATOM     15  O   UNL     1       7.120   4.813  18.164  0.00  0.00    +0.000 OA
BRANCH  15  16
ATOM     16  C   UNL     1       7.949   5.584  18.983  0.00  0.00    +0.000 C 
ATOM     17  C   UNL     1       8.033   6.981  18.434  0.00  0.00    +0.000 C 
ATOM     18  O   UNL     1       8.501   5.229  20.013  0.00  0.00    +0.000 OA
ENDBRANCH  15  16
ENDBRANCH   6  15
TORSDOF 3
ENDMDL
MODEL 9
REMARK VINA RESULT:      -7.1      1.711      3.547
REMARK  Name = 
REMARK  5 active torsions:
REMARK  status: ('A' for Active; 'I' for Inactive)
REMARK    1  A    between atoms: C_1  and  O_2
REMARK    2  A    between atoms: O_2  and  C_3
REMARK    3  A    between atoms: C_8  and  O_9
REMARK    4  A    between atoms: O_9  and  C_10
REMARK    5  A    between atoms: C_10  and  C_11
REMARK                            x       y       z     vdW  Elec       q    Type
REMARK                         _______ _______ _______ _____ _____    ______ ____
ROOT
ATOM      1  C   UNL     1       6.089   4.936  16.517  0.00  0.00    +0.000 A 
ATOM      2  C   UNL     1       5.232   3.862  16.761  0.00  0.00    +0.000 A 
ATOM      3  C   UNL     1       4.177   3.931  17.696  0.00  0.00    +0.000 A 
ATOM      4  C   UNL     1       3.977   5.120  18.414  0.00  0.00    +0.000 A 
ATOM      5  C   UNL     1       4.880   6.193  18.187  0.00  0.00    +0.000 A 
ATOM      6  C   UNL     1       5.923   6.103  17.263  0.00  0.00    +0.000 A 
ATOM      7  C   UNL     1       2.913   5.416  19.444  0.00  0.00    +0.000 C 
ATOM      8  C   UNL     1       1.766   4.445  19.668  0.00  0.00    +0.000 C 
ATOM      9  C   UNL     1       1.214   3.876  18.373  0.00  0.00    +0.000 C 
ATOM     10  C   UNL     1       1.926   2.585  18.042  0.00  0.00    +0.000 C 
ATOM     11  C   UNL     1       3.418   2.650  17.826  0.00  0.00    +0.000 C 
ATOM     12  O   UNL     1       4.036   1.593  17.660  0.00  0.00    +0.000 OA
ENDROOT
BRANCH   1  14
ATOM     13  C   UNL     1       6.749   4.503  14.281  0.00  0.00    +0.000 C 
ATOM     14  O   UNL     1       7.111   4.905  15.601  0.00  0.00    +0.000 OA
ENDBRANCH   1  14
BRANCH   6  15
ATOM     15  O   UNL     1       6.852   7.154  17.022  0.00  0.00    +0.000 OA
BRANCH  15  16
ATOM     16  C   UNL     1       7.811   7.662  17.901  0.00  0.00    +0.000 C 
ATOM     17  C   UNL     1       8.031   9.121  17.612  0.00  0.00    +0.000 C 
ATOM     18  O   UNL     1       8.373   7.061  18.804  0.00  0.00    +0.000 OA
ENDBRANCH  15  16
ENDBRANCH   6  15
TORSDOF 3
ENDMDL
