MODEL 1
REMARK VINA RESULT:      -8.3      0.000      0.000
REMARK  Name = 
REMARK  4 active torsions:
REMARK  status: ('A' for Active; 'I' for Inactive)
REMARK    1  A    between atoms: C_1  and  C_2
REMARK    2  A    between atoms: C_5  and  C_6
REMARK    3  A    between atoms: N_10  and  C_11
REMARK    4  A    between atoms: C_14  and  C_15
REMARK                            x       y       z     vdW  Elec       q    Type
REMARK                         _______ _______ _______ _____ _____    ______ ____
ROOT
ATOM      1  C   UNL     1       4.680   4.233  18.090  0.00  0.00    +0.000 C 
ATOM      2  C   UNL     1       3.775   5.071  18.616  0.00  0.00    +0.000 C 
ATOM      3  S   UNL     1       2.929   4.837  20.118  0.00  0.00    +0.000 S 
ATOM      4  C   UNL     1       2.185   6.429  20.047  0.00  0.00    +0.000 C 
ATOM      5  N   UNL     1       1.475   6.931  20.997  0.00  0.00    +0.000 NA
ATOM      6  N   UNL     1       2.506   7.006  18.859  0.00  0.00    +0.000 N 
ATOM      7  C   UNL     1       3.365   6.371  18.023  0.00  0.00    +0.000 C 
ATOM      8  O   UNL     1       3.728   6.835  16.959  0.00  0.00    +0.000 OA
ATOM      9  H   UNL     1       2.171   7.929  18.610  0.00  0.00    +0.000 HD
ENDROOT
BRANCH   1  14
ATOM     10  C   UNL     1       7.718   5.048  13.232  0.00  0.00    +0.000 C 
ATOM     11  C   UNL     1       6.922   4.888  14.493  0.00  0.00    +0.000 A 
ATOM     12  C   UNL     1       7.419   5.324  15.726  0.00  0.00    +0.000 A 
ATOM     13  C   UNL     1       6.681   5.127  16.899  0.00  0.00    +0.000 A 
ATOM     14  C   UNL     1       5.434   4.491  16.854  0.00  0.00    +0.000 A 
ATOM     15  C   UNL     1       4.919   4.089  15.617  0.00  0.00    +0.000 A 
ATOM     16  C   UNL     1       5.663   4.276  14.448  0.00  0.00    +0.000 A 
ENDBRANCH   1  14
BRANCH   5  17
ATOM     17  C   UNL     1       1.042   8.217  20.835  0.00  0.00    +0.000 A 
ATOM     18  N   UNL     1       1.455   9.112  19.955  0.00  0.00    +0.000 NA
ATOM     19  N   UNL     1       0.884  10.352  20.095  0.00  0.00    +0.000 NA
ATOM     20  C   UNL     1       0.012  10.396  21.080  0.00  0.00    +0.000 A 
ATOM     21  S   UNL     1      -0.167   8.872  21.886  0.00  0.00    +0.000 S 
BRANCH  20  22
ATOM     22  C   UNL     1      -0.763  11.642  21.492  0.00  0.00    +0.000 C 
ATOM     23  C   UNL     1       0.188  12.870  21.647  0.00  0.00    +0.000 C 
ATOM     24  C   UNL     1      -0.597  14.128  22.068  0.00  0.00    +0.000 C 
ATOM     25  C   UNL     1      -1.652  14.451  20.999  0.00  0.00    +0.000 C 
ATOM     26  C   UNL     1      -2.616  13.265  20.842  0.00  0.00    +0.000 C 
ATOM     27  C   UNL     1      -3.312  12.998  22.187  0.00  0.00    +0.000 C 
ATOM     28  C   UNL     1      -2.267  12.677  23.267  0.00  0.00    +0.000 C 
ATOM     29  C   UNL     1      -1.300  13.861  23.409  0.00  0.00    +0.000 C 
ATOM     30  C   UNL     1      -1.478  11.423  22.851  0.00  0.00    +0.000 C 
ATOM     31  C   UNL     1      -1.823  12.013  20.423  0.00  0.00    +0.000 C 
ENDBRANCH  20  22
ENDBRANCH   5  17
TORSDOF 3
ENDMDL
MODEL 2
REMARK VINA RESULT:      -8.2      0.201      1.663
REMARK  Name = 
REMARK  4 active torsions:
REMARK  status: ('A' for Active; 'I' for Inactive)
REMARK    1  A    between atoms: C_1  and  C_2
REMARK    2  A    between atoms: C_5  and  C_6
REMARK    3  A    between atoms: N_10  and  C_11
REMARK    4  A    between atoms: C_14  and  C_15
REMARK                            x       y       z     vdW  Elec       q    Type
REMARK                         _______ _______ _______ _____ _____    ______ ____
ROOT
ATOM      1  C   UNL     1       4.761   4.069  18.151  0.00  0.00    +0.000 C 
ATOM      2  C   UNL     1       3.848   4.918  18.644  0.00  0.00    +0.000 C 
ATOM      3  S   UNL     1       2.966   4.710  20.129  0.00  0.00    +0.000 S 
ATOM      4  C   UNL     1       2.230   6.304  20.016  0.00  0.00    +0.000 C 
ATOM      5  N   UNL     1       1.500   6.822  20.942  0.00  0.00    +0.000 NA
ATOM      6  N   UNL     1       2.580   6.861  18.828  0.00  0.00    +0.000 N 
ATOM      7  C   UNL     1       3.456   6.210  18.022  0.00  0.00    +0.000 C 
ATOM      8  O   UNL     1       3.844   6.657  16.959  0.00  0.00    +0.000 OA
ATOM      9  H   UNL     1       2.255   7.781  18.557  0.00  0.00    +0.000 HD
ENDROOT
BRANCH   1  14
ATOM     10  C   UNL     1       7.757   5.193  13.328  0.00  0.00    +0.000 C 
ATOM     11  C   UNL     1       6.994   4.852  14.574  0.00  0.00    +0.000 A 
ATOM     12  C   UNL     1       5.807   4.114  14.520  0.00  0.00    +0.000 A 
ATOM     13  C   UNL     1       5.086   3.842  15.689  0.00  0.00    +0.000 A 
ATOM     14  C   UNL     1       5.544   4.306  16.929  0.00  0.00    +0.000 A 
ATOM     15  C   UNL     1       6.750   5.011  16.988  0.00  0.00    +0.000 A 
ATOM     16  C   UNL     1       7.463   5.291  15.818  0.00  0.00    +0.000 A 
ENDBRANCH   1  14
BRANCH   5  17
ATOM     17  C   UNL     1       1.076   8.107  20.751  0.00  0.00    +0.000 A 
ATOM     18  N   UNL     1       1.451   8.959  19.812  0.00  0.00    +0.000 NA
ATOM     19  N   UNL     1       0.904  10.212  19.932  0.00  0.00    +0.000 NA
ATOM     20  C   UNL     1       0.089  10.309  20.961  0.00  0.00    +0.000 A 
ATOM     21  S   UNL     1      -0.065   8.823  21.838  0.00  0.00    +0.000 S 
BRANCH  20  22
ATOM     22  C   UNL     1      -0.646  11.583  21.362  0.00  0.00    +0.000 C 
ATOM     23  C   UNL     1      -1.773  11.928  20.339  0.00  0.00    +0.000 C 
ATOM     24  C   UNL     1      -2.512  13.219  20.744  0.00  0.00    +0.000 C 
ATOM     25  C   UNL     1      -3.143  13.029  22.131  0.00  0.00    +0.000 C 
ATOM     26  C   UNL     1      -2.051  12.710  23.163  0.00  0.00    +0.000 C 
ATOM     27  C   UNL     1      -1.045  13.873  23.210  0.00  0.00    +0.000 C 
ATOM     28  C   UNL     1      -0.408  14.075  21.826  0.00  0.00    +0.000 C 
ATOM     29  C   UNL     1      -1.507  14.381  20.799  0.00  0.00    +0.000 C 
ATOM     30  C   UNL     1       0.329  12.789  21.415  0.00  0.00    +0.000 C 
ATOM     31  C   UNL     1      -1.318  11.421  22.749  0.00  0.00    +0.000 C 
ENDBRANCH  20  22
ENDBRANCH   5  17
TORSDOF 3
ENDMDL
MODEL 3
REMARK VINA RESULT:      -8.2      0.053      1.374
REMARK  Name = 
REMARK  4 active torsions:
REMARK  status: ('A' for Active; 'I' for Inactive)
REMARK    1  A    between atoms: C_1  and  C_2
REMARK    2  A    between atoms: C_5  and  C_6
REMARK    3  A    between atoms: N_10  and  C_11
REMARK    4  A    between atoms: C_14  and  C_15
REMARK                            x       y       z     vdW  Elec       q    Type
REMARK                         _______ _______ _______ _____ _____    ______ ____
ROOT
ATOM      1  C   UNL     1       4.698   4.243  18.072  0.00  0.00    +0.000 C 
ATOM      2  C   UNL     1       3.795   5.084  18.596  0.00  0.00    +0.000 C 
ATOM      3  S   UNL     1       2.950   4.857  20.100  0.00  0.00    +0.000 S 
ATOM      4  C   UNL     1       2.208   6.450  20.022  0.00  0.00    +0.000 C 
ATOM      5  N   UNL     1       1.499   6.956  20.972  0.00  0.00    +0.000 NA
ATOM      6  N   UNL     1       2.527   7.020  18.832  0.00  0.00    +0.000 N 
ATOM      7  C   UNL     1       3.384   6.381  17.997  0.00  0.00    +0.000 C 
ATOM      8  O   UNL     1       3.745   6.840  16.930  0.00  0.00    +0.000 OA
ATOM      9  H   UNL     1       2.192   7.943  18.579  0.00  0.00    +0.000 HD
ENDROOT
BRANCH   1  14
ATOM     10  C   UNL     1       7.729   5.033  13.205  0.00  0.00    +0.000 C 
ATOM     11  C   UNL     1       6.935   4.880  14.468  0.00  0.00    +0.000 A 
ATOM     12  C   UNL     1       7.435   5.320  15.699  0.00  0.00    +0.000 A 
ATOM     13  C   UNL     1       6.698   5.129  16.874  0.00  0.00    +0.000 A 
ATOM     14  C   UNL     1       5.450   4.494  16.833  0.00  0.00    +0.000 A 
ATOM     15  C   UNL     1       4.933   4.088  15.599  0.00  0.00    +0.000 A 
ATOM     16  C   UNL     1       5.675   4.269  14.428  0.00  0.00    +0.000 A 
ENDBRANCH   1  14
BRANCH   5  17
ATOM     17  C   UNL     1       1.067   8.242  20.804  0.00  0.00    +0.000 A 
ATOM     18  N   UNL     1       1.468   9.128  19.909  0.00  0.00    +0.000 NA
ATOM     19  N   UNL     1       0.902  10.370  20.047  0.00  0.00    +0.000 NA
ATOM     20  C   UNL     1       0.045  10.425  21.044  0.00  0.00    +0.000 A 
ATOM     21  S   UNL     1      -0.126   8.909  21.866  0.00  0.00    +0.000 S 
BRANCH  20  22
ATOM     22  C   UNL     1      -0.721  11.677  21.456  0.00  0.00    +0.000 C 
ATOM     23  C   UNL     1      -1.437  11.472  22.828  0.00  0.00    +0.000 C 
ATOM     24  C   UNL     1      -2.216  12.737  23.239  0.00  0.00    +0.000 C 
ATOM     25  C   UNL     1      -1.240  13.917  23.362  0.00  0.00    +0.000 C 
ATOM     26  C   UNL     1      -0.536  14.154  22.017  0.00  0.00    +0.000 C 
ATOM     27  C   UNL     1      -1.591  14.469  20.943  0.00  0.00    +0.000 C 
ATOM     28  C   UNL     1      -2.576  13.297  20.813  0.00  0.00    +0.000 C 
ATOM     29  C   UNL     1      -3.266  13.058  22.164  0.00  0.00    +0.000 C 
ATOM     30  C   UNL     1      -1.805  12.030  20.404  0.00  0.00    +0.000 C 
ATOM     31  C   UNL     1       0.237  12.886  21.613  0.00  0.00    +0.000 C 
ENDBRANCH  20  22
ENDBRANCH   5  17
TORSDOF 3
ENDMDL
MODEL 4
REMARK VINA RESULT:      -8.2      3.274      4.560
REMARK  Name = 
REMARK  4 active torsions:
REMARK  status: ('A' for Active; 'I' for Inactive)
REMARK    1  A    between atoms: C_1  and  C_2
REMARK    2  A    between atoms: C_5  and  C_6
REMARK    3  A    between atoms: N_10  and  C_11
REMARK    4  A    between atoms: C_14  and  C_15
REMARK                            x       y       z     vdW  Elec       q    Type
REMARK                         _______ _______ _______ _____ _____    ______ ____
ROOT
ATOM      1  C   UNL     1       2.654   5.753  19.854  0.00  0.00    +0.000 C 
ATOM      2  C   UNL     1       2.085   6.968  19.832  0.00  0.00    +0.000 C 
ATOM      3  S   UNL     1       1.058   7.628  21.071  0.00  0.00    +0.000 S 
ATOM      4  C   UNL     1       0.989   9.204  20.293  0.00  0.00    +0.000 C 
ATOM      5  N   UNL     1       0.425  10.237  20.818  0.00  0.00    +0.000 NA
ATOM      6  N   UNL     1       1.630   9.128  19.098  0.00  0.00    +0.000 N 
ATOM      7  C   UNL     1       2.267   7.979  18.758  0.00  0.00    +0.000 C 
ATOM      8  O   UNL     1       2.890   7.842  17.723  0.00  0.00    +0.000 OA
ATOM      9  H   UNL     1       1.701   9.929  18.481  0.00  0.00    +0.000 HD
ENDROOT
BRANCH   1  14
ATOM     10  C   UNL     1       6.282   3.954  15.718  0.00  0.00    +0.000 C 
ATOM     11  C   UNL     1       5.336   4.371  16.805  0.00  0.00    +0.000 A 
ATOM     12  C   UNL     1       3.967   4.092  16.723  0.00  0.00    +0.000 A 
ATOM     13  C   UNL     1       3.093   4.527  17.727  0.00  0.00    +0.000 A 
ATOM     14  C   UNL     1       3.577   5.248  18.826  0.00  0.00    +0.000 A 
ATOM     15  C   UNL     1       4.949   5.494  18.927  0.00  0.00    +0.000 A 
ATOM     16  C   UNL     1       5.819   5.069  17.919  0.00  0.00    +0.000 A 
ENDBRANCH   1  14
BRANCH   5  17
ATOM     17  C   UNL     1       0.534  11.416  20.135  0.00  0.00    +0.000 A 
ATOM     18  N   UNL     1      -0.018  11.745  18.980  0.00  0.00    +0.000 NA
ATOM     19  N   UNL     1       0.348  12.980  18.507  0.00  0.00    +0.000 NA
ATOM     20  C   UNL     1       1.172  13.606  19.319  0.00  0.00    +0.000 A 
ATOM     21  S   UNL     1       1.527  12.694  20.749  0.00  0.00    +0.000 S 
BRANCH  20  22
ATOM     22  C   UNL     1       1.769  14.983  19.050  0.00  0.00    +0.000 C 
ATOM     23  C   UNL     1       2.430  15.570  20.336  0.00  0.00    +0.000 C 
ATOM     24  C   UNL     1       3.028  16.965  20.063  0.00  0.00    +0.000 C 
ATOM     25  C   UNL     1       4.096  16.853  18.965  0.00  0.00    +0.000 C 
ATOM     26  C   UNL     1       3.467  16.297  17.679  0.00  0.00    +0.000 C 
ATOM     27  C   UNL     1       2.348  17.243  17.213  0.00  0.00    +0.000 C 
ATOM     28  C   UNL     1       1.273  17.366  18.305  0.00  0.00    +0.000 C 
ATOM     29  C   UNL     1       1.913  17.910  19.590  0.00  0.00    +0.000 C 
ATOM     30  C   UNL     1       0.674  15.977  18.584  0.00  0.00    +0.000 C 
ATOM     31  C   UNL     1       2.871  14.905  17.962  0.00  0.00    +0.000 C 
ENDBRANCH  20  22
ENDBRANCH   5  17
TORSDOF 3
ENDMDL
MODEL 5
REMARK VINA RESULT:      -8.2      3.282      4.515
REMARK  Name = 
REMARK  4 active torsions:
REMARK  status: ('A' for Active; 'I' for Inactive)
REMARK    1  A    between atoms: C_1  and  C_2
REMARK    2  A    between atoms: C_5  and  C_6
REMARK    3  A    between atoms: N_10  and  C_11
REMARK    4  A    between atoms: C_14  and  C_15
REMARK                            x       y       z     vdW  Elec       q    Type
REMARK                         _______ _______ _______ _____ _____    ______ ____
ROOT
ATOM      1  C   UNL     1       2.661   5.768  19.872  0.00  0.00    +0.000 C 
ATOM      2  C   UNL     1       2.088   6.980  19.850  0.00  0.00    +0.000 C 
ATOM      3  S   UNL     1       1.053   7.636  21.085  0.00  0.00    +0.000 S 
ATOM      4  C   UNL     1       0.982   9.213  20.307  0.00  0.00    +0.000 C 
ATOM      5  N   UNL     1       0.413  10.243  20.831  0.00  0.00    +0.000 NA
ATOM      6  N   UNL     1       1.628   9.139  19.115  0.00  0.00    +0.000 N 
ATOM      7  C   UNL     1       2.270   7.993  18.777  0.00  0.00    +0.000 C 
ATOM      8  O   UNL     1       2.898   7.859  17.744  0.00  0.00    +0.000 OA
ATOM      9  H   UNL     1       1.698   9.941  18.499  0.00  0.00    +0.000 HD
ENDROOT
BRANCH   1  14
ATOM     10  C   UNL     1       6.312   3.985  15.750  0.00  0.00    +0.000 C 
ATOM     11  C   UNL     1       5.360   4.397  16.834  0.00  0.00    +0.000 A 
ATOM     12  C   UNL     1       3.993   4.112  16.747  0.00  0.00    +0.000 A 
ATOM     13  C   UNL     1       3.113   4.543  17.747  0.00  0.00    +0.000 A 
ATOM     14  C   UNL     1       3.590   5.266  18.848  0.00  0.00    +0.000 A 
ATOM     15  C   UNL     1       4.961   5.519  18.954  0.00  0.00    +0.000 A 
ATOM     16  C   UNL     1       5.836   5.098  17.949  0.00  0.00    +0.000 A 
ENDBRANCH   1  14
BRANCH   5  17
ATOM     17  C   UNL     1       0.520  11.423  20.149  0.00  0.00    +0.000 A 
ATOM     18  N   UNL     1      -0.055  11.762  19.008  0.00  0.00    +0.000 NA
ATOM     19  N   UNL     1       0.315  12.994  18.530  0.00  0.00    +0.000 NA
ATOM     20  C   UNL     1       1.165  13.608  19.325  0.00  0.00    +0.000 A 
ATOM     21  S   UNL     1       1.542  12.687  20.744  0.00  0.00    +0.000 S 
BRANCH  20  22
ATOM     22  C   UNL     1       1.772  14.978  19.047  0.00  0.00    +0.000 C 
ATOM     23  C   UNL     1       2.858  14.895  17.928  0.00  0.00    +0.000 C 
ATOM     24  C   UNL     1       3.473  16.281  17.652  0.00  0.00    +0.000 C 
ATOM     25  C   UNL     1       2.368  17.247  17.199  0.00  0.00    +0.000 C 
ATOM     26  C   UNL     1       1.297  17.364  18.293  0.00  0.00    +0.000 C 
ATOM     27  C   UNL     1       1.946  17.894  19.583  0.00  0.00    +0.000 C 
ATOM     28  C   UNL     1       3.056  16.937  20.045  0.00  0.00    +0.000 C 
ATOM     29  C   UNL     1       4.117  16.816  18.941  0.00  0.00    +0.000 C 
ATOM     30  C   UNL     1       2.448  15.551  20.320  0.00  0.00    +0.000 C 
ATOM     31  C   UNL     1       0.689  15.976  18.563  0.00  0.00    +0.000 C 
ENDBRANCH  20  22
ENDBRANCH   5  17
TORSDOF 3
ENDMDL
MODEL 6
REMARK VINA RESULT:      -8.2      6.867     10.838
REMARK  Name = 
REMARK  4 active torsions:
REMARK  status: ('A' for Active; 'I' for Inactive)
REMARK    1  A    between atoms: C_1  and  C_2
REMARK    2  A    between atoms: C_5  and  C_6
REMARK    3  A    between atoms: N_10  and  C_11
REMARK    4  A    between atoms: C_14  and  C_15
REMARK                            x       y       z     vdW  Elec       q    Type
REMARK                         _______ _______ _______ _____ _____    ______ ____
ROOT
ATOM      1  C   UNL     1       0.119  13.387  20.344  0.00  0.00    +0.000 C 
ATOM      2  C   UNL     1       1.348  13.886  20.143  0.00  0.00    +0.000 C 
ATOM      3  S   UNL     1       2.178  14.991  21.200  0.00  0.00    +0.000 S 
ATOM      4  C   UNL     1       3.665  14.902  20.264  0.00  0.00    +0.000 C 
ATOM      5  N   UNL     1       4.771  15.458  20.623  0.00  0.00    +0.000 NA
ATOM      6  N   UNL     1       3.436  14.155  19.153  0.00  0.00    +0.000 N 
ATOM      7  C   UNL     1       2.232  13.550  18.997  0.00  0.00    +0.000 C 
ATOM      8  O   UNL     1       1.960  12.838  18.048  0.00  0.00    +0.000 OA
ATOM      9  H   UNL     1       4.164  13.983  18.470  0.00  0.00    +0.000 HD
ENDROOT
BRANCH   1  14
ATOM     10  C   UNL     1      -2.621   9.533  17.007  0.00  0.00    +0.000 C 
ATOM     11  C   UNL     1      -1.866  10.515  17.853  0.00  0.00    +0.000 A 
ATOM     12  C   UNL     1      -1.109  10.095  18.952  0.00  0.00    +0.000 A 
ATOM     13  C   UNL     1      -0.445  11.030  19.756  0.00  0.00    +0.000 A 
ATOM     14  C   UNL     1      -0.531  12.399  19.470  0.00  0.00    +0.000 A 
ATOM     15  C   UNL     1      -1.256  12.816  18.350  0.00  0.00    +0.000 A 
ATOM     16  C   UNL     1      -1.928  11.882  17.555  0.00  0.00    +0.000 A 
ENDBRANCH   1  14
BRANCH   5  17
ATOM     17  C   UNL     1       5.866  15.222  19.840  0.00  0.00    +0.000 A 
ATOM     18  N   UNL     1       5.998  15.423  18.540  0.00  0.00    +0.000 NA
ATOM     19  N   UNL     1       7.198  15.008  18.021  0.00  0.00    +0.000 NA
ATOM     20  C   UNL     1       7.996  14.504  18.938  0.00  0.00    +0.000 A 
ATOM     21  S   UNL     1       7.300  14.538  20.525  0.00  0.00    +0.000 S 
BRANCH  20  22
ATOM     22  C   UNL     1       9.384  13.939  18.659  0.00  0.00    +0.000 C 
ATOM     23  C   UNL     1       9.306  12.687  17.730  0.00  0.00    +0.000 C 
ATOM     24  C   UNL     1      10.710  12.115  17.453  0.00  0.00    +0.000 C 
ATOM     25  C   UNL     1      11.569  13.187  16.766  0.00  0.00    +0.000 C 
ATOM     26  C   UNL     1      11.682  14.424  17.670  0.00  0.00    +0.000 C 
ATOM     27  C   UNL     1      12.333  14.019  19.003  0.00  0.00    +0.000 C 
ATOM     28  C   UNL     1      11.484  12.944  19.699  0.00  0.00    +0.000 C 
ATOM     29  C   UNL     1      11.366  11.716  18.785  0.00  0.00    +0.000 C 
ATOM     30  C   UNL     1      10.080  13.508  19.976  0.00  0.00    +0.000 C 
ATOM     31  C   UNL     1      10.275  14.987  17.943  0.00  0.00    +0.000 C 
ENDBRANCH  20  22
ENDBRANCH   5  17
TORSDOF 3
ENDMDL
MODEL 7
REMARK VINA RESULT:      -8.2      3.132     10.776
REMARK  Name = 
REMARK  4 active torsions:
REMARK  status: ('A' for Active; 'I' for Inactive)
REMARK    1  A    between atoms: C_1  and  C_2
REMARK    2  A    between atoms: C_5  and  C_6
REMARK    3  A    between atoms: N_10  and  C_11
REMARK    4  A    between atoms: C_14  and  C_15
REMARK                            x       y       z     vdW  Elec       q    Type
REMARK                         _______ _______ _______ _____ _____    ______ ____
ROOT
ATOM      1  C   UNL     1      -0.352  14.354  20.406  0.00  0.00    +0.000 C 
ATOM      2  C   UNL     1       0.019  13.126  20.018  0.00  0.00    +0.000 C 
ATOM      3  S   UNL     1       1.063  12.758  18.675  0.00  0.00    +0.000 S 
ATOM      4  C   UNL     1       1.108  11.044  19.069  0.00  0.00    +0.000 C 
ATOM      5  N   UNL     1       1.857  10.191  18.461  0.00  0.00    +0.000 NA
ATOM      6  N   UNL     1       0.255  10.812  20.100  0.00  0.00    +0.000 N 
ATOM      7  C   UNL     1      -0.369  11.860  20.694  0.00  0.00    +0.000 C 
ATOM      8  O   UNL     1      -1.121  11.739  21.643  0.00  0.00    +0.000 OA
ATOM      9  H   UNL     1       0.124   9.883  20.481  0.00  0.00    +0.000 HD
ENDROOT
BRANCH   1  14
ATOM     10  C   UNL     1      -3.604  15.682  25.007  0.00  0.00    +0.000 C 
ATOM     11  C   UNL     1      -2.754  15.290  23.834  0.00  0.00    +0.000 A 
ATOM     12  C   UNL     1      -1.370  15.128  23.963  0.00  0.00    +0.000 A 
ATOM     13  C   UNL     1      -0.587  14.804  22.848  0.00  0.00    +0.000 A 
ATOM     14  C   UNL     1      -1.178  14.640  21.589  0.00  0.00    +0.000 A 
ATOM     15  C   UNL     1      -2.566  14.765  21.467  0.00  0.00    +0.000 A 
ATOM     16  C   UNL     1      -3.345  15.099  22.579  0.00  0.00    +0.000 A 
ENDBRANCH   1  14
BRANCH   5  17
ATOM     17  C   UNL     1       1.854   8.911  18.941  0.00  0.00    +0.000 A 
ATOM     18  N   UNL     1       1.586   8.500  20.169  0.00  0.00    +0.000 NA
ATOM     19  N   UNL     1       1.747   7.152  20.365  0.00  0.00    +0.000 NA
ATOM     20  C   UNL     1       2.123   6.526  19.270  0.00  0.00    +0.000 A 
ATOM     21  S   UNL     1       2.278   7.588  17.909  0.00  0.00    +0.000 S 
BRANCH  20  22
ATOM     22  C   UNL     1       2.405   5.031  19.185  0.00  0.00    +0.000 C 
ATOM     23  C   UNL     1       1.714   4.260  20.353  0.00  0.00    +0.000 C 
ATOM     24  C   UNL     1       2.004   2.749  20.268  0.00  0.00    +0.000 C 
ATOM     25  C   UNL     1       1.473   2.204  18.933  0.00  0.00    +0.000 C 
ATOM     26  C   UNL     1       2.155   2.931  17.764  0.00  0.00    +0.000 C 
ATOM     27  C   UNL     1       3.674   2.704  17.844  0.00  0.00    +0.000 C 
ATOM     28  C   UNL     1       4.218   3.242  19.177  0.00  0.00    +0.000 C 
ATOM     29  C   UNL     1       3.522   2.520  20.340  0.00  0.00    +0.000 C 
ATOM     30  C   UNL     1       3.928   4.750  19.270  0.00  0.00    +0.000 C 
ATOM     31  C   UNL     1       1.861   4.439  17.859  0.00  0.00    +0.000 C 
ENDBRANCH  20  22
ENDBRANCH   5  17
TORSDOF 3
ENDMDL
MODEL 8
REMARK VINA RESULT:      -8.2      3.154     10.775
REMARK  Name = 
REMARK  4 active torsions:
REMARK  status: ('A' for Active; 'I' for Inactive)
REMARK    1  A    between atoms: C_1  and  C_2
REMARK    2  A    between atoms: C_5  and  C_6
REMARK    3  A    between atoms: N_10  and  C_11
REMARK    4  A    between atoms: C_14  and  C_15
REMARK                            x       y       z     vdW  Elec       q    Type
REMARK                         _______ _______ _______ _____ _____    ______ ____
ROOT
ATOM      1  C   UNL     1      -0.352  14.378  20.358  0.00  0.00    +0.000 C 
ATOM      2  C   UNL     1       0.017  13.145  19.979  0.00  0.00    +0.000 C 
ATOM      3  S   UNL     1       1.065  12.766  18.643  0.00  0.00    +0.000 S 
ATOM      4  C   UNL     1       1.104  11.055  19.048  0.00  0.00    +0.000 C 
ATOM      5  N   UNL     1       1.853  10.195  18.449  0.00  0.00    +0.000 NA
ATOM      6  N   UNL     1       0.246  10.832  20.078  0.00  0.00    +0.000 N 
ATOM      7  C   UNL     1      -0.377  11.885  20.662  0.00  0.00    +0.000 C 
ATOM      8  O   UNL     1      -1.133  11.773  21.609  0.00  0.00    +0.000 OA
ATOM      9  H   UNL     1       0.110   9.905  20.464  0.00  0.00    +0.000 HD
ENDROOT
BRANCH   1  14
ATOM     10  C   UNL     1      -3.617  15.745  24.938  0.00  0.00    +0.000 C 
ATOM     11  C   UNL     1      -2.764  15.343  23.771  0.00  0.00    +0.000 A 
ATOM     12  C   UNL     1      -1.383  15.163  23.908  0.00  0.00    +0.000 A 
ATOM     13  C   UNL     1      -0.597  14.830  22.799  0.00  0.00    +0.000 A 
ATOM     14  C   UNL     1      -1.182  14.673  21.536  0.00  0.00    +0.000 A 
ATOM     15  C   UNL     1      -2.567  14.816  21.405  0.00  0.00    +0.000 A 
ATOM     16  C   UNL     1      -3.349  15.160  22.512  0.00  0.00    +0.000 A 
ENDBRANCH   1  14
BRANCH   5  17
ATOM     17  C   UNL     1       1.844   8.919  18.937  0.00  0.00    +0.000 A 
ATOM     18  N   UNL     1       1.564   8.516  20.165  0.00  0.00    +0.000 NA
ATOM     19  N   UNL     1       1.722   7.169  20.371  0.00  0.00    +0.000 NA
ATOM     20  C   UNL     1       2.108   6.536  19.284  0.00  0.00    +0.000 A 
ATOM     21  S   UNL     1       2.276   7.589  17.918  0.00  0.00    +0.000 S 
BRANCH  20  22
ATOM     22  C   UNL     1       2.389   5.039  19.211  0.00  0.00    +0.000 C 
ATOM     23  C   UNL     1       3.910   4.743  19.402  0.00  0.00    +0.000 C 
ATOM     24  C   UNL     1       4.192   3.229  19.323  0.00  0.00    +0.000 C 
ATOM     25  C   UNL     1       3.404   2.507  20.426  0.00  0.00    +0.000 C 
ATOM     26  C   UNL     1       1.901   2.764  20.248  0.00  0.00    +0.000 C 
ATOM     27  C   UNL     1       1.457   2.240  18.871  0.00  0.00    +0.000 C 
ATOM     28  C   UNL     1       2.240   2.954  17.758  0.00  0.00    +0.000 C 
ATOM     29  C   UNL     1       3.743   2.702  17.951  0.00  0.00    +0.000 C 
ATOM     30  C   UNL     1       1.965   4.465  17.834  0.00  0.00    +0.000 C 
ATOM     31  C   UNL     1       1.628   4.278  20.327  0.00  0.00    +0.000 C 
ENDBRANCH  20  22
ENDBRANCH   5  17
TORSDOF 3
ENDMDL
MODEL 9
REMARK VINA RESULT:      -8.2      3.138     10.788
REMARK  Name = 
REMARK  4 active torsions:
REMARK  status: ('A' for Active; 'I' for Inactive)
REMARK    1  A    between atoms: C_1  and  C_2
REMARK    2  A    between atoms: C_5  and  C_6
REMARK    3  A    between atoms: N_10  and  C_11
REMARK    4  A    between atoms: C_14  and  C_15
REMARK                            x       y       z     vdW  Elec       q    Type
REMARK                         _______ _______ _______ _____ _____    ______ ____
ROOT
ATOM      1  C   UNL     1      -0.481  14.343  20.327  0.00  0.00    +0.000 C 
ATOM      2  C   UNL     1      -0.089  13.117  19.953  0.00  0.00    +0.000 C 
ATOM      3  S   UNL     1       0.972  12.753  18.623  0.00  0.00    +0.000 S 
ATOM      4  C   UNL     1       1.040  11.044  19.033  0.00  0.00    +0.000 C 
ATOM      5  N   UNL     1       1.806  10.196  18.439  0.00  0.00    +0.000 NA
ATOM      6  N   UNL     1       0.181  10.808  20.059  0.00  0.00    +0.000 N 
ATOM      7  C   UNL     1      -0.464  11.852  20.638  0.00  0.00    +0.000 C 
ATOM      8  O   UNL     1      -1.221  11.729  21.582  0.00  0.00    +0.000 OA
ATOM      9  H   UNL     1       0.060   9.880  20.447  0.00  0.00    +0.000 HD
ENDROOT
BRANCH   1  14
ATOM     10  C   UNL     1      -3.790  15.664  24.889  0.00  0.00    +0.000 C 
ATOM     11  C   UNL     1      -2.925  15.274  23.727  0.00  0.00    +0.000 A 
ATOM     12  C   UNL     1      -1.542  15.120  23.871  0.00  0.00    +0.000 A 
ATOM     13  C   UNL     1      -0.744  14.798  22.765  0.00  0.00    +0.000 A 
ATOM     14  C   UNL     1      -1.322  14.627  21.501  0.00  0.00    +0.000 A 
ATOM     15  C   UNL     1      -2.708  14.744  21.364  0.00  0.00    +0.000 A 
ATOM     16  C   UNL     1      -3.501  15.077  22.466  0.00  0.00    +0.000 A 
ENDBRANCH   1  14
BRANCH   5  17
ATOM     17  C   UNL     1       1.818   8.920  18.931  0.00  0.00    +0.000 A 
ATOM     18  N   UNL     1       1.563   8.519  20.164  0.00  0.00    +0.000 NA
ATOM     19  N   UNL     1       1.738   7.174  20.371  0.00  0.00    +0.000 NA
ATOM     20  C   UNL     1       2.110   6.541  19.279  0.00  0.00    +0.000 A 
ATOM     21  S   UNL     1       2.245   7.592  17.907  0.00  0.00    +0.000 S 
BRANCH  20  22
ATOM     22  C   UNL     1       2.404   5.047  19.205  0.00  0.00    +0.000 C 
ATOM     23  C   UNL     1       1.998   4.463  17.815  0.00  0.00    +0.000 C 
ATOM     24  C   UNL     1       2.292   2.951  17.745  0.00  0.00    +0.000 C 
ATOM     25  C   UNL     1       3.794   2.714  17.962  0.00  0.00    +0.000 C 
ATOM     26  C   UNL     1       4.216   3.261  19.333  0.00  0.00    +0.000 C 
ATOM     27  C   UNL     1       3.418   2.540  20.433  0.00  0.00    +0.000 C 
ATOM     28  C   UNL     1       1.912   2.767  20.225  0.00  0.00    +0.000 C 
ATOM     29  C   UNL     1       1.501   2.229  18.847  0.00  0.00    +0.000 C 
ATOM     30  C   UNL     1       1.613   4.275  20.292  0.00  0.00    +0.000 C 
ATOM     31  C   UNL     1       3.918   4.770  19.396  0.00  0.00    +0.000 C 
ENDBRANCH  20  22
ENDBRANCH   5  17
TORSDOF 3
ENDMDL
