MODEL 1
REMARK VINA RESULT:      -6.0      0.000      0.000
REMARK  Name = 
REMARK  3 active torsions:
REMARK  status: ('A' for Active; 'I' for Inactive)
REMARK    1  A    between atoms: N_1  and  C_2
REMARK    2  A    between atoms: C_2  and  C_3
REMARK    3  A    between atoms: C_2  and  C_9
REMARK                            x       y       z     vdW  Elec       q    Type
REMARK                         _______ _______ _______ _____ _____    ______ ____
ROOT
ATOM      1  C   UNL     1       4.157   3.768  19.402  0.00  0.00    +0.000 C 
ENDROOT
BRANCH   1   2
ATOM      2  C   UNL     1       4.440   4.569  18.140  0.00  0.00    +0.000 A 
ATOM      3  C   UNL     1       5.012   4.034  16.972  0.00  0.00    +0.000 A 
ATOM      4  C   UNL     1       5.330   4.850  15.884  0.00  0.00    +0.000 A 
ATOM      5  C   UNL     1       5.104   6.222  15.948  0.00  0.00    +0.000 A 
ATOM      6  C   UNL     1       4.549   6.778  17.096  0.00  0.00    +0.000 A 
ATOM      7  C   UNL     1       4.217   5.960  18.179  0.00  0.00    +0.000 A 
ENDBRANCH   1   2
BRANCH   1   8
ATOM      8  C   UNL     1       2.690   3.421  19.465  0.00  0.00    +0.000 A 
ATOM      9  C   UNL     1       1.752   3.788  20.411  0.00  0.00    +0.000 A 
ATOM     10  N   UNL     1       0.585   3.189  20.028  0.00  0.00    +0.000 N 
ATOM     11  C   UNL     1       0.833   2.488  18.884  0.00  0.00    +0.000 A 
ATOM     12  N   UNL     1       2.088   2.604  18.512  0.00  0.00    +0.000 NA
ATOM     13  H   UNL     1      -0.306   3.246  20.503  0.00  0.00    +0.000 HD
ENDBRANCH   1   8
BRANCH   1  14
ATOM     14  N   UNL     1       4.954   2.539  19.434  0.00  0.00    +0.000 NA
ATOM     15  H   UNL     1       5.369   2.400  18.518  0.00  0.00    +0.000 HD
ATOM     16  H   UNL     1       4.283   1.778  19.561  0.00  0.00    +0.000 HD
ENDBRANCH   1  14
TORSDOF 3
ENDMDL
MODEL 2
REMARK VINA RESULT:      -6.0      2.748      4.698
REMARK  Name = 
REMARK  3 active torsions:
REMARK  status: ('A' for Active; 'I' for Inactive)
REMARK    1  A    between atoms: N_1  and  C_2
REMARK    2  A    between atoms: C_2  and  C_3
REMARK    3  A    between atoms: C_2  and  C_9
REMARK                            x       y       z     vdW  Elec       q    Type
REMARK                         _______ _______ _______ _____ _____    ______ ____
ROOT
ATOM      1  C   UNL     1       5.806   4.244  18.458  0.00  0.00    +0.000 C 
ENDROOT
BRANCH   1   2
ATOM      2  C   UNL     1       4.296   4.164  18.288  0.00  0.00    +0.000 A 
ATOM      3  C   UNL     1       3.585   2.973  18.053  0.00  0.00    +0.000 A 
ATOM      4  C   UNL     1       2.209   2.988  17.813  0.00  0.00    +0.000 A 
ATOM      5  C   UNL     1       1.517   4.195  17.781  0.00  0.00    +0.000 A 
ATOM      6  C   UNL     1       2.198   5.388  18.000  0.00  0.00    +0.000 A 
ATOM      7  C   UNL     1       3.572   5.372  18.255  0.00  0.00    +0.000 A 
ENDBRANCH   1   2
BRANCH   1   8
ATOM      8  C   UNL     1       6.435   4.739  17.179  0.00  0.00    +0.000 A 
ATOM      9  C   UNL     1       7.161   5.895  16.962  0.00  0.00    +0.000 A 
ATOM     10  N   UNL     1       7.475   5.890  15.632  0.00  0.00    +0.000 N 
ATOM     11  C   UNL     1       6.948   4.758  15.084  0.00  0.00    +0.000 A 
ATOM     12  N   UNL     1       6.317   4.037  15.983  0.00  0.00    +0.000 NA
ATOM     13  H   UNL     1       8.000   6.597  15.134  0.00  0.00    +0.000 HD
ENDBRANCH   1   8
BRANCH   1  14
ATOM     14  N   UNL     1       6.164   5.139  19.560  0.00  0.00    +0.000 NA
ATOM     15  H   UNL     1       6.321   4.578  20.393  0.00  0.00    +0.000 HD
ATOM     16  H   UNL     1       5.326   5.696  19.746  0.00  0.00    +0.000 HD
ENDBRANCH   1  14
TORSDOF 3
ENDMDL
MODEL 3
REMARK VINA RESULT:      -6.0      2.691      4.912
REMARK  Name = 
REMARK  3 active torsions:
REMARK  status: ('A' for Active; 'I' for Inactive)
REMARK    1  A    between atoms: N_1  and  C_2
REMARK    2  A    between atoms: C_2  and  C_3
REMARK    3  A    between atoms: C_2  and  C_9
REMARK                            x       y       z     vdW  Elec       q    Type
REMARK                         _______ _______ _______ _____ _____    ______ ____
ROOT
ATOM      1  C   UNL     1       5.734   4.216  18.385  0.00  0.00    +0.000 C 
ENDROOT
BRANCH   1   2
ATOM      2  C   UNL     1       4.229   4.151  18.165  0.00  0.00    +0.000 A 
ATOM      3  C   UNL     1       3.383   5.273  18.131  0.00  0.00    +0.000 A 
ATOM      4  C   UNL     1       1.998   5.131  18.018  0.00  0.00    +0.000 A 
ATOM      5  C   UNL     1       1.427   3.863  17.960  0.00  0.00    +0.000 A 
ATOM      6  C   UNL     1       2.241   2.735  18.002  0.00  0.00    +0.000 A 
ATOM      7  C   UNL     1       3.628   2.878  18.099  0.00  0.00    +0.000 A 
ENDBRANCH   1   2
BRANCH   1   8
ATOM      8  C   UNL     1       6.408   4.728  17.136  0.00  0.00    +0.000 A 
ATOM      9  C   UNL     1       7.129   5.893  16.956  0.00  0.00    +0.000 A 
ATOM     10  N   UNL     1       7.495   5.901  15.639  0.00  0.00    +0.000 N 
ATOM     11  C   UNL     1       7.003   4.768  15.062  0.00  0.00    +0.000 A 
ATOM     12  N   UNL     1       6.344   4.034  15.931  0.00  0.00    +0.000 NA
ATOM     13  H   UNL     1       8.032   6.617  15.168  0.00  0.00    +0.000 HD
ENDBRANCH   1   8
BRANCH   1  14
ATOM     14  N   UNL     1       6.062   5.090  19.514  0.00  0.00    +0.000 NA
ATOM     15  H   UNL     1       6.129   6.045  19.174  0.00  0.00    +0.000 HD
ATOM     16  H   UNL     1       7.006   4.824  19.802  0.00  0.00    +0.000 HD
ENDBRANCH   1  14
TORSDOF 3
ENDMDL
MODEL 4
REMARK VINA RESULT:      -6.0      3.166      5.348
REMARK  Name = 
REMARK  3 active torsions:
REMARK  status: ('A' for Active; 'I' for Inactive)
REMARK    1  A    between atoms: N_1  and  C_2
REMARK    2  A    between atoms: C_2  and  C_3
REMARK    3  A    between atoms: C_2  and  C_9
REMARK                            x       y       z     vdW  Elec       q    Type
REMARK                         _______ _______ _______ _____ _____    ______ ____
ROOT
ATOM      1  C   UNL     1       6.149   5.387  16.405  0.00  0.00    +0.000 C 
ENDROOT
BRANCH   1   2
ATOM      2  C   UNL     1       4.732   5.359  16.959  0.00  0.00    +0.000 A 
ATOM      3  C   UNL     1       4.082   6.466  17.534  0.00  0.00    +0.000 A 
ATOM      4  C   UNL     1       2.815   6.343  18.107  0.00  0.00    +0.000 A 
ATOM      5  C   UNL     1       2.179   5.105  18.140  0.00  0.00    +0.000 A 
ATOM      6  C   UNL     1       2.804   3.991  17.588  0.00  0.00    +0.000 A 
ATOM      7  C   UNL     1       4.065   4.118  17.000  0.00  0.00    +0.000 A 
ENDBRANCH   1   2
BRANCH   1   8
ATOM      8  C   UNL     1       7.019   6.257  17.278  0.00  0.00    +0.000 A 
ATOM      9  C   UNL     1       7.619   5.949  18.484  0.00  0.00    +0.000 A 
ATOM     10  N   UNL     1       8.266   7.087  18.877  0.00  0.00    +0.000 N 
ATOM     11  C   UNL     1       8.051   8.038  17.923  0.00  0.00    +0.000 A 
ATOM     12  N   UNL     1       7.307   7.577  16.943  0.00  0.00    +0.000 NA
ATOM     13  H   UNL     1       8.806   7.211  19.723  0.00  0.00    +0.000 HD
ENDBRANCH   1   8
BRANCH   1  14
ATOM     14  N   UNL     1       6.714   4.037  16.339  0.00  0.00    +0.000 NA
ATOM     15  H   UNL     1       6.050   3.432  15.864  0.00  0.00    +0.000 HD
ATOM     16  H   UNL     1       6.756   3.708  17.306  0.00  0.00    +0.000 HD
ENDBRANCH   1  14
TORSDOF 3
ENDMDL
MODEL 5
REMARK VINA RESULT:      -6.0      3.779      5.310
REMARK  Name = 
REMARK  3 active torsions:
REMARK  status: ('A' for Active; 'I' for Inactive)
REMARK    1  A    between atoms: N_1  and  C_2
REMARK    2  A    between atoms: C_2  and  C_3
REMARK    3  A    between atoms: C_2  and  C_9
REMARK                            x       y       z     vdW  Elec       q    Type
REMARK                         _______ _______ _______ _____ _____    ______ ____
ROOT
ATOM      1  C   UNL     1       6.926   5.679  17.021  0.00  0.00    +0.000 C 
ENDROOT
BRANCH   1   2
ATOM      2  C   UNL     1       5.554   5.875  17.648  0.00  0.00    +0.000 A 
ATOM      3  C   UNL     1       4.588   6.783  17.178  0.00  0.00    +0.000 A 
ATOM      4  C   UNL     1       3.385   6.977  17.859  0.00  0.00    +0.000 A 
ATOM      5  C   UNL     1       3.129   6.283  19.039  0.00  0.00    +0.000 A 
ATOM      6  C   UNL     1       4.072   5.386  19.532  0.00  0.00    +0.000 A 
ATOM      7  C   UNL     1       5.269   5.181  18.841  0.00  0.00    +0.000 A 
ENDBRANCH   1   2
BRANCH   1   8
ATOM      8  C   UNL     1       6.783   4.973  15.695  0.00  0.00    +0.000 A 
ATOM      9  C   UNL     1       6.066   3.830  15.395  0.00  0.00    +0.000 A 
ATOM     10  N   UNL     1       6.291   3.591  14.069  0.00  0.00    +0.000 N 
ATOM     11  C   UNL     1       7.118   4.570  13.603  0.00  0.00    +0.000 A 
ATOM     12  N   UNL     1       7.435   5.423  14.551  0.00  0.00    +0.000 NA
ATOM     13  H   UNL     1       5.918   2.825  13.523  0.00  0.00    +0.000 HD
ENDBRANCH   1   8
BRANCH   1  14
ATOM     14  N   UNL     1       7.601   6.964  16.823  0.00  0.00    +0.000 NA
ATOM     15  H   UNL     1       7.108   7.480  16.101  0.00  0.00    +0.000 HD
ATOM     16  H   UNL     1       8.519   6.736  16.433  0.00  0.00    +0.000 HD
ENDBRANCH   1  14
TORSDOF 3
ENDMDL
MODEL 6
REMARK VINA RESULT:      -5.9      2.881      4.984
REMARK  Name = 
REMARK  3 active torsions:
REMARK  status: ('A' for Active; 'I' for Inactive)
REMARK    1  A    between atoms: N_1  and  C_2
REMARK    2  A    between atoms: C_2  and  C_3
REMARK    3  A    between atoms: C_2  and  C_9
REMARK                            x       y       z     vdW  Elec       q    Type
REMARK                         _______ _______ _______ _____ _____    ______ ____
ROOT
ATOM      1  C   UNL     1       5.733   4.899  16.461  0.00  0.00    +0.000 C 
ENDROOT
BRANCH   1   2
ATOM      2  C   UNL     1       4.320   4.838  17.024  0.00  0.00    +0.000 A 
ATOM      3  C   UNL     1       3.679   5.905  17.678  0.00  0.00    +0.000 A 
ATOM      4  C   UNL     1       2.415   5.747  18.252  0.00  0.00    +0.000 A 
ATOM      5  C   UNL     1       1.775   4.512  18.205  0.00  0.00    +0.000 A 
ATOM      6  C   UNL     1       2.391   3.437  17.572  0.00  0.00    +0.000 A 
ATOM      7  C   UNL     1       3.649   3.599  16.985  0.00  0.00    +0.000 A 
ENDBRANCH   1   2
BRANCH   1   8
ATOM      8  C   UNL     1       6.655   5.532  17.474  0.00  0.00    +0.000 A 
ATOM      9  C   UNL     1       7.299   6.753  17.414  0.00  0.00    +0.000 A 
ATOM     10  N   UNL     1       8.037   6.838  18.562  0.00  0.00    +0.000 N 
ATOM     11  C   UNL     1       7.830   5.695  19.276  0.00  0.00    +0.000 A 
ATOM     12  N   UNL     1       7.002   4.884  18.656  0.00  0.00    +0.000 NA
ATOM     13  H   UNL     1       8.636   7.605  18.837  0.00  0.00    +0.000 HD
ENDBRANCH   1   8
BRANCH   1  14
ATOM     14  N   UNL     1       6.221   3.560  16.121  0.00  0.00    +0.000 NA
ATOM     15  H   UNL     1       7.135   3.651  15.687  0.00  0.00    +0.000 HD
ATOM     16  H   UNL     1       5.593   3.215  15.392  0.00  0.00    +0.000 HD
ENDBRANCH   1  14
TORSDOF 3
ENDMDL
MODEL 7
REMARK VINA RESULT:      -5.9      2.437      4.880
REMARK  Name = 
REMARK  3 active torsions:
REMARK  status: ('A' for Active; 'I' for Inactive)
REMARK    1  A    between atoms: N_1  and  C_2
REMARK    2  A    between atoms: C_2  and  C_3
REMARK    3  A    between atoms: C_2  and  C_9
REMARK                            x       y       z     vdW  Elec       q    Type
REMARK                         _______ _______ _______ _____ _____    ______ ____
ROOT
ATOM      1  C   UNL     1       3.605   6.089  18.878  0.00  0.00    +0.000 C 
ENDROOT
BRANCH   1   2
ATOM      2  C   UNL     1       2.551   5.037  19.194  0.00  0.00    +0.000 A 
ATOM      3  C   UNL     1       2.081   4.747  20.487  0.00  0.00    +0.000 A 
ATOM      4  C   UNL     1       1.181   3.703  20.712  0.00  0.00    +0.000 A 
ATOM      5  C   UNL     1       0.748   2.912  19.652  0.00  0.00    +0.000 A 
ATOM      6  C   UNL     1       1.206   3.170  18.364  0.00  0.00    +0.000 A 
ATOM      7  C   UNL     1       2.094   4.225  18.137  0.00  0.00    +0.000 A 
ENDBRANCH   1   2
BRANCH   1   8
ATOM      8  C   UNL     1       4.864   5.416  18.391  0.00  0.00    +0.000 A 
ATOM      9  C   UNL     1       5.740   4.607  19.089  0.00  0.00    +0.000 A 
ATOM     10  N   UNL     1       6.731   4.284  18.205  0.00  0.00    +0.000 N 
ATOM     11  C   UNL     1       6.442   4.889  17.017  0.00  0.00    +0.000 A 
ATOM     12  N   UNL     1       5.325   5.578  17.087  0.00  0.00    +0.000 NA
ATOM     13  H   UNL     1       7.539   3.705  18.391  0.00  0.00    +0.000 HD
ENDBRANCH   1   8
BRANCH   1  14
ATOM     14  N   UNL     1       3.123   7.026  17.861  0.00  0.00    +0.000 NA
ATOM     15  H   UNL     1       3.877   7.665  17.627  0.00  0.00    +0.000 HD
ATOM     16  H   UNL     1       2.405   7.590  18.322  0.00  0.00    +0.000 HD
ENDBRANCH   1  14
TORSDOF 3
ENDMDL
MODEL 8
REMARK VINA RESULT:      -5.9      0.176      1.345
REMARK  Name = 
REMARK  3 active torsions:
REMARK  status: ('A' for Active; 'I' for Inactive)
REMARK    1  A    between atoms: N_1  and  C_2
REMARK    2  A    between atoms: C_2  and  C_3
REMARK    3  A    between atoms: C_2  and  C_9
REMARK                            x       y       z     vdW  Elec       q    Type
REMARK                         _______ _______ _______ _____ _____    ______ ____
ROOT
ATOM      1  C   UNL     1       4.168   3.659  19.527  0.00  0.00    +0.000 C 
ENDROOT
BRANCH   1   2
ATOM      2  C   UNL     1       4.493   4.617  18.390  0.00  0.00    +0.000 A 
ATOM      3  C   UNL     1       4.129   5.975  18.367  0.00  0.00    +0.000 A 
ATOM      4  C   UNL     1       4.379   6.772  17.248  0.00  0.00    +0.000 A 
ATOM      5  C   UNL     1       4.978   6.223  16.118  0.00  0.00    +0.000 A 
ATOM      6  C   UNL     1       5.339   4.879  16.110  0.00  0.00    +0.000 A 
ATOM      7  C   UNL     1       5.103   4.086  17.236  0.00  0.00    +0.000 A 
ENDBRANCH   1   2
BRANCH   1   8
ATOM      8  C   UNL     1       2.691   3.352  19.526  0.00  0.00    +0.000 A 
ATOM      9  C   UNL     1       1.728   3.724  20.445  0.00  0.00    +0.000 A 
ATOM     10  N   UNL     1       0.561   3.166  20.003  0.00  0.00    +0.000 N 
ATOM     11  C   UNL     1       0.833   2.486  18.853  0.00  0.00    +0.000 A 
ATOM     12  N   UNL     1       2.104   2.575  18.531  0.00  0.00    +0.000 NA
ATOM     13  H   UNL     1      -0.346   3.237  20.446  0.00  0.00    +0.000 HD
ENDBRANCH   1   8
BRANCH   1  14
ATOM     14  N   UNL     1       4.929   2.414  19.399  0.00  0.00    +0.000 NA
ATOM     15  H   UNL     1       5.911   2.618  19.559  0.00  0.00    +0.000 HD
ATOM     16  H   UNL     1       4.851   2.144  18.416  0.00  0.00    +0.000 HD
ENDBRANCH   1  14
TORSDOF 3
ENDMDL
MODEL 9
REMARK VINA RESULT:      -5.9      2.259      4.846
REMARK  Name = 
REMARK  3 active torsions:
REMARK  status: ('A' for Active; 'I' for Inactive)
REMARK    1  A    between atoms: N_1  and  C_2
REMARK    2  A    between atoms: C_2  and  C_3
REMARK    3  A    between atoms: C_2  and  C_9
REMARK                            x       y       z     vdW  Elec       q    Type
REMARK                         _______ _______ _______ _____ _____    ______ ____
ROOT
ATOM      1  C   UNL     1       4.776   3.743  18.757  0.00  0.00    +0.000 C 
ENDROOT
BRANCH   1   2
ATOM      2  C   UNL     1       3.645   4.601  19.305  0.00  0.00    +0.000 A 
ATOM      3  C   UNL     1       3.438   5.951  18.967  0.00  0.00    +0.000 A 
ATOM      4  C   UNL     1       2.434   6.704  19.581  0.00  0.00    +0.000 A 
ATOM      5  C   UNL     1       1.631   6.131  20.563  0.00  0.00    +0.000 A 
ATOM      6  C   UNL     1       1.822   4.801  20.923  0.00  0.00    +0.000 A 
ATOM      7  C   UNL     1       2.815   4.043  20.298  0.00  0.00    +0.000 A 
ENDBRANCH   1   2
BRANCH   1   8
ATOM      8  C   UNL     1       6.006   4.592  18.554  0.00  0.00    +0.000 A 
ATOM      9  C   UNL     1       6.644   4.925  17.375  0.00  0.00    +0.000 A 
ATOM     10  N   UNL     1       7.723   5.682  17.739  0.00  0.00    +0.000 N 
ATOM     11  C   UNL     1       7.715   5.791  19.098  0.00  0.00    +0.000 A 
ATOM     12  N   UNL     1       6.697   5.151  19.626  0.00  0.00    +0.000 NA
ATOM     13  H   UNL     1       8.410   6.089  17.118  0.00  0.00    +0.000 HD
ENDBRANCH   1   8
BRANCH   1  14
ATOM     14  N   UNL     1       5.086   2.639  19.669  0.00  0.00    +0.000 NA
ATOM     15  H   UNL     1       4.898   1.763  19.190  0.00  0.00    +0.000 HD
ATOM     16  H   UNL     1       4.399   2.703  20.424  0.00  0.00    +0.000 HD
ENDBRANCH   1  14
TORSDOF 3
ENDMDL
