MODEL 1
REMARK VINA RESULT:      -9.1      0.000      0.000
REMARK  Name = 
REMARK  6 active torsions:
REMARK  status: ('A' for Active; 'I' for Inactive)
REMARK    1  A    between atoms: C_1  and  N_2
REMARK    2  A    between atoms: C_3  and  C_4
REMARK    3  A    between atoms: C_4  and  C_6
REMARK    4  A    between atoms: C_7  and  C_8
REMARK    5  A    between atoms: N_10  and  C_11
REMARK    6  A    between atoms: C_21  and  O_22
REMARK                            x       y       z     vdW  Elec       q    Type
REMARK                         _______ _______ _______ _____ _____    ______ ____
ROOT
ATOM      1  C   UNL     1       5.878   4.546  17.078  0.00  0.00    +0.000 C 
ATOM      2  O   UNL     1       6.451   3.668  16.438  0.00  0.00    +0.000 OA
ENDROOT
BRANCH   1   5
ATOM      3  C   UNL     1       3.138   6.243  17.868  0.00  0.00    +0.000 C 
ATOM      4  N   UNL     1       3.396   4.865  17.385  0.00  0.00    +0.000 N 
ATOM      5  C   UNL     1       4.620   4.265  17.850  0.00  0.00    +0.000 C 
ATOM      6  C   UNL     1       4.609   3.566  19.009  0.00  0.00    +0.000 C 
ATOM      7  C   UNL     1       3.364   3.245  19.756  0.00  0.00    +0.000 A 
ATOM      8  C   UNL     1       3.390   2.831  21.096  0.00  0.00    +0.000 A 
ATOM      9  C   UNL     1       2.202   2.580  21.797  0.00  0.00    +0.000 A 
ATOM     10  C   UNL     1       0.966   2.735  21.173  0.00  0.00    +0.000 A 
ATOM     11  C   UNL     1       0.912   3.113  19.835  0.00  0.00    +0.000 A 
ATOM     12  C   UNL     1       2.108   3.338  19.145  0.00  0.00    +0.000 A 
ATOM     13  S   UNL     1       2.073   3.800  17.451  0.00  0.00    +0.000 S 
ATOM     14  O   UNL     1       0.867   4.566  17.218  0.00  0.00    +0.000 OA
ATOM     15  O   UNL     1       2.392   2.621  16.675  0.00  0.00    +0.000 OA
BRANCH   6  16
ATOM     16  O   UNL     1       5.762   3.106  19.627  0.00  0.00    +0.000 OA
ATOM     17  H   UNL     1       6.038   2.265  19.199  0.00  0.00    +0.000 HD
ENDBRANCH   6  16
ENDBRANCH   1   5
BRANCH   1  18
ATOM     18  C   UNL     1       6.357   5.960  17.136  0.00  0.00    +0.000 C 
ATOM     19  C   UNL     1       7.377   6.368  17.908  0.00  0.00    +0.000 C 
BRANCH  19  20
ATOM     20  C   UNL     1       7.809   7.728  17.964  0.00  0.00    +0.000 A 
ATOM     21  C   UNL     1       8.717   8.304  18.818  0.00  0.00    +0.000 A 
ATOM     22  N   UNL     1       8.742   9.636  18.450  0.00  0.00    +0.000 N 
ATOM     23  N   UNL     1       7.883   9.833  17.419  0.00  0.00    +0.000 NA
ATOM     24  N   UNL     1       7.315   8.675  17.115  0.00  0.00    +0.000 NA
BRANCH  22  25
ATOM     25  C   UNL     1       9.497  10.708  18.999  0.00  0.00    +0.000 A 
ATOM     26  C   UNL     1       9.422  10.980  20.379  0.00  0.00    +0.000 A 
ATOM     27  C   UNL     1      10.164  12.025  20.936  0.00  0.00    +0.000 A 
ATOM     28  C   UNL     1      10.977  12.804  20.121  0.00  0.00    +0.000 A 
ATOM     29  F   UNL     1      11.681  13.802  20.675  0.00  0.00    +0.000 F 
ATOM     30  C   UNL     1      11.056  12.548  18.755  0.00  0.00    +0.000 A 
ATOM     31 CL   UNL     1      12.057  13.518  17.739  0.00  0.00    +0.000 Cl
ATOM     32  C   UNL     1      10.321  11.500  18.185  0.00  0.00    +0.000 A 
ENDBRANCH  22  25
ENDBRANCH  19  20
ENDBRANCH   1  18
TORSDOF 5
ENDMDL
MODEL 2
REMARK VINA RESULT:      -8.8      1.148      1.443
REMARK  Name = 
REMARK  6 active torsions:
REMARK  status: ('A' for Active; 'I' for Inactive)
REMARK    1  A    between atoms: C_1  and  N_2
REMARK    2  A    between atoms: C_3  and  C_4
REMARK    3  A    between atoms: C_4  and  C_6
REMARK    4  A    between atoms: C_7  and  C_8
REMARK    5  A    between atoms: N_10  and  C_11
REMARK    6  A    between atoms: C_21  and  O_22
REMARK                            x       y       z     vdW  Elec       q    Type
REMARK                         _______ _______ _______ _____ _____    ______ ____
ROOT
ATOM      1  C   UNL     1       6.023   4.750  17.463  0.00  0.00    +0.000 C 
ATOM      2  O   UNL     1       6.433   4.093  16.509  0.00  0.00    +0.000 OA
ENDROOT
BRANCH   1   5
ATOM      3  C   UNL     1       3.266   6.432  18.221  0.00  0.00    +0.000 C 
ATOM      4  N   UNL     1       3.532   5.091  17.649  0.00  0.00    +0.000 N 
ATOM      5  C   UNL     1       4.718   4.434  18.136  0.00  0.00    +0.000 C 
ATOM      6  C   UNL     1       4.628   3.648  19.235  0.00  0.00    +0.000 C 
ATOM      7  C   UNL     1       3.337   3.294  19.881  0.00  0.00    +0.000 A 
ATOM      8  C   UNL     1       3.277   2.778  21.183  0.00  0.00    +0.000 A 
ATOM      9  C   UNL     1       2.046   2.497  21.793  0.00  0.00    +0.000 A 
ATOM     10  C   UNL     1       0.851   2.722  21.111  0.00  0.00    +0.000 A 
ATOM     11  C   UNL     1       0.883   3.203  19.806  0.00  0.00    +0.000 A 
ATOM     12  C   UNL     1       2.121   3.457  19.207  0.00  0.00    +0.000 A 
ATOM     13  S   UNL     1       2.193   4.049  17.554  0.00  0.00    +0.000 S 
ATOM     14  O   UNL     1       1.015   4.853  17.312  0.00  0.00    +0.000 OA
ATOM     15  O   UNL     1       2.541   2.927  16.708  0.00  0.00    +0.000 OA
BRANCH   6  16
ATOM     16  O   UNL     1       5.736   3.120  19.881  0.00  0.00    +0.000 OA
ATOM     17  H   UNL     1       5.739   2.145  19.762  0.00  0.00    +0.000 HD
ENDBRANCH   6  16
ENDBRANCH   1   5
BRANCH   1  18
ATOM     18  C   UNL     1       6.762   5.920  18.025  0.00  0.00    +0.000 C 
ATOM     19  C   UNL     1       7.115   6.994  17.302  0.00  0.00    +0.000 C 
BRANCH  19  20
ATOM     20  C   UNL     1       7.838   8.095  17.853  0.00  0.00    +0.000 A 
ATOM     21  C   UNL     1       7.918   9.386  17.390  0.00  0.00    +0.000 A 
ATOM     22  N   UNL     1       8.759  10.023  18.283  0.00  0.00    +0.000 N 
ATOM     23  N   UNL     1       9.157   9.140  19.233  0.00  0.00    +0.000 NA
ATOM     24  N   UNL     1       8.596   7.966  18.980  0.00  0.00    +0.000 NA
BRANCH  22  25
ATOM     25  C   UNL     1       9.209  11.372  18.292  0.00  0.00    +0.000 A 
ATOM     26  C   UNL     1       8.428  12.372  17.680  0.00  0.00    +0.000 A 
ATOM     27  C   UNL     1       8.851  13.704  17.687  0.00  0.00    +0.000 A 
ATOM     28  C   UNL     1      10.053  14.042  18.298  0.00  0.00    +0.000 A 
ATOM     29  F   UNL     1      10.441  15.325  18.293  0.00  0.00    +0.000 F 
ATOM     30  C   UNL     1      10.835  13.062  18.902  0.00  0.00    +0.000 A 
ATOM     31 CL   UNL     1      12.331  13.476  19.654  0.00  0.00    +0.000 Cl
ATOM     32  C   UNL     1      10.420  11.724  18.906  0.00  0.00    +0.000 A 
ENDBRANCH  22  25
ENDBRANCH  19  20
ENDBRANCH   1  18
TORSDOF 5
ENDMDL
MODEL 3
REMARK VINA RESULT:      -8.8      1.366      1.607
REMARK  Name = 
REMARK  6 active torsions:
REMARK  status: ('A' for Active; 'I' for Inactive)
REMARK    1  A    between atoms: C_1  and  N_2
REMARK    2  A    between atoms: C_3  and  C_4
REMARK    3  A    between atoms: C_4  and  C_6
REMARK    4  A    between atoms: C_7  and  C_8
REMARK    5  A    between atoms: N_10  and  C_11
REMARK    6  A    between atoms: C_21  and  O_22
REMARK                            x       y       z     vdW  Elec       q    Type
REMARK                         _______ _______ _______ _____ _____    ______ ____
ROOT
ATOM      1  C   UNL     1       5.909   4.818  17.335  0.00  0.00    +0.000 C 
ATOM      2  O   UNL     1       6.295   4.187  16.354  0.00  0.00    +0.000 OA
ENDROOT
BRANCH   1   5
ATOM      3  C   UNL     1       3.118   6.438  18.103  0.00  0.00    +0.000 C 
ATOM      4  N   UNL     1       3.413   5.093  17.553  0.00  0.00    +0.000 N 
ATOM      5  C   UNL     1       4.624   4.479  18.034  0.00  0.00    +0.000 C 
ATOM      6  C   UNL     1       4.573   3.714  19.150  0.00  0.00    +0.000 C 
ATOM      7  C   UNL     1       3.302   3.337  19.823  0.00  0.00    +0.000 A 
ATOM      8  C   UNL     1       3.277   2.847  21.137  0.00  0.00    +0.000 A 
ATOM      9  C   UNL     1       2.064   2.543  21.771  0.00  0.00    +0.000 A 
ATOM     10  C   UNL     1       0.853   2.722  21.104  0.00  0.00    +0.000 A 
ATOM     11  C   UNL     1       0.851   3.176  19.789  0.00  0.00    +0.000 A 
ATOM     12  C   UNL     1       2.072   3.453  19.165  0.00  0.00    +0.000 A 
ATOM     13  S   UNL     1       2.102   4.013  17.501  0.00  0.00    +0.000 S 
ATOM     14  O   UNL     1       0.898   4.778  17.261  0.00  0.00    +0.000 OA
ATOM     15  O   UNL     1       2.469   2.884  16.672  0.00  0.00    +0.000 OA
BRANCH   6  16
ATOM     16  O   UNL     1       5.705   3.231  19.789  0.00  0.00    +0.000 OA
ATOM     17  H   UNL     1       6.500   3.644  19.384  0.00  0.00    +0.000 HD
ENDBRANCH   6  16
ENDBRANCH   1   5
BRANCH   1  18
ATOM     18  C   UNL     1       6.660   5.976  17.907  0.00  0.00    +0.000 C 
ATOM     19  C   UNL     1       7.064   7.032  17.183  0.00  0.00    +0.000 C 
BRANCH  19  20
ATOM     20  C   UNL     1       7.797   8.121  17.745  0.00  0.00    +0.000 A 
ATOM     21  C   UNL     1       7.919   9.405  17.273  0.00  0.00    +0.000 A 
ATOM     22  N   UNL     1       8.750  10.030  18.183  0.00  0.00    +0.000 N 
ATOM     23  N   UNL     1       9.101   9.148  19.151  0.00  0.00    +0.000 NA
ATOM     24  N   UNL     1       8.520   7.985  18.893  0.00  0.00    +0.000 NA
BRANCH  22  25
ATOM     25  C   UNL     1       9.230  11.369  18.193  0.00  0.00    +0.000 A 
ATOM     26  C   UNL     1      10.606  11.615  18.368  0.00  0.00    +0.000 A 
ATOM     27  C   UNL     1      11.095  12.925  18.372  0.00  0.00    +0.000 A 
ATOM     28  C   UNL     1      10.216  13.990  18.208  0.00  0.00    +0.000 A 
ATOM     29  F   UNL     1      10.706  15.238  18.215  0.00  0.00    +0.000 F 
ATOM     30  C   UNL     1       8.855  13.758  18.039  0.00  0.00    +0.000 A 
ATOM     31 CL   UNL     1       7.760  15.077  17.844  0.00  0.00    +0.000 Cl
ATOM     32  C   UNL     1       8.352  12.451  18.028  0.00  0.00    +0.000 A 
ENDBRANCH  22  25
ENDBRANCH  19  20
ENDBRANCH   1  18
TORSDOF 5
ENDMDL
MODEL 4
REMARK VINA RESULT:      -8.4      6.527     10.519
REMARK  Name = 
REMARK  6 active torsions:
REMARK  status: ('A' for Active; 'I' for Inactive)
REMARK    1  A    between atoms: C_1  and  N_2
REMARK    2  A    between atoms: C_3  and  C_4
REMARK    3  A    between atoms: C_4  and  C_6
REMARK    4  A    between atoms: C_7  and  C_8
REMARK    5  A    between atoms: N_10  and  C_11
REMARK    6  A    between atoms: C_21  and  O_22
REMARK                            x       y       z     vdW  Elec       q    Type
REMARK                         _______ _______ _______ _____ _____    ______ ____
ROOT
ATOM      1  C   UNL     1       9.838  11.492  18.112  0.00  0.00    +0.000 C 
ATOM      2  O   UNL     1      10.893  11.628  17.497  0.00  0.00    +0.000 OA
ENDROOT
BRANCH   1   5
ATOM      3  C   UNL     1       8.696  12.509  21.056  0.00  0.00    +0.000 C 
ATOM      4  N   UNL     1       9.383  13.181  19.928  0.00  0.00    +0.000 N 
ATOM      5  C   UNL     1       9.063  12.675  18.618  0.00  0.00    +0.000 C 
ATOM      6  C   UNL     1       8.017  13.212  17.946  0.00  0.00    +0.000 C 
ATOM      7  C   UNL     1       7.272  14.409  18.416  0.00  0.00    +0.000 A 
ATOM      8  C   UNL     1       6.009  14.743  17.908  0.00  0.00    +0.000 A 
ATOM      9  C   UNL     1       5.302  15.849  18.400  0.00  0.00    +0.000 A 
ATOM     10  C   UNL     1       5.845  16.644  19.409  0.00  0.00    +0.000 A 
ATOM     11  C   UNL     1       7.110  16.355  19.909  0.00  0.00    +0.000 A 
ATOM     12  C   UNL     1       7.810  15.260  19.389  0.00  0.00    +0.000 A 
ATOM     13  S   UNL     1       9.417  14.879  19.989  0.00  0.00    +0.000 S 
ATOM     14  O   UNL     1       9.485  15.278  21.378  0.00  0.00    +0.000 OA
ATOM     15  O   UNL     1      10.368  15.357  19.008  0.00  0.00    +0.000 OA
BRANCH   6  16
ATOM     16  O   UNL     1       7.521  12.678  16.765  0.00  0.00    +0.000 OA
ATOM     17  H   UNL     1       6.786  13.246  16.444  0.00  0.00    +0.000 HD
ENDBRANCH   6  16
ENDBRANCH   1   5
BRANCH   1  18
ATOM     18  C   UNL     1       9.242  10.159  18.428  0.00  0.00    +0.000 C 
ATOM     19  C   UNL     1       8.507   9.449  17.558  0.00  0.00    +0.000 C 
BRANCH  19  20
ATOM     20  C   UNL     1       7.930   8.184  17.885  0.00  0.00    +0.000 A 
ATOM     21  C   UNL     1       6.811   7.589  17.354  0.00  0.00    +0.000 A 
ATOM     22  N   UNL     1       6.696   6.395  18.039  0.00  0.00    +0.000 N 
ATOM     23  N   UNL     1       7.708   6.292  18.937  0.00  0.00    +0.000 NA
ATOM     24  N   UNL     1       8.465   7.376  18.845  0.00  0.00    +0.000 NA
BRANCH  22  25
ATOM     25  C   UNL     1       5.713   5.375  17.912  0.00  0.00    +0.000 A 
ATOM     26  C   UNL     1       5.387   4.875  16.636  0.00  0.00    +0.000 A 
ATOM     27  C   UNL     1       4.430   3.866  16.495  0.00  0.00    +0.000 A 
ATOM     28  C   UNL     1       3.792   3.359  17.621  0.00  0.00    +0.000 A 
ATOM     29  F   UNL     1       2.876   2.392  17.463  0.00  0.00    +0.000 F 
ATOM     30  C   UNL     1       4.102   3.848  18.886  0.00  0.00    +0.000 A 
ATOM     31 CL   UNL     1       3.307   3.227  20.285  0.00  0.00    +0.000 Cl
ATOM     32  C   UNL     1       5.064   4.855  19.042  0.00  0.00    +0.000 A 
ENDBRANCH  22  25
ENDBRANCH  19  20
ENDBRANCH   1  18
TORSDOF 5
ENDMDL
MODEL 5
REMARK VINA RESULT:      -8.3      8.038     10.982
REMARK  Name = 
REMARK  6 active torsions:
REMARK  status: ('A' for Active; 'I' for Inactive)
REMARK    1  A    between atoms: C_1  and  N_2
REMARK    2  A    between atoms: C_3  and  C_4
REMARK    3  A    between atoms: C_4  and  C_6
REMARK    4  A    between atoms: C_7  and  C_8
REMARK    5  A    between atoms: N_10  and  C_11
REMARK    6  A    between atoms: C_21  and  O_22
REMARK                            x       y       z     vdW  Elec       q    Type
REMARK                         _______ _______ _______ _____ _____    ______ ____
ROOT
ATOM      1  C   UNL     1       0.012  12.044  20.840  0.00  0.00    +0.000 C 
ATOM      2  O   UNL     1      -0.963  12.027  21.588  0.00  0.00    +0.000 OA
ENDROOT
BRANCH   1   5
ATOM      3  C   UNL     1       2.336  14.293  21.580  0.00  0.00    +0.000 C 
ATOM      4  N   UNL     1       1.918  13.614  20.331  0.00  0.00    +0.000 N 
ATOM      5  C   UNL     1       0.512  13.321  20.225  0.00  0.00    +0.000 C 
ATOM      6  C   UNL     1      -0.312  14.245  19.677  0.00  0.00    +0.000 C 
ATOM      7  C   UNL     1       0.177  15.490  19.027  0.00  0.00    +0.000 A 
ATOM      8  C   UNL     1      -0.672  16.577  18.775  0.00  0.00    +0.000 A 
ATOM      9  C   UNL     1      -0.181  17.760  18.206  0.00  0.00    +0.000 A 
ATOM     10  C   UNL     1       1.168  17.879  17.875  0.00  0.00    +0.000 A 
ATOM     11  C   UNL     1       2.027  16.804  18.084  0.00  0.00    +0.000 A 
ATOM     12  C   UNL     1       1.514  15.624  18.633  0.00  0.00    +0.000 A 
ATOM     13  S   UNL     1       2.569  14.244  18.893  0.00  0.00    +0.000 S 
ATOM     14  O   UNL     1       3.897  14.741  19.182  0.00  0.00    +0.000 OA
ATOM     15  O   UNL     1       2.321  13.302  17.823  0.00  0.00    +0.000 OA
BRANCH   6  16
ATOM     16  O   UNL     1      -1.694  14.133  19.693  0.00  0.00    +0.000 OA
ATOM     17  H   UNL     1      -1.941  13.311  20.172  0.00  0.00    +0.000 HD
ENDBRANCH   6  16
ENDBRANCH   1   5
BRANCH   1  18
ATOM     18  C   UNL     1       0.771  10.815  20.460  0.00  0.00    +0.000 C 
ATOM     19  C   UNL     1       0.842  10.343  19.206  0.00  0.00    +0.000 C 
BRANCH  19  20
ATOM     20  C   UNL     1       1.557   9.154  18.866  0.00  0.00    +0.000 A 
ATOM     21  C   UNL     1       1.729   8.014  19.612  0.00  0.00    +0.000 A 
ATOM     22  N   UNL     1       2.513   7.197  18.821  0.00  0.00    +0.000 N 
ATOM     23  N   UNL     1       2.791   7.832  17.656  0.00  0.00    +0.000 NA
ATOM     24  N   UNL     1       2.208   9.023  17.675  0.00  0.00    +0.000 NA
BRANCH  22  25
ATOM     25  C   UNL     1       3.013   5.893  19.090  0.00  0.00    +0.000 A 
ATOM     26  C   UNL     1       4.076   5.381  18.320  0.00  0.00    +0.000 A 
ATOM     27  C   UNL     1       4.585   4.104  18.577  0.00  0.00    +0.000 A 
ATOM     28  C   UNL     1       4.034   3.335  19.596  0.00  0.00    +0.000 A 
ATOM     29  F   UNL     1       4.536   2.113  19.825  0.00  0.00    +0.000 F 
ATOM     30  C   UNL     1       2.981   3.829  20.360  0.00  0.00    +0.000 A 
ATOM     31 CL   UNL     1       2.290   2.874  21.619  0.00  0.00    +0.000 Cl
ATOM     32  C   UNL     1       2.465   5.109  20.116  0.00  0.00    +0.000 A 
ENDBRANCH  22  25
ENDBRANCH  19  20
ENDBRANCH   1  18
TORSDOF 5
ENDMDL
MODEL 6
REMARK VINA RESULT:      -8.2      7.821     10.827
REMARK  Name = 
REMARK  6 active torsions:
REMARK  status: ('A' for Active; 'I' for Inactive)
REMARK    1  A    between atoms: C_1  and  N_2
REMARK    2  A    between atoms: C_3  and  C_4
REMARK    3  A    between atoms: C_4  and  C_6
REMARK    4  A    between atoms: C_7  and  C_8
REMARK    5  A    between atoms: N_10  and  C_11
REMARK    6  A    between atoms: C_21  and  O_22
REMARK                            x       y       z     vdW  Elec       q    Type
REMARK                         _______ _______ _______ _____ _____    ______ ____
ROOT
ATOM      1  C   UNL     1      -0.076  12.476  20.993  0.00  0.00    +0.000 C 
ATOM      2  O   UNL     1      -1.106  12.599  21.651  0.00  0.00    +0.000 OA
ENDROOT
BRANCH   1   5
ATOM      3  C   UNL     1       2.311  14.693  21.623  0.00  0.00    +0.000 C 
ATOM      4  N   UNL     1       1.946  13.877  20.440  0.00  0.00    +0.000 N 
ATOM      5  C   UNL     1       0.537  13.638  20.263  0.00  0.00    +0.000 C 
ATOM      6  C   UNL     1      -0.193  14.520  19.541  0.00  0.00    +0.000 C 
ATOM      7  C   UNL     1       0.410  15.646  18.779  0.00  0.00    +0.000 A 
ATOM      8  C   UNL     1      -0.357  16.729  18.328  0.00  0.00    +0.000 A 
ATOM      9  C   UNL     1       0.238  17.805  17.654  0.00  0.00    +0.000 A 
ATOM     10  C   UNL     1       1.611  17.818  17.417  0.00  0.00    +0.000 A 
ATOM     11  C   UNL     1       2.392  16.741  17.826  0.00  0.00    +0.000 A 
ATOM     12  C   UNL     1       1.776  15.667  18.477  0.00  0.00    +0.000 A 
ATOM     13  S   UNL     1       2.732  14.285  18.990  0.00  0.00    +0.000 S 
ATOM     14  O   UNL     1       4.062  14.754  19.316  0.00  0.00    +0.000 OA
ATOM     15  O   UNL     1       2.510  13.225  18.030  0.00  0.00    +0.000 OA
BRANCH   6  16
ATOM     16  O   UNL     1      -1.576  14.475  19.463  0.00  0.00    +0.000 OA
ATOM     17  H   UNL     1      -1.835  13.857  18.743  0.00  0.00    +0.000 HD
ENDBRANCH   6  16
ENDBRANCH   1   5
BRANCH   1  18
ATOM     18  C   UNL     1       0.646  11.177  20.841  0.00  0.00    +0.000 C 
ATOM     19  C   UNL     1       0.579  10.413  19.740  0.00  0.00    +0.000 C 
BRANCH  19  20
ATOM     20  C   UNL     1       1.261   9.165  19.621  0.00  0.00    +0.000 A 
ATOM     21  C   UNL     1       1.883   8.628  18.519  0.00  0.00    +0.000 A 
ATOM     22  N   UNL     1       2.357   7.404  18.951  0.00  0.00    +0.000 N 
ATOM     23  N   UNL     1       2.027   7.229  20.254  0.00  0.00    +0.000 NA
ATOM     24  N   UNL     1       1.364   8.299  20.670  0.00  0.00    +0.000 NA
BRANCH  22  25
ATOM     25  C   UNL     1       3.073   6.410  18.228  0.00  0.00    +0.000 A 
ATOM     26  C   UNL     1       2.497   5.140  18.031  0.00  0.00    +0.000 A 
ATOM     27  C   UNL     1       3.185   4.155  17.316  0.00  0.00    +0.000 A 
ATOM     28  C   UNL     1       4.447   4.431  16.802  0.00  0.00    +0.000 A 
ATOM     29  F   UNL     1       5.090   3.471  16.120  0.00  0.00    +0.000 F 
ATOM     30  C   UNL     1       5.028   5.680  16.995  0.00  0.00    +0.000 A 
ATOM     31 CL   UNL     1       6.597   6.023  16.367  0.00  0.00    +0.000 Cl
ATOM     32  C   UNL     1       4.347   6.678  17.705  0.00  0.00    +0.000 A 
ENDBRANCH  22  25
ENDBRANCH  19  20
ENDBRANCH   1  18
TORSDOF 5
ENDMDL
MODEL 7
REMARK VINA RESULT:      -8.1      8.041     10.568
REMARK  Name = 
REMARK  6 active torsions:
REMARK  status: ('A' for Active; 'I' for Inactive)
REMARK    1  A    between atoms: C_1  and  N_2
REMARK    2  A    between atoms: C_3  and  C_4
REMARK    3  A    between atoms: C_4  and  C_6
REMARK    4  A    between atoms: C_7  and  C_8
REMARK    5  A    between atoms: N_10  and  C_11
REMARK    6  A    between atoms: C_21  and  O_22
REMARK                            x       y       z     vdW  Elec       q    Type
REMARK                         _______ _______ _______ _____ _____    ______ ____
ROOT
ATOM      1  C   UNL     1      -1.596  11.606  18.536  0.00  0.00    +0.000 C 
ATOM      2  O   UNL     1      -2.374  11.840  17.614  0.00  0.00    +0.000 OA
ENDROOT
BRANCH   1   5
ATOM      3  C   UNL     1      -3.375  12.572  21.164  0.00  0.00    +0.000 C 
ATOM      4  N   UNL     1      -1.952  12.215  20.956  0.00  0.00    +0.000 N 
ATOM      5  C   UNL     1      -1.405  12.570  19.671  0.00  0.00    +0.000 C 
ATOM      6  C   UNL     1      -0.841  13.791  19.513  0.00  0.00    +0.000 C 
ATOM      7  C   UNL     1      -0.608  14.734  20.639  0.00  0.00    +0.000 A 
ATOM      8  C   UNL     1      -0.348  16.095  20.423  0.00  0.00    +0.000 A 
ATOM      9  C   UNL     1      -0.179  16.977  21.499  0.00  0.00    +0.000 A 
ATOM     10  C   UNL     1      -0.265  16.516  22.812  0.00  0.00    +0.000 A 
ATOM     11  C   UNL     1      -0.490  15.165  23.055  0.00  0.00    +0.000 A 
ATOM     12  C   UNL     1      -0.634  14.296  21.968  0.00  0.00    +0.000 A 
ATOM     13  S   UNL     1      -0.903  12.582  22.242  0.00  0.00    +0.000 S 
ATOM     14  O   UNL     1      -1.639  12.434  23.479  0.00  0.00    +0.000 OA
ATOM     15  O   UNL     1       0.357  11.905  22.017  0.00  0.00    +0.000 OA
BRANCH   6  16
ATOM     16  O   UNL     1      -0.452  14.291  18.280  0.00  0.00    +0.000 OA
ATOM     17  H   UNL     1      -0.107  15.203  18.401  0.00  0.00    +0.000 HD
ENDBRANCH   6  16
ENDBRANCH   1   5
BRANCH   1  18
ATOM     18  C   UNL     1      -0.764  10.367  18.606  0.00  0.00    +0.000 C 
ATOM     19  C   UNL     1       0.566  10.374  18.788  0.00  0.00    +0.000 C 
BRANCH  19  20
ATOM     20  C   UNL     1       1.347   9.179  18.833  0.00  0.00    +0.000 A 
ATOM     21  C   UNL     1       2.030   8.562  17.813  0.00  0.00    +0.000 A 
ATOM     22  N   UNL     1       2.590   7.443  18.399  0.00  0.00    +0.000 N 
ATOM     23  N   UNL     1       2.251   7.405  19.711  0.00  0.00    +0.000 NA
ATOM     24  N   UNL     1       1.497   8.462  19.983  0.00  0.00    +0.000 NA
BRANCH  22  25
ATOM     25  C   UNL     1       3.397   6.428  17.814  0.00  0.00    +0.000 A 
ATOM     26  C   UNL     1       4.493   6.788  17.005  0.00  0.00    +0.000 A 
ATOM     27  C   UNL     1       5.300   5.803  16.430  0.00  0.00    +0.000 A 
ATOM     28  C   UNL     1       5.015   4.461  16.653  0.00  0.00    +0.000 A 
ATOM     29  F   UNL     1       5.802   3.532  16.090  0.00  0.00    +0.000 F 
ATOM     30  C   UNL     1       3.933   4.094  17.446  0.00  0.00    +0.000 A 
ATOM     31 CL   UNL     1       3.571   2.430  17.718  0.00  0.00    +0.000 Cl
ATOM     32  C   UNL     1       3.118   5.071  18.033  0.00  0.00    +0.000 A 
ENDBRANCH  22  25
ENDBRANCH  19  20
ENDBRANCH   1  18
TORSDOF 5
ENDMDL
MODEL 8
REMARK VINA RESULT:      -8.1      8.816     10.951
REMARK  Name = 
REMARK  6 active torsions:
REMARK  status: ('A' for Active; 'I' for Inactive)
REMARK    1  A    between atoms: C_1  and  N_2
REMARK    2  A    between atoms: C_3  and  C_4
REMARK    3  A    between atoms: C_4  and  C_6
REMARK    4  A    between atoms: C_7  and  C_8
REMARK    5  A    between atoms: N_10  and  C_11
REMARK    6  A    between atoms: C_21  and  O_22
REMARK                            x       y       z     vdW  Elec       q    Type
REMARK                         _______ _______ _______ _____ _____    ______ ____
ROOT
ATOM      1  C   UNL     1      -0.548  12.874  20.310  0.00  0.00    +0.000 C 
ATOM      2  O   UNL     1      -0.048  13.915  19.889  0.00  0.00    +0.000 OA
ENDROOT
BRANCH   1   5
ATOM      3  C   UNL     1      -1.949  11.649  23.056  0.00  0.00    +0.000 C 
ATOM      4  N   UNL     1      -2.063  12.933  22.325  0.00  0.00    +0.000 N 
ATOM      5  C   UNL     1      -1.932  12.844  20.893  0.00  0.00    +0.000 C 
ATOM      6  C   UNL     1      -3.041  12.632  20.145  0.00  0.00    +0.000 C 
ATOM      7  C   UNL     1      -4.418  12.645  20.706  0.00  0.00    +0.000 A 
ATOM      8  C   UNL     1      -5.506  12.098  20.011  0.00  0.00    +0.000 A 
ATOM      9  C   UNL     1      -6.788  12.076  20.578  0.00  0.00    +0.000 A 
ATOM     10  C   UNL     1      -7.008  12.602  21.850  0.00  0.00    +0.000 A 
ATOM     11  C   UNL     1      -5.952  13.179  22.549  0.00  0.00    +0.000 A 
ATOM     12  C   UNL     1      -4.685  13.212  21.958  0.00  0.00    +0.000 A 
ATOM     13  S   UNL     1      -3.336  13.949  22.808  0.00  0.00    +0.000 S 
ATOM     14  O   UNL     1      -3.544  13.764  24.228  0.00  0.00    +0.000 OA
ATOM     15  O   UNL     1      -3.125  15.259  22.231  0.00  0.00    +0.000 OA
BRANCH   6  16
ATOM     16  O   UNL     1      -2.997  12.355  18.787  0.00  0.00    +0.000 OA
ATOM     17  H   UNL     1      -3.482  13.060  18.303  0.00  0.00    +0.000 HD
ENDBRANCH   6  16
ENDBRANCH   1   5
BRANCH   1  18
ATOM     18  C   UNL     1       0.167  11.563  20.300  0.00  0.00    +0.000 C 
ATOM     19  C   UNL     1       0.473  10.892  19.178  0.00  0.00    +0.000 C 
BRANCH  19  20
ATOM     20  C   UNL     1       1.141   9.629  19.190  0.00  0.00    +0.000 A 
ATOM     21  C   UNL     1       1.741   8.968  18.147  0.00  0.00    +0.000 A 
ATOM     22  N   UNL     1       2.209   7.793  18.704  0.00  0.00    +0.000 N 
ATOM     23  N   UNL     1       1.896   7.766  20.024  0.00  0.00    +0.000 NA
ATOM     24  N   UNL     1       1.250   8.883  20.326  0.00  0.00    +0.000 NA
BRANCH  22  25
ATOM     25  C   UNL     1       2.905   6.717  18.087  0.00  0.00    +0.000 A 
ATOM     26  C   UNL     1       4.130   6.961  17.437  0.00  0.00    +0.000 A 
ATOM     27  C   UNL     1       4.832   5.913  16.833  0.00  0.00    +0.000 A 
ATOM     28  C   UNL     1       4.312   4.624  16.870  0.00  0.00    +0.000 A 
ATOM     29  F   UNL     1       5.000   3.634  16.284  0.00  0.00    +0.000 F 
ATOM     30  C   UNL     1       3.099   4.373  17.506  0.00  0.00    +0.000 A 
ATOM     31 CL   UNL     1       2.447   2.777  17.546  0.00  0.00    +0.000 Cl
ATOM     32  C   UNL     1       2.389   5.413  18.119  0.00  0.00    +0.000 A 
ENDBRANCH  22  25
ENDBRANCH  19  20
ENDBRANCH   1  18
TORSDOF 5
ENDMDL
MODEL 9
REMARK VINA RESULT:      -8.1      7.634     10.085
REMARK  Name = 
REMARK  6 active torsions:
REMARK  status: ('A' for Active; 'I' for Inactive)
REMARK    1  A    between atoms: C_1  and  N_2
REMARK    2  A    between atoms: C_3  and  C_4
REMARK    3  A    between atoms: C_4  and  C_6
REMARK    4  A    between atoms: C_7  and  C_8
REMARK    5  A    between atoms: N_10  and  C_11
REMARK    6  A    between atoms: C_21  and  O_22
REMARK                            x       y       z     vdW  Elec       q    Type
REMARK                         _______ _______ _______ _____ _____    ______ ____
ROOT
ATOM      1  C   UNL     1      -0.396  11.650  20.905  0.00  0.00    +0.000 C 
ATOM      2  O   UNL     1      -0.108  12.490  21.754  0.00  0.00    +0.000 OA
ENDROOT
BRANCH   1   5
ATOM      3  C   UNL     1      -0.845  13.067  17.940  0.00  0.00    +0.000 C 
ATOM      4  N   UNL     1      -1.287  11.792  18.551  0.00  0.00    +0.000 N 
ATOM      5  C   UNL     1      -1.552  11.842  19.966  0.00  0.00    +0.000 C 
ATOM      6  C   UNL     1      -2.798  12.162  20.389  0.00  0.00    +0.000 C 
ATOM      7  C   UNL     1      -3.958  12.310  19.470  0.00  0.00    +0.000 A 
ATOM      8  C   UNL     1      -5.136  12.962  19.864  0.00  0.00    +0.000 A 
ATOM      9  C   UNL     1      -6.199  13.134  18.967  0.00  0.00    +0.000 A 
ATOM     10  C   UNL     1      -6.108  12.657  17.661  0.00  0.00    +0.000 A 
ATOM     11  C   UNL     1      -4.963  11.979  17.253  0.00  0.00    +0.000 A 
ATOM     12  C   UNL     1      -3.921  11.797  18.168  0.00  0.00    +0.000 A 
ATOM     13  S   UNL     1      -2.471  10.930  17.689  0.00  0.00    +0.000 S 
ATOM     14  O   UNL     1      -2.255  11.161  16.276  0.00  0.00    +0.000 OA
ATOM     15  O   UNL     1      -2.562   9.595  18.240  0.00  0.00    +0.000 OA
BRANCH   6  16
ATOM     16  O   UNL     1      -3.106  12.410  21.718  0.00  0.00    +0.000 OA
ATOM     17  H   UNL     1      -4.057  12.650  21.784  0.00  0.00    +0.000 HD
ENDBRANCH   6  16
ENDBRANCH   1   5
BRANCH   1  18
ATOM     18  C   UNL     1       0.353  10.368  20.740  0.00  0.00    +0.000 C 
ATOM     19  C   UNL     1       0.883   9.962  19.575  0.00  0.00    +0.000 C 
BRANCH  19  20
ATOM     20  C   UNL     1       1.580   8.723  19.433  0.00  0.00    +0.000 A 
ATOM     21  C   UNL     1       2.231   8.228  18.329  0.00  0.00    +0.000 A 
ATOM     22  N   UNL     1       2.706   6.995  18.731  0.00  0.00    +0.000 N 
ATOM     23  N   UNL     1       2.348   6.774  20.021  0.00  0.00    +0.000 NA
ATOM     24  N   UNL     1       1.665   7.824  20.455  0.00  0.00    +0.000 NA
BRANCH  22  25
ATOM     25  C   UNL     1       3.448   6.031  17.994  0.00  0.00    +0.000 A 
ATOM     26  C   UNL     1       4.445   6.457  17.095  0.00  0.00    +0.000 A 
ATOM     27  C   UNL     1       5.189   5.523  16.369  0.00  0.00    +0.000 A 
ATOM     28  C   UNL     1       4.939   4.165  16.533  0.00  0.00    +0.000 A 
ATOM     29  F   UNL     1       5.664   3.285  15.827  0.00  0.00    +0.000 F 
ATOM     30  C   UNL     1       3.954   3.732  17.416  0.00  0.00    +0.000 A 
ATOM     31 CL   UNL     1       3.635   2.050  17.616  0.00  0.00    +0.000 Cl
ATOM     32  C   UNL     1       3.204   4.659  18.153  0.00  0.00    +0.000 A 
ENDBRANCH  22  25
ENDBRANCH  19  20
ENDBRANCH   1  18
TORSDOF 5
ENDMDL
