MODEL 1
REMARK VINA RESULT:      -7.2      0.000      0.000
REMARK  Name = 
REMARK  12 active torsions:
REMARK  status: ('A' for Active; 'I' for Inactive)
REMARK    1  A    between atoms: C_1  and  O_2
REMARK    2  A    between atoms: O_2  and  C_3
REMARK    3  A    between atoms: C_5  and  C_6
REMARK    4  A    between atoms: C_9  and  O_10
REMARK    5  A    between atoms: O_10  and  C_11
REMARK    6  A    between atoms: C_13  and  C_14
REMARK    7  A    between atoms: C_17  and  C_18
REMARK    8  A    between atoms: N_19  and  O_20
REMARK    9  A    between atoms: N_21  and  C_22
REMARK   10  A    between atoms: C_22  and  C_23
REMARK   11  A    between atoms: C_23  and  S_24
REMARK   12  A    between atoms: S_24  and  C_25
REMARK                            x       y       z     vdW  Elec       q    Type
REMARK                         _______ _______ _______ _____ _____    ______ ____
ROOT
ATOM      1  C   UNL     1       5.578   5.613  17.213  0.00  0.00    +0.000 A 
ATOM      2  N   UNL     1       4.963   5.104  16.113  0.00  0.00    +0.000 NA
ATOM      3  C   UNL     1       5.747   4.669  15.104  0.00  0.00    +0.000 A 
ATOM      4  C   UNL     1       5.047   4.265  13.844  0.00  0.00    +0.000 C 
ATOM      5  C   UNL     1       7.133   4.661  15.182  0.00  0.00    +0.000 A 
ATOM      6  C   UNL     1       7.749   5.066  16.373  0.00  0.00    +0.000 A 
ATOM      7  C   UNL     1       6.952   5.529  17.425  0.00  0.00    +0.000 A 
ENDROOT
BRANCH   7   8
ATOM      8  C   UNL     1       7.616   5.902  18.712  0.00  0.00    +0.000 C 
ATOM      9  N   UNL     1       7.435   5.084  19.716  0.00  0.00    +0.000 NA
ATOM     10  N   UNL     1       8.342   7.068  18.823  0.00  0.00    +0.000 N 
ATOM     11  H   UNL     1       8.992   7.100  19.603  0.00  0.00    +0.000 HD
BRANCH   9  12
ATOM     12  O   UNL     1       8.019   5.562  20.900  0.00  0.00    +0.000 OA
ATOM     13  H   UNL     1       7.263   5.525  21.529  0.00  0.00    +0.000 HD
ENDBRANCH   9  12
BRANCH  10  14
ATOM     14  C   UNL     1       8.116   8.303  18.088  0.00  0.00    +0.000 C 
BRANCH  14  15
ATOM     15  C   UNL     1       8.859   9.497  18.692  0.00  0.00    +0.000 C 
BRANCH  15  16
ATOM     16  S   UNL     1       8.428  11.054  17.841  0.00  0.00    +0.000 S 
ATOM     17  C   UNL     1      10.034  11.874  17.945  0.00  0.00    +0.000 C 
ENDBRANCH  15  16
ENDBRANCH  14  15
ENDBRANCH  10  14
ENDBRANCH   7   8
BRANCH   1  18
ATOM     18  O   UNL     1       4.800   6.265  18.158  0.00  0.00    +0.000 OA
BRANCH  18  25
ATOM     19  C   UNL     1       2.754   6.123  19.524  0.00  0.00    +0.000 A 
ATOM     20  C   UNL     1       1.925   5.299  20.295  0.00  0.00    +0.000 A 
ATOM     21  C   UNL     1       2.231   3.945  20.494  0.00  0.00    +0.000 A 
ATOM     22  C   UNL     1       1.387   3.099  21.404  0.00  0.00    +0.000 C 
ATOM     23  C   UNL     1       3.353   3.398  19.867  0.00  0.00    +0.000 A 
ATOM     24  C   UNL     1       4.164   4.200  19.061  0.00  0.00    +0.000 A 
ATOM     25  C   UNL     1       3.862   5.553  18.874  0.00  0.00    +0.000 A 
BRANCH  19  27
ATOM     26  C   UNL     1       2.123   7.953  18.129  0.00  0.00    +0.000 C 
ATOM     27  O   UNL     1       2.569   7.474  19.386  0.00  0.00    +0.000 OA
ENDBRANCH  19  27
ENDBRANCH  18  25
ENDBRANCH   1  18
TORSDOF 8
ENDMDL
MODEL 2
REMARK VINA RESULT:      -7.1      2.502      4.913
REMARK  Name = 
REMARK  12 active torsions:
REMARK  status: ('A' for Active; 'I' for Inactive)
REMARK    1  A    between atoms: C_1  and  O_2
REMARK    2  A    between atoms: O_2  and  C_3
REMARK    3  A    between atoms: C_5  and  C_6
REMARK    4  A    between atoms: C_9  and  O_10
REMARK    5  A    between atoms: O_10  and  C_11
REMARK    6  A    between atoms: C_13  and  C_14
REMARK    7  A    between atoms: C_17  and  C_18
REMARK    8  A    between atoms: N_19  and  O_20
REMARK    9  A    between atoms: N_21  and  C_22
REMARK   10  A    between atoms: C_22  and  C_23
REMARK   11  A    between atoms: C_23  and  S_24
REMARK   12  A    between atoms: S_24  and  C_25
REMARK                            x       y       z     vdW  Elec       q    Type
REMARK                         _______ _______ _______ _____ _____    ______ ____
ROOT
ATOM      1  C   UNL     1       5.460   6.459  17.656  0.00  0.00    +0.000 A 
ATOM      2  N   UNL     1       6.122   7.626  17.439  0.00  0.00    +0.000 NA
ATOM      3  C   UNL     1       7.392   7.717  17.886  0.00  0.00    +0.000 A 
ATOM      4  C   UNL     1       8.041   9.062  17.778  0.00  0.00    +0.000 C 
ATOM      5  C   UNL     1       8.053   6.654  18.486  0.00  0.00    +0.000 A 
ATOM      6  C   UNL     1       7.402   5.418  18.585  0.00  0.00    +0.000 A 
ATOM      7  C   UNL     1       6.082   5.309  18.136  0.00  0.00    +0.000 A 
ENDROOT
BRANCH   7   8
ATOM      8  C   UNL     1       5.418   3.970  18.191  0.00  0.00    +0.000 C 
ATOM      9  N   UNL     1       5.121   3.519  19.382  0.00  0.00    +0.000 NA
ATOM     10  N   UNL     1       5.175   3.252  17.040  0.00  0.00    +0.000 N 
ATOM     11  H   UNL     1       4.474   2.522  17.126  0.00  0.00    +0.000 HD
BRANCH   9  12
ATOM     12  O   UNL     1       4.585   2.221  19.338  0.00  0.00    +0.000 OA
ATOM     13  H   UNL     1       3.619   2.403  19.290  0.00  0.00    +0.000 HD
ENDBRANCH   9  12
BRANCH  10  14
ATOM     14  C   UNL     1       5.958   3.287  15.815  0.00  0.00    +0.000 C 
BRANCH  14  15
ATOM     15  C   UNL     1       5.457   4.335  14.820  0.00  0.00    +0.000 C 
BRANCH  15  16
ATOM     16  S   UNL     1       6.731   4.741  13.575  0.00  0.00    +0.000 S 
ATOM     17  C   UNL     1       6.324   3.479  12.349  0.00  0.00    +0.000 C 
ENDBRANCH  15  16
ENDBRANCH  14  15
ENDBRANCH  10  14
ENDBRANCH   7   8
BRANCH   1  18
ATOM     18  O   UNL     1       4.096   6.421  17.408  0.00  0.00    +0.000 OA
BRANCH  18  25
ATOM     19  C   UNL     1       2.651   6.887  19.350  0.00  0.00    +0.000 A 
ATOM     20  C   UNL     1       1.740   7.775  19.934  0.00  0.00    +0.000 A 
ATOM     21  C   UNL     1       1.357   8.956  19.282  0.00  0.00    +0.000 A 
ATOM     22  C   UNL     1       0.304   9.848  19.875  0.00  0.00    +0.000 C 
ATOM     23  C   UNL     1       1.937   9.277  18.052  0.00  0.00    +0.000 A 
ATOM     24  C   UNL     1       2.881   8.421  17.479  0.00  0.00    +0.000 A 
ATOM     25  C   UNL     1       3.251   7.238  18.128  0.00  0.00    +0.000 A 
BRANCH  19  27
ATOM     26  C   UNL     1       2.067   5.083  20.797  0.00  0.00    +0.000 C 
ATOM     27  O   UNL     1       2.978   5.669  19.884  0.00  0.00    +0.000 OA
ENDBRANCH  19  27
ENDBRANCH  18  25
ENDBRANCH   1  18
TORSDOF 8
ENDMDL
MODEL 3
REMARK VINA RESULT:      -7.0      1.165      2.427
REMARK  Name = 
REMARK  12 active torsions:
REMARK  status: ('A' for Active; 'I' for Inactive)
REMARK    1  A    between atoms: C_1  and  O_2
REMARK    2  A    between atoms: O_2  and  C_3
REMARK    3  A    between atoms: C_5  and  C_6
REMARK    4  A    between atoms: C_9  and  O_10
REMARK    5  A    between atoms: O_10  and  C_11
REMARK    6  A    between atoms: C_13  and  C_14
REMARK    7  A    between atoms: C_17  and  C_18
REMARK    8  A    between atoms: N_19  and  O_20
REMARK    9  A    between atoms: N_21  and  C_22
REMARK   10  A    between atoms: C_22  and  C_23
REMARK   11  A    between atoms: C_23  and  S_24
REMARK   12  A    between atoms: S_24  and  C_25
REMARK                            x       y       z     vdW  Elec       q    Type
REMARK                         _______ _______ _______ _____ _____    ______ ____
ROOT
ATOM      1  C   UNL     1       5.637   4.682  17.018  0.00  0.00    +0.000 A 
ATOM      2  N   UNL     1       5.149   4.088  15.897  0.00  0.00    +0.000 NA
ATOM      3  C   UNL     1       5.856   4.231  14.756  0.00  0.00    +0.000 A 
ATOM      4  C   UNL     1       5.217   3.707  13.507  0.00  0.00    +0.000 C 
ATOM      5  C   UNL     1       7.075   4.893  14.708  0.00  0.00    +0.000 A 
ATOM      6  C   UNL     1       7.628   5.386  15.896  0.00  0.00    +0.000 A 
ATOM      7  C   UNL     1       6.904   5.255  17.086  0.00  0.00    +0.000 A 
ENDROOT
BRANCH   7   8
ATOM      8  C   UNL     1       7.531   5.731  18.358  0.00  0.00    +0.000 C 
ATOM      9  N   UNL     1       7.588   4.864  19.336  0.00  0.00    +0.000 NA
ATOM     10  N   UNL     1       7.981   7.027  18.484  0.00  0.00    +0.000 N 
ATOM     11  H   UNL     1       8.645   7.183  19.237  0.00  0.00    +0.000 HD
BRANCH   9  12
ATOM     12  O   UNL     1       8.109   5.427  20.512  0.00  0.00    +0.000 OA
ATOM     13  H   UNL     1       9.000   5.723  20.219  0.00  0.00    +0.000 HD
ENDBRANCH   9  12
BRANCH  10  14
ATOM     14  C   UNL     1       7.448   8.200  17.809  0.00  0.00    +0.000 C 
BRANCH  14  15
ATOM     15  C   UNL     1       8.509   9.272  17.556  0.00  0.00    +0.000 C 
BRANCH  15  16
ATOM     16  S   UNL     1       9.010  10.097  19.107  0.00  0.00    +0.000 S 
ATOM     17  C   UNL     1       9.329  11.748  18.446  0.00  0.00    +0.000 C 
ENDBRANCH  15  16
ENDBRANCH  14  15
ENDBRANCH  10  14
ENDBRANCH   7   8
BRANCH   1  18
ATOM     18  O   UNL     1       4.823   4.737  18.139  0.00  0.00    +0.000 OA
BRANCH  18  25
ATOM     19  C   UNL     1       3.126   5.986  19.416  0.00  0.00    +0.000 A 
ATOM     20  C   UNL     1       2.316   7.127  19.468  0.00  0.00    +0.000 A 
ATOM     21  C   UNL     1       2.338   8.079  18.439  0.00  0.00    +0.000 A 
ATOM     22  C   UNL     1       1.393   9.246  18.459  0.00  0.00    +0.000 C 
ATOM     23  C   UNL     1       3.223   7.912  17.370  0.00  0.00    +0.000 A 
ATOM     24  C   UNL     1       4.067   6.799  17.329  0.00  0.00    +0.000 A 
ATOM     25  C   UNL     1       4.033   5.846  18.353  0.00  0.00    +0.000 A 
BRANCH  19  27
ATOM     26  C   UNL     1       1.829   4.733  20.979  0.00  0.00    +0.000 C 
ATOM     27  O   UNL     1       3.068   4.969  20.332  0.00  0.00    +0.000 OA
ENDBRANCH  19  27
ENDBRANCH  18  25
ENDBRANCH   1  18
TORSDOF 8
ENDMDL
MODEL 4
REMARK VINA RESULT:      -6.9      1.491      2.287
REMARK  Name = 
REMARK  12 active torsions:
REMARK  status: ('A' for Active; 'I' for Inactive)
REMARK    1  A    between atoms: C_1  and  O_2
REMARK    2  A    between atoms: O_2  and  C_3
REMARK    3  A    between atoms: C_5  and  C_6
REMARK    4  A    between atoms: C_9  and  O_10
REMARK    5  A    between atoms: O_10  and  C_11
REMARK    6  A    between atoms: C_13  and  C_14
REMARK    7  A    between atoms: C_17  and  C_18
REMARK    8  A    between atoms: N_19  and  O_20
REMARK    9  A    between atoms: N_21  and  C_22
REMARK   10  A    between atoms: C_22  and  C_23
REMARK   11  A    between atoms: C_23  and  S_24
REMARK   12  A    between atoms: S_24  and  C_25
REMARK                            x       y       z     vdW  Elec       q    Type
REMARK                         _______ _______ _______ _____ _____    ______ ____
ROOT
ATOM      1  C   UNL     1       5.575   5.080  16.987  0.00  0.00    +0.000 A 
ATOM      2  N   UNL     1       5.016   4.479  15.904  0.00  0.00    +0.000 NA
ATOM      3  C   UNL     1       5.776   4.356  14.795  0.00  0.00    +0.000 A 
ATOM      4  C   UNL     1       5.087   3.840  13.570  0.00  0.00    +0.000 C 
ATOM      5  C   UNL     1       7.105   4.753  14.750  0.00  0.00    +0.000 A 
ATOM      6  C   UNL     1       7.705   5.249  15.914  0.00  0.00    +0.000 A 
ATOM      7  C   UNL     1       6.930   5.393  17.069  0.00  0.00    +0.000 A 
ENDROOT
BRANCH   7   8
ATOM      8  C   UNL     1       7.596   5.867  18.321  0.00  0.00    +0.000 C 
ATOM      9  N   UNL     1       7.684   5.000  19.295  0.00  0.00    +0.000 NA
ATOM     10  N   UNL     1       8.051   7.163  18.434  0.00  0.00    +0.000 N 
ATOM     11  H   UNL     1       8.738   7.318  19.166  0.00  0.00    +0.000 HD
BRANCH   9  12
ATOM     12  O   UNL     1       8.241   5.562  20.456  0.00  0.00    +0.000 OA
ATOM     13  H   UNL     1       7.572   5.323  21.137  0.00  0.00    +0.000 HD
ENDBRANCH   9  12
BRANCH  10  14
ATOM     14  C   UNL     1       7.497   8.337  17.777  0.00  0.00    +0.000 C 
BRANCH  14  15
ATOM     15  C   UNL     1       8.525   9.454  17.593  0.00  0.00    +0.000 C 
BRANCH  15  16
ATOM     16  S   UNL     1       9.116  10.093  19.200  0.00  0.00    +0.000 S 
ATOM     17  C   UNL     1       9.452  11.797  18.708  0.00  0.00    +0.000 C 
ENDBRANCH  15  16
ENDBRANCH  14  15
ENDBRANCH  10  14
ENDBRANCH   7   8
BRANCH   1  18
ATOM     18  O   UNL     1       4.752   5.416  18.051  0.00  0.00    +0.000 OA
BRANCH  18  25
ATOM     19  C   UNL     1       3.775   3.429  19.135  0.00  0.00    +0.000 A 
ATOM     20  C   UNL     1       2.629   2.645  19.308  0.00  0.00    +0.000 A 
ATOM     21  C   UNL     1       1.426   2.965  18.662  0.00  0.00    +0.000 A 
ATOM     22  C   UNL     1       0.234   2.060  18.778  0.00  0.00    +0.000 C 
ATOM     23  C   UNL     1       1.358   4.118  17.876  0.00  0.00    +0.000 A 
ATOM     24  C   UNL     1       2.483   4.933  17.730  0.00  0.00    +0.000 A 
ATOM     25  C   UNL     1       3.684   4.603  18.367  0.00  0.00    +0.000 A 
BRANCH  19  27
ATOM     26  C   UNL     1       5.095   1.952  20.464  0.00  0.00    +0.000 C 
ATOM     27  O   UNL     1       5.004   3.107  19.647  0.00  0.00    +0.000 OA
ENDBRANCH  19  27
ENDBRANCH  18  25
ENDBRANCH   1  18
TORSDOF 8
ENDMDL
MODEL 5
REMARK VINA RESULT:      -6.8      2.819      4.881
REMARK  Name = 
REMARK  12 active torsions:
REMARK  status: ('A' for Active; 'I' for Inactive)
REMARK    1  A    between atoms: C_1  and  O_2
REMARK    2  A    between atoms: O_2  and  C_3
REMARK    3  A    between atoms: C_5  and  C_6
REMARK    4  A    between atoms: C_9  and  O_10
REMARK    5  A    between atoms: O_10  and  C_11
REMARK    6  A    between atoms: C_13  and  C_14
REMARK    7  A    between atoms: C_17  and  C_18
REMARK    8  A    between atoms: N_19  and  O_20
REMARK    9  A    between atoms: N_21  and  C_22
REMARK   10  A    between atoms: C_22  and  C_23
REMARK   11  A    between atoms: C_23  and  S_24
REMARK   12  A    between atoms: S_24  and  C_25
REMARK                            x       y       z     vdW  Elec       q    Type
REMARK                         _______ _______ _______ _____ _____    ______ ____
ROOT
ATOM      1  C   UNL     1       3.191   5.210  19.462  0.00  0.00    +0.000 A 
ATOM      2  N   UNL     1       1.991   4.585  19.584  0.00  0.00    +0.000 NA
ATOM      3  C   UNL     1       1.805   3.446  18.884  0.00  0.00    +0.000 A 
ATOM      4  C   UNL     1       0.425   2.867  18.908  0.00  0.00    +0.000 C 
ATOM      5  C   UNL     1       2.806   2.868  18.114  0.00  0.00    +0.000 A 
ATOM      6  C   UNL     1       4.078   3.453  18.104  0.00  0.00    +0.000 A 
ATOM      7  C   UNL     1       4.285   4.640  18.816  0.00  0.00    +0.000 A 
ENDROOT
BRANCH   7   8
ATOM      8  C   UNL     1       5.662   5.223  18.847  0.00  0.00    +0.000 C 
ATOM      9  N   UNL     1       6.330   5.074  19.960  0.00  0.00    +0.000 NA
ATOM     10  N   UNL     1       6.165   5.908  17.762  0.00  0.00    +0.000 N 
ATOM     11  H   UNL     1       7.176   6.004  17.743  0.00  0.00    +0.000 HD
BRANCH   9  12
ATOM     12  O   UNL     1       7.571   5.730  19.925  0.00  0.00    +0.000 OA
ATOM     13  H   UNL     1       8.157   5.034  19.550  0.00  0.00    +0.000 HD
ENDBRANCH   9  12
BRANCH  10  14
ATOM     14  C   UNL     1       5.401   6.675  16.791  0.00  0.00    +0.000 C 
BRANCH  14  15
ATOM     15  C   UNL     1       5.473   6.086  15.380  0.00  0.00    +0.000 C 
BRANCH  15  16
ATOM     16  S   UNL     1       6.638   4.681  15.300  0.00  0.00    +0.000 S 
ATOM     17  C   UNL     1       6.033   3.912  13.783  0.00  0.00    +0.000 C 
ENDBRANCH  15  16
ENDBRANCH  14  15
ENDBRANCH  10  14
ENDBRANCH   7   8
BRANCH   1  18
ATOM     18  O   UNL     1       3.324   6.486  19.990  0.00  0.00    +0.000 OA
BRANCH  18  25
ATOM     19  C   UNL     1       1.635   8.246  20.342  0.00  0.00    +0.000 A 
ATOM     20  C   UNL     1       0.795   9.188  19.737  0.00  0.00    +0.000 A 
ATOM     21  C   UNL     1       0.753   9.334  18.343  0.00  0.00    +0.000 A 
ATOM     22  C   UNL     1      -0.225  10.278  17.704  0.00  0.00    +0.000 C 
ATOM     23  C   UNL     1       1.605   8.563  17.548  0.00  0.00    +0.000 A 
ATOM     24  C   UNL     1       2.480   7.650  18.142  0.00  0.00    +0.000 A 
ATOM     25  C   UNL     1       2.510   7.499  19.533  0.00  0.00    +0.000 A 
BRANCH  19  27
ATOM     26  C   UNL     1       1.284   9.030  22.567  0.00  0.00    +0.000 C 
ATOM     27  O   UNL     1       1.639   7.979  21.686  0.00  0.00    +0.000 OA
ENDBRANCH  19  27
ENDBRANCH  18  25
ENDBRANCH   1  18
TORSDOF 8
ENDMDL
MODEL 6
REMARK VINA RESULT:      -6.8      3.012      5.243
REMARK  Name = 
REMARK  12 active torsions:
REMARK  status: ('A' for Active; 'I' for Inactive)
REMARK    1  A    between atoms: C_1  and  O_2
REMARK    2  A    between atoms: O_2  and  C_3
REMARK    3  A    between atoms: C_5  and  C_6
REMARK    4  A    between atoms: C_9  and  O_10
REMARK    5  A    between atoms: O_10  and  C_11
REMARK    6  A    between atoms: C_13  and  C_14
REMARK    7  A    between atoms: C_17  and  C_18
REMARK    8  A    between atoms: N_19  and  O_20
REMARK    9  A    between atoms: N_21  and  C_22
REMARK   10  A    between atoms: C_22  and  C_23
REMARK   11  A    between atoms: C_23  and  S_24
REMARK   12  A    between atoms: S_24  and  C_25
REMARK                            x       y       z     vdW  Elec       q    Type
REMARK                         _______ _______ _______ _____ _____    ______ ____
ROOT
ATOM      1  C   UNL     1       3.467   4.396  19.062  0.00  0.00    +0.000 A 
ATOM      2  N   UNL     1       2.240   3.926  19.410  0.00  0.00    +0.000 NA
ATOM      3  C   UNL     1       1.820   2.783  18.829  0.00  0.00    +0.000 A 
ATOM      4  C   UNL     1       0.407   2.375  19.106  0.00  0.00    +0.000 C 
ATOM      5  C   UNL     1       2.614   2.050  17.956  0.00  0.00    +0.000 A 
ATOM      6  C   UNL     1       3.925   2.478  17.709  0.00  0.00    +0.000 A 
ATOM      7  C   UNL     1       4.372   3.666  18.296  0.00  0.00    +0.000 A 
ENDROOT
BRANCH   7   8
ATOM      8  C   UNL     1       5.792   4.081  18.073  0.00  0.00    +0.000 C 
ATOM      9  N   UNL     1       6.449   4.489  19.127  0.00  0.00    +0.000 NA
ATOM     10  N   UNL     1       6.345   4.062  16.811  0.00  0.00    +0.000 N 
ATOM     11  H   UNL     1       7.361   4.063  16.784  0.00  0.00    +0.000 HD
BRANCH   9  12
ATOM     12  O   UNL     1       7.740   4.940  18.805  0.00  0.00    +0.000 OA
ATOM     13  H   UNL     1       8.164   4.119  18.470  0.00  0.00    +0.000 HD
ENDBRANCH   9  12
BRANCH  10  14
ATOM     14  C   UNL     1       5.642   4.261  15.553  0.00  0.00    +0.000 C 
BRANCH  14  15
ATOM     15  C   UNL     1       6.559   4.130  14.335  0.00  0.00    +0.000 C 
BRANCH  15  16
ATOM     16  S   UNL     1       5.619   3.674  12.836  0.00  0.00    +0.000 S 
ATOM     17  C   UNL     1       7.007   3.228  11.770  0.00  0.00    +0.000 C 
ENDBRANCH  15  16
ENDBRANCH  14  15
ENDBRANCH  10  14
ENDBRANCH   7   8
BRANCH   1  18
ATOM     18  O   UNL     1       3.823   5.672  19.472  0.00  0.00    +0.000 OA
BRANCH  18  25
ATOM     19  C   UNL     1       3.161   7.452  17.902  0.00  0.00    +0.000 A 
ATOM     20  C   UNL     1       2.361   8.582  17.695  0.00  0.00    +0.000 A 
ATOM     21  C   UNL     1       1.512   9.064  18.702  0.00  0.00    +0.000 A 
ATOM     22  C   UNL     1       0.736  10.334  18.502  0.00  0.00    +0.000 C 
ATOM     23  C   UNL     1       1.423   8.370  19.911  0.00  0.00    +0.000 A 
ATOM     24  C   UNL     1       2.183   7.216  20.113  0.00  0.00    +0.000 A 
ATOM     25  C   UNL     1       3.039   6.746  19.110  0.00  0.00    +0.000 A 
BRANCH  19  27
ATOM     26  C   UNL     1       5.413   7.495  17.115  0.00  0.00    +0.000 C 
ATOM     27  O   UNL     1       4.090   7.001  17.001  0.00  0.00    +0.000 OA
ENDBRANCH  19  27
ENDBRANCH  18  25
ENDBRANCH   1  18
TORSDOF 8
ENDMDL
MODEL 7
REMARK VINA RESULT:      -6.6      3.074      6.287
REMARK  Name = 
REMARK  12 active torsions:
REMARK  status: ('A' for Active; 'I' for Inactive)
REMARK    1  A    between atoms: C_1  and  O_2
REMARK    2  A    between atoms: O_2  and  C_3
REMARK    3  A    between atoms: C_5  and  C_6
REMARK    4  A    between atoms: C_9  and  O_10
REMARK    5  A    between atoms: O_10  and  C_11
REMARK    6  A    between atoms: C_13  and  C_14
REMARK    7  A    between atoms: C_17  and  C_18
REMARK    8  A    between atoms: N_19  and  O_20
REMARK    9  A    between atoms: N_21  and  C_22
REMARK   10  A    between atoms: C_22  and  C_23
REMARK   11  A    between atoms: C_23  and  S_24
REMARK   12  A    between atoms: S_24  and  C_25
REMARK                            x       y       z     vdW  Elec       q    Type
REMARK                         _______ _______ _______ _____ _____    ______ ____
ROOT
ATOM      1  C   UNL     1       3.084   5.119  19.203  0.00  0.00    +0.000 A 
ATOM      2  N   UNL     1       2.999   3.856  18.709  0.00  0.00    +0.000 NA
ATOM      3  C   UNL     1       1.979   3.083  19.140  0.00  0.00    +0.000 A 
ATOM      4  C   UNL     1       2.001   1.650  18.708  0.00  0.00    +0.000 C 
ATOM      5  C   UNL     1       0.996   3.552  20.001  0.00  0.00    +0.000 A 
ATOM      6  C   UNL     1       1.024   4.895  20.397  0.00  0.00    +0.000 A 
ATOM      7  C   UNL     1       2.079   5.706  19.968  0.00  0.00    +0.000 A 
ENDROOT
BRANCH   7   8
ATOM      8  C   UNL     1       2.066   7.153  20.348  0.00  0.00    +0.000 C 
ATOM      9  N   UNL     1       1.814   7.421  21.602  0.00  0.00    +0.000 NA
ATOM     10  N   UNL     1       2.275   8.135  19.404  0.00  0.00    +0.000 N 
ATOM     11  H   UNL     1       2.547   9.041  19.775  0.00  0.00    +0.000 HD
BRANCH   9  12
ATOM     12  O   UNL     1       1.734   8.802  21.844  0.00  0.00    +0.000 OA
ATOM     13  H   UNL     1       2.416   9.155  21.228  0.00  0.00    +0.000 HD
ENDBRANCH   9  12
BRANCH  10  14
ATOM     14  C   UNL     1       1.939   8.065  17.991  0.00  0.00    +0.000 C 
BRANCH  14  15
ATOM     15  C   UNL     1       1.006   9.193  17.546  0.00  0.00    +0.000 C 
BRANCH  15  16
ATOM     16  S   UNL     1       0.979  10.557  18.761  0.00  0.00    +0.000 S 
ATOM     17  C   UNL     1      -0.663  10.269  19.456  0.00  0.00    +0.000 C 
ENDBRANCH  15  16
ENDBRANCH  14  15
ENDBRANCH  10  14
ENDBRANCH   7   8
BRANCH   1  18
ATOM     18  O   UNL     1       4.236   5.847  18.950  0.00  0.00    +0.000 OA
BRANCH  18  25
ATOM     19  C   UNL     1       6.335   4.995  17.980  0.00  0.00    +0.000 A 
ATOM     20  C   UNL     1       7.071   4.777  16.809  0.00  0.00    +0.000 A 
ATOM     21  C   UNL     1       6.563   5.144  15.555  0.00  0.00    +0.000 A 
ATOM     22  C   UNL     1       7.403   4.997  14.319  0.00  0.00    +0.000 C 
ATOM     23  C   UNL     1       5.277   5.684  15.468  0.00  0.00    +0.000 A 
ATOM     24  C   UNL     1       4.516   5.866  16.625  0.00  0.00    +0.000 A 
ATOM     25  C   UNL     1       5.032   5.510  17.876  0.00  0.00    +0.000 A 
BRANCH  19  27
ATOM     26  C   UNL     1       7.866   5.597  19.708  0.00  0.00    +0.000 C 
ATOM     27  O   UNL     1       6.821   4.762  19.240  0.00  0.00    +0.000 OA
ENDBRANCH  19  27
ENDBRANCH  18  25
ENDBRANCH   1  18
TORSDOF 8
ENDMDL
MODEL 8
REMARK VINA RESULT:      -6.6      2.974      6.575
REMARK  Name = 
REMARK  12 active torsions:
REMARK  status: ('A' for Active; 'I' for Inactive)
REMARK    1  A    between atoms: C_1  and  O_2
REMARK    2  A    between atoms: O_2  and  C_3
REMARK    3  A    between atoms: C_5  and  C_6
REMARK    4  A    between atoms: C_9  and  O_10
REMARK    5  A    between atoms: O_10  and  C_11
REMARK    6  A    between atoms: C_13  and  C_14
REMARK    7  A    between atoms: C_17  and  C_18
REMARK    8  A    between atoms: N_19  and  O_20
REMARK    9  A    between atoms: N_21  and  C_22
REMARK   10  A    between atoms: C_22  and  C_23
REMARK   11  A    between atoms: C_23  and  S_24
REMARK   12  A    between atoms: S_24  and  C_25
REMARK                            x       y       z     vdW  Elec       q    Type
REMARK                         _______ _______ _______ _____ _____    ______ ____
ROOT
ATOM      1  C   UNL     1       3.547   5.612  19.415  0.00  0.00    +0.000 A 
ATOM      2  N   UNL     1       3.748   4.306  19.734  0.00  0.00    +0.000 NA
ATOM      3  C   UNL     1       2.805   3.692  20.478  0.00  0.00    +0.000 A 
ATOM      4  C   UNL     1       3.126   2.308  20.950  0.00  0.00    +0.000 C 
ATOM      5  C   UNL     1       1.626   4.319  20.861  0.00  0.00    +0.000 A 
ATOM      6  C   UNL     1       1.374   5.621  20.414  0.00  0.00    +0.000 A 
ATOM      7  C   UNL     1       2.346   6.276  19.650  0.00  0.00    +0.000 A 
ENDROOT
BRANCH   7   8
ATOM      8  C   UNL     1       2.040   7.644  19.128  0.00  0.00    +0.000 C 
ATOM      9  N   UNL     1       2.433   7.900  17.907  0.00  0.00    +0.000 NA
ATOM     10  N   UNL     1       1.411   8.580  19.919  0.00  0.00    +0.000 N 
ATOM     11  H   UNL     1       0.979   9.351  19.418  0.00  0.00    +0.000 HD
BRANCH   9  12
ATOM     12  O   UNL     1       2.183   9.232  17.538  0.00  0.00    +0.000 OA
ATOM     13  H   UNL     1       1.215   9.216  17.364  0.00  0.00    +0.000 HD
ENDBRANCH   9  12
BRANCH  10  14
ATOM     14  C   UNL     1       1.495   8.688  21.368  0.00  0.00    +0.000 C 
BRANCH  14  15
ATOM     15  C   UNL     1       0.730   9.893  21.918  0.00  0.00    +0.000 C 
BRANCH  15  16
ATOM     16  S   UNL     1       0.791  11.309  20.765  0.00  0.00    +0.000 S 
ATOM     17  C   UNL     1      -0.958  11.371  20.319  0.00  0.00    +0.000 C 
ENDBRANCH  15  16
ENDBRANCH  14  15
ENDBRANCH  10  14
ENDBRANCH   7   8
BRANCH   1  18
ATOM     18  O   UNL     1       4.596   6.319  18.847  0.00  0.00    +0.000 OA
BRANCH  18  25
ATOM     19  C   UNL     1       6.466   5.100  17.802  0.00  0.00    +0.000 A 
ATOM     20  C   UNL     1       7.071   4.705  16.603  0.00  0.00    +0.000 A 
ATOM     21  C   UNL     1       6.530   5.072  15.363  0.00  0.00    +0.000 A 
ATOM     22  C   UNL     1       7.244   4.727  14.087  0.00  0.00    +0.000 C 
ATOM     23  C   UNL     1       5.336   5.797  15.324  0.00  0.00    +0.000 A 
ATOM     24  C   UNL     1       4.699   6.160  16.513  0.00  0.00    +0.000 A 
ATOM     25  C   UNL     1       5.249   5.802  17.749  0.00  0.00    +0.000 A 
BRANCH  19  27
ATOM     26  C   UNL     1       8.021   5.748  19.491  0.00  0.00    +0.000 C 
ATOM     27  O   UNL     1       7.005   4.869  19.040  0.00  0.00    +0.000 OA
ENDBRANCH  19  27
ENDBRANCH  18  25
ENDBRANCH   1  18
TORSDOF 8
ENDMDL
MODEL 9
REMARK VINA RESULT:      -6.5      3.255      6.665
REMARK  Name = 
REMARK  12 active torsions:
REMARK  status: ('A' for Active; 'I' for Inactive)
REMARK    1  A    between atoms: C_1  and  O_2
REMARK    2  A    between atoms: O_2  and  C_3
REMARK    3  A    between atoms: C_5  and  C_6
REMARK    4  A    between atoms: C_9  and  O_10
REMARK    5  A    between atoms: O_10  and  C_11
REMARK    6  A    between atoms: C_13  and  C_14
REMARK    7  A    between atoms: C_17  and  C_18
REMARK    8  A    between atoms: N_19  and  O_20
REMARK    9  A    between atoms: N_21  and  C_22
REMARK   10  A    between atoms: C_22  and  C_23
REMARK   11  A    between atoms: C_23  and  S_24
REMARK   12  A    between atoms: S_24  and  C_25
REMARK                            x       y       z     vdW  Elec       q    Type
REMARK                         _______ _______ _______ _____ _____    ______ ____
ROOT
ATOM      1  C   UNL     1       3.649   5.288  19.550  0.00  0.00    +0.000 A 
ATOM      2  N   UNL     1       3.761   4.001  19.971  0.00  0.00    +0.000 NA
ATOM      3  C   UNL     1       2.737   3.485  20.684  0.00  0.00    +0.000 A 
ATOM      4  C   UNL     1       2.954   2.126  21.272  0.00  0.00    +0.000 C 
ATOM      5  C   UNL     1       1.568   4.191  20.935  0.00  0.00    +0.000 A 
ATOM      6  C   UNL     1       1.414   5.468  20.382  0.00  0.00    +0.000 A 
ATOM      7  C   UNL     1       2.469   6.022  19.649  0.00  0.00    +0.000 A 
ENDROOT
BRANCH   7   8
ATOM      8  C   UNL     1       2.271   7.361  19.013  0.00  0.00    +0.000 C 
ATOM      9  N   UNL     1       2.860   7.550  17.862  0.00  0.00    +0.000 NA
ATOM     10  N   UNL     1       1.534   8.341  19.642  0.00  0.00    +0.000 N 
ATOM     11  H   UNL     1       1.199   9.086  19.037  0.00  0.00    +0.000 HD
BRANCH   9  12
ATOM     12  O   UNL     1       2.691   8.861  17.388  0.00  0.00    +0.000 OA
ATOM     13  H   UNL     1       2.703   8.727  16.413  0.00  0.00    +0.000 HD
ENDBRANCH   9  12
BRANCH  10  14
ATOM     14  C   UNL     1       1.383   8.526  21.077  0.00  0.00    +0.000 C 
BRANCH  14  15
ATOM     15  C   UNL     1       0.007   9.074  21.462  0.00  0.00    +0.000 C 
BRANCH  15  16
ATOM     16  S   UNL     1      -0.038   9.601  23.211  0.00  0.00    +0.000 S 
ATOM     17  C   UNL     1      -1.253  10.929  23.064  0.00  0.00    +0.000 C 
ENDBRANCH  15  16
ENDBRANCH  14  15
ENDBRANCH  10  14
ENDBRANCH   7   8
BRANCH   1  18
ATOM     18  O   UNL     1       4.770   5.904  19.014  0.00  0.00    +0.000 OA
BRANCH  18  25
ATOM     19  C   UNL     1       6.595   5.762  17.365  0.00  0.00    +0.000 A 
ATOM     20  C   UNL     1       7.002   5.267  16.120  0.00  0.00    +0.000 A 
ATOM     21  C   UNL     1       6.131   4.514  15.320  0.00  0.00    +0.000 A 
ATOM     22  C   UNL     1       6.546   4.075  13.944  0.00  0.00    +0.000 C 
ATOM     23  C   UNL     1       4.855   4.206  15.798  0.00  0.00    +0.000 A 
ATOM     24  C   UNL     1       4.453   4.657  17.058  0.00  0.00    +0.000 A 
ATOM     25  C   UNL     1       5.321   5.419  17.848  0.00  0.00    +0.000 A 
BRANCH  19  27
ATOM     26  C   UNL     1       7.711   7.857  17.602  0.00  0.00    +0.000 C 
ATOM     27  O   UNL     1       7.359   6.595  18.140  0.00  0.00    +0.000 OA
ENDBRANCH  19  27
ENDBRANCH  18  25
ENDBRANCH   1  18
TORSDOF 8
ENDMDL
