MODEL 1
REMARK VINA RESULT:      -8.6      0.000      0.000
REMARK  Name = 
REMARK  4 active torsions:
REMARK  status: ('A' for Active; 'I' for Inactive)
REMARK    1  A    between atoms: C_2  and  C_5
REMARK    2  A    between atoms: N_3  and  O_4
REMARK    3  A    between atoms: C_8  and  C_9
REMARK    4  A    between atoms: C_9  and  N_10
REMARK                            x       y       z     vdW  Elec       q    Type
REMARK                         _______ _______ _______ _____ _____    ______ ____
ROOT
ATOM      1  N   UNL     1       3.366   6.579  17.664  0.00  0.00    +0.000 N 
ATOM      2  C   UNL     1       4.700   6.623  17.419  0.00  0.00    +0.000 A 
ATOM      3  C   UNL     1       5.312   5.899  18.428  0.00  0.00    +0.000 A 
ATOM      4  C   UNL     1       4.347   4.896  18.757  0.00  0.00    +0.000 A 
ATOM      5  C   UNL     1       4.448   3.592  19.276  0.00  0.00    +0.000 A 
ATOM      6  C   UNL     1       3.424   2.675  19.025  0.00  0.00    +0.000 A 
ATOM      7  C   UNL     1       2.275   3.062  18.338  0.00  0.00    +0.000 A 
ATOM      8  C   UNL     1       2.084   4.388  17.925  0.00  0.00    +0.000 A 
ATOM      9  C   UNL     1       3.149   5.282  18.122  0.00  0.00    +0.000 A 
ATOM     10  S   UNL     1       6.975   5.604  18.011  0.00  0.00    +0.000 S 
ATOM     11  O   UNL     1       7.661   6.848  18.299  0.00  0.00    +0.000 OA
ATOM     12  O   UNL     1       7.348   4.317  18.559  0.00  0.00    +0.000 OA
ATOM     13  C   UNL     1       6.493   5.517  16.254  0.00  0.00    +0.000 C 
ATOM     14  C   UNL     1       5.418   6.641  16.100  0.00  0.00    +0.000 C 
ENDROOT
BRANCH   1  15
ATOM     15  C   UNL     1       2.371   7.644  17.532  0.00  0.00    +0.000 C 
BRANCH  15  19
ATOM     16  C   UNL     1       0.869   9.445  21.211  0.00  0.00    +0.000 A 
ATOM     17  C   UNL     1       0.776  10.118  19.990  0.00  0.00    +0.000 A 
ATOM     18  C   UNL     1       1.292   9.542  18.819  0.00  0.00    +0.000 A 
ATOM     19  C   UNL     1       1.898   8.275  18.839  0.00  0.00    +0.000 A 
ATOM     20  C   UNL     1       1.948   7.590  20.067  0.00  0.00    +0.000 A 
ATOM     21  C   UNL     1       1.449   8.173  21.245  0.00  0.00    +0.000 A 
BRANCH  16  23
ATOM     22  O   UNL     1       0.512   9.630  23.554  0.00  0.00    +0.000 OA
ATOM     23  C   UNL     1       0.299  10.085  22.431  0.00  0.00    +0.000 C 
ATOM     24  N   UNL     1      -0.539  11.153  22.224  0.00  0.00    +0.000 N 
ATOM     25  H   UNL     1      -0.997  11.333  21.335  0.00  0.00    +0.000 HD
BRANCH  24  26
ATOM     26  O   UNL     1      -1.190  11.664  23.378  0.00  0.00    +0.000 OA
ATOM     27  H   UNL     1      -1.861  12.263  22.981  0.00  0.00    +0.000 HD
ENDBRANCH  24  26
ENDBRANCH  16  23
ENDBRANCH  15  19
ENDBRANCH   1  15
TORSDOF 4
ENDMDL
MODEL 2
REMARK VINA RESULT:      -8.3      0.372      1.029
REMARK  Name = 
REMARK  4 active torsions:
REMARK  status: ('A' for Active; 'I' for Inactive)
REMARK    1  A    between atoms: C_2  and  C_5
REMARK    2  A    between atoms: N_3  and  O_4
REMARK    3  A    between atoms: C_8  and  C_9
REMARK    4  A    between atoms: C_9  and  N_10
REMARK                            x       y       z     vdW  Elec       q    Type
REMARK                         _______ _______ _______ _____ _____    ______ ____
ROOT
ATOM      1  N   UNL     1       3.214   6.837  17.603  0.00  0.00    +0.000 N 
ATOM      2  C   UNL     1       4.548   6.738  17.378  0.00  0.00    +0.000 A 
ATOM      3  C   UNL     1       5.071   5.986  18.417  0.00  0.00    +0.000 A 
ATOM      4  C   UNL     1       4.004   5.096  18.760  0.00  0.00    +0.000 A 
ATOM      5  C   UNL     1       3.964   3.806  19.317  0.00  0.00    +0.000 A 
ATOM      6  C   UNL     1       2.855   2.990  19.078  0.00  0.00    +0.000 A 
ATOM      7  C   UNL     1       1.761   3.472  18.362  0.00  0.00    +0.000 A 
ATOM      8  C   UNL     1       1.711   4.797  17.907  0.00  0.00    +0.000 A 
ATOM      9  C   UNL     1       2.860   5.583  18.096  0.00  0.00    +0.000 A 
ATOM     10  S   UNL     1       6.700   5.510  18.036  0.00  0.00    +0.000 S 
ATOM     11  O   UNL     1       7.506   6.686  18.297  0.00  0.00    +0.000 OA
ATOM     12  O   UNL     1       6.932   4.209  18.626  0.00  0.00    +0.000 OA
ATOM     13  C   UNL     1       6.234   5.420  16.274  0.00  0.00    +0.000 C 
ATOM     14  C   UNL     1       5.281   6.642  16.071  0.00  0.00    +0.000 C 
ENDROOT
BRANCH   1  15
ATOM     15  C   UNL     1       2.335   7.993  17.425  0.00  0.00    +0.000 C 
BRANCH  15  19
ATOM     16  C   UNL     1       0.659   9.590  21.123  0.00  0.00    +0.000 A 
ATOM     17  C   UNL     1       1.414   8.414  21.124  0.00  0.00    +0.000 A 
ATOM     18  C   UNL     1       1.920   7.894  19.924  0.00  0.00    +0.000 A 
ATOM     19  C   UNL     1       1.697   8.543  18.698  0.00  0.00    +0.000 A 
ATOM     20  C   UNL     1       0.970   9.748  18.717  0.00  0.00    +0.000 A 
ATOM     21  C   UNL     1       0.446  10.263  19.916  0.00  0.00    +0.000 A 
BRANCH  16  23
ATOM     22  O   UNL     1       0.523   9.651  23.496  0.00  0.00    +0.000 OA
ATOM     23  C   UNL     1       0.147  10.118  22.421  0.00  0.00    +0.000 C 
ATOM     24  N   UNL     1      -0.822  11.087  22.346  0.00  0.00    +0.000 N 
ATOM     25  H   UNL     1      -1.386  11.243  21.514  0.00  0.00    +0.000 HD
BRANCH  24  26
ATOM     26  O   UNL     1      -1.406  11.479  23.579  0.00  0.00    +0.000 OA
ATOM     27  H   UNL     1      -1.281  10.671  24.125  0.00  0.00    +0.000 HD
ENDBRANCH  24  26
ENDBRANCH  16  23
ENDBRANCH  15  19
ENDBRANCH   1  15
TORSDOF 4
ENDMDL
MODEL 3
REMARK VINA RESULT:      -8.3      2.165      2.622
REMARK  Name = 
REMARK  4 active torsions:
REMARK  status: ('A' for Active; 'I' for Inactive)
REMARK    1  A    between atoms: C_2  and  C_5
REMARK    2  A    between atoms: N_3  and  O_4
REMARK    3  A    between atoms: C_8  and  C_9
REMARK    4  A    between atoms: C_9  and  N_10
REMARK                            x       y       z     vdW  Elec       q    Type
REMARK                         _______ _______ _______ _____ _____    ______ ____
ROOT
ATOM      1  N   UNL     1       3.608   5.850  18.851  0.00  0.00    +0.000 N 
ATOM      2  C   UNL     1       4.622   5.967  17.957  0.00  0.00    +0.000 A 
ATOM      3  C   UNL     1       5.193   4.711  17.838  0.00  0.00    +0.000 A 
ATOM      4  C   UNL     1       4.095   3.820  18.057  0.00  0.00    +0.000 A 
ATOM      5  C   UNL     1       3.809   2.514  17.618  0.00  0.00    +0.000 A 
ATOM      6  C   UNL     1       2.480   2.087  17.560  0.00  0.00    +0.000 A 
ATOM      7  C   UNL     1       1.449   2.912  18.005  0.00  0.00    +0.000 A 
ATOM      8  C   UNL     1       1.711   4.167  18.572  0.00  0.00    +0.000 A 
ATOM      9  C   UNL     1       3.043   4.610  18.562  0.00  0.00    +0.000 A 
ATOM     10  S   UNL     1       6.261   4.680  16.466  0.00  0.00    +0.000 S 
ATOM     11  O   UNL     1       7.471   5.339  16.916  0.00  0.00    +0.000 OA
ATOM     12  O   UNL     1       6.216   3.350  15.897  0.00  0.00    +0.000 OA
ATOM     13  C   UNL     1       5.159   5.857  15.612  0.00  0.00    +0.000 C 
ATOM     14  C   UNL     1       4.711   6.843  16.740  0.00  0.00    +0.000 C 
ENDROOT
BRANCH   1  15
ATOM     15  C   UNL     1       3.209   6.773  19.915  0.00  0.00    +0.000 C 
BRANCH  15  19
ATOM     16  C   UNL     1       0.342   9.897  18.890  0.00  0.00    +0.000 A 
ATOM     17  C   UNL     1       0.469   9.440  20.204  0.00  0.00    +0.000 A 
ATOM     18  C   UNL     1       1.372   8.412  20.515  0.00  0.00    +0.000 A 
ATOM     19  C   UNL     1       2.178   7.828  19.524  0.00  0.00    +0.000 A 
ATOM     20  C   UNL     1       2.070   8.327  18.213  0.00  0.00    +0.000 A 
ATOM     21  C   UNL     1       1.154   9.344  17.894  0.00  0.00    +0.000 A 
BRANCH  16  23
ATOM     22  O   UNL     1      -1.825  10.873  18.823  0.00  0.00    +0.000 OA
ATOM     23  C   UNL     1      -0.620  10.999  18.601  0.00  0.00    +0.000 C 
ATOM     24  N   UNL     1      -0.103  12.120  18.000  0.00  0.00    +0.000 N 
ATOM     25  H   UNL     1       0.784  12.121  17.504  0.00  0.00    +0.000 HD
BRANCH  24  26
ATOM     26  O   UNL     1      -1.046  13.101  17.597  0.00  0.00    +0.000 OA
ATOM     27  H   UNL     1      -1.515  12.640  16.867  0.00  0.00    +0.000 HD
ENDBRANCH  24  26
ENDBRANCH  16  23
ENDBRANCH  15  19
ENDBRANCH   1  15
TORSDOF 4
ENDMDL
MODEL 4
REMARK VINA RESULT:      -8.0      2.183      3.294
REMARK  Name = 
REMARK  4 active torsions:
REMARK  status: ('A' for Active; 'I' for Inactive)
REMARK    1  A    between atoms: C_2  and  C_5
REMARK    2  A    between atoms: N_3  and  O_4
REMARK    3  A    between atoms: C_8  and  C_9
REMARK    4  A    between atoms: C_9  and  N_10
REMARK                            x       y       z     vdW  Elec       q    Type
REMARK                         _______ _______ _______ _____ _____    ______ ____
ROOT
ATOM      1  N   UNL     1       2.873   6.432  17.944  0.00  0.00    +0.000 N 
ATOM      2  C   UNL     1       2.293   5.319  18.459  0.00  0.00    +0.000 A 
ATOM      3  C   UNL     1       2.696   4.259  17.664  0.00  0.00    +0.000 A 
ATOM      4  C   UNL     1       4.002   4.644  17.225  0.00  0.00    +0.000 A 
ATOM      5  C   UNL     1       5.148   3.919  16.850  0.00  0.00    +0.000 A 
ATOM      6  C   UNL     1       6.405   4.522  16.955  0.00  0.00    +0.000 A 
ATOM      7  C   UNL     1       6.523   5.852  17.352  0.00  0.00    +0.000 A 
ATOM      8  C   UNL     1       5.393   6.642  17.604  0.00  0.00    +0.000 A 
ATOM      9  C   UNL     1       4.142   6.006  17.560  0.00  0.00    +0.000 A 
ATOM     10  S   UNL     1       2.294   2.756  18.443  0.00  0.00    +0.000 S 
ATOM     11  O   UNL     1       0.877   2.575  18.203  0.00  0.00    +0.000 OA
ATOM     12  O   UNL     1       3.314   1.789  18.095  0.00  0.00    +0.000 OA
ATOM     13  C   UNL     1       2.585   3.546  20.061  0.00  0.00    +0.000 C 
ATOM     14  C   UNL     1       1.997   4.984  19.892  0.00  0.00    +0.000 C 
ENDROOT
BRANCH   1  15
ATOM     15  C   UNL     1       2.305   7.770  17.775  0.00  0.00    +0.000 C 
BRANCH  15  19
ATOM     16  C   UNL     1       0.545   9.588  21.329  0.00  0.00    +0.000 A 
ATOM     17  C   UNL     1       0.378  10.166  20.067  0.00  0.00    +0.000 A 
ATOM     18  C   UNL     1       0.977   9.589  18.937  0.00  0.00    +0.000 A 
ATOM     19  C   UNL     1       1.742   8.415  19.038  0.00  0.00    +0.000 A 
ATOM     20  C   UNL     1       1.866   7.821  20.308  0.00  0.00    +0.000 A 
ATOM     21  C   UNL     1       1.283   8.406  21.445  0.00  0.00    +0.000 A 
BRANCH  16  23
ATOM     22  O   UNL     1       0.151   9.880  23.655  0.00  0.00    +0.000 OA
ATOM     23  C   UNL     1      -0.116  10.224  22.504  0.00  0.00    +0.000 C 
ATOM     24  N   UNL     1      -1.094  11.149  22.228  0.00  0.00    +0.000 N 
ATOM     25  H   UNL     1      -1.567  11.202  21.330  0.00  0.00    +0.000 HD
BRANCH  24  26
ATOM     26  O   UNL     1      -1.816  11.641  23.347  0.00  0.00    +0.000 OA
ATOM     27  H   UNL     1      -2.746  11.483  23.070  0.00  0.00    +0.000 HD
ENDBRANCH  24  26
ENDBRANCH  16  23
ENDBRANCH  15  19
ENDBRANCH   1  15
TORSDOF 4
ENDMDL
MODEL 5
REMARK VINA RESULT:      -7.9      2.265      2.684
REMARK  Name = 
REMARK  4 active torsions:
REMARK  status: ('A' for Active; 'I' for Inactive)
REMARK    1  A    between atoms: C_2  and  C_5
REMARK    2  A    between atoms: N_3  and  O_4
REMARK    3  A    between atoms: C_8  and  C_9
REMARK    4  A    between atoms: C_9  and  N_10
REMARK                            x       y       z     vdW  Elec       q    Type
REMARK                         _______ _______ _______ _____ _____    ______ ____
ROOT
ATOM      1  N   UNL     1       3.477   5.871  19.018  0.00  0.00    +0.000 N 
ATOM      2  C   UNL     1       4.510   6.046  18.156  0.00  0.00    +0.000 A 
ATOM      3  C   UNL     1       5.115   4.809  18.007  0.00  0.00    +0.000 A 
ATOM      4  C   UNL     1       4.035   3.884  18.164  0.00  0.00    +0.000 A 
ATOM      5  C   UNL     1       3.794   2.589  17.670  0.00  0.00    +0.000 A 
ATOM      6  C   UNL     1       2.478   2.132  17.561  0.00  0.00    +0.000 A 
ATOM      7  C   UNL     1       1.415   2.915  18.007  0.00  0.00    +0.000 A 
ATOM      8  C   UNL     1       1.631   4.154  18.627  0.00  0.00    +0.000 A 
ATOM      9  C   UNL     1       2.951   4.630  18.668  0.00  0.00    +0.000 A 
ATOM     10  S   UNL     1       6.221   4.854  16.664  0.00  0.00    +0.000 S 
ATOM     11  O   UNL     1       7.401   5.525  17.171  0.00  0.00    +0.000 OA
ATOM     12  O   UNL     1       6.223   3.545  16.047  0.00  0.00    +0.000 OA
ATOM     13  C   UNL     1       5.112   6.035  15.824  0.00  0.00    +0.000 C 
ATOM     14  C   UNL     1       4.610   6.967  16.974  0.00  0.00    +0.000 C 
ENDROOT
BRANCH   1  15
ATOM     15  C   UNL     1       3.027   6.744  20.102  0.00  0.00    +0.000 C 
BRANCH  15  19
ATOM     16  C   UNL     1       0.329   9.930  18.834  0.00  0.00    +0.000 A 
ATOM     17  C   UNL     1       1.169   9.290  17.918  0.00  0.00    +0.000 A 
ATOM     18  C   UNL     1       2.055   8.290  18.345  0.00  0.00    +0.000 A 
ATOM     19  C   UNL     1       2.112   7.894  19.691  0.00  0.00    +0.000 A 
ATOM     20  C   UNL     1       1.231   8.517  20.595  0.00  0.00    +0.000 A 
ATOM     21  C   UNL     1       0.355   9.533  20.175  0.00  0.00    +0.000 A 
BRANCH  16  23
ATOM     22  O   UNL     1      -0.858  11.982  19.011  0.00  0.00    +0.000 OA
ATOM     23  C   UNL     1      -0.606  10.980  18.340  0.00  0.00    +0.000 C 
ATOM     24  N   UNL     1      -1.231  10.728  17.144  0.00  0.00    +0.000 N 
ATOM     25  H   UNL     1      -1.312   9.795  16.748  0.00  0.00    +0.000 HD
BRANCH  24  26
ATOM     26  O   UNL     1      -2.226  11.662  16.753  0.00  0.00    +0.000 OA
ATOM     27  H   UNL     1      -3.009  11.081  16.630  0.00  0.00    +0.000 HD
ENDBRANCH  24  26
ENDBRANCH  16  23
ENDBRANCH  15  19
ENDBRANCH   1  15
TORSDOF 4
ENDMDL
MODEL 6
REMARK VINA RESULT:      -7.9      2.914      7.620
REMARK  Name = 
REMARK  4 active torsions:
REMARK  status: ('A' for Active; 'I' for Inactive)
REMARK    1  A    between atoms: C_2  and  C_5
REMARK    2  A    between atoms: N_3  and  O_4
REMARK    3  A    between atoms: C_8  and  C_9
REMARK    4  A    between atoms: C_9  and  N_10
REMARK                            x       y       z     vdW  Elec       q    Type
REMARK                         _______ _______ _______ _____ _____    ______ ____
ROOT
ATOM      1  N   UNL     1       1.246   9.049  18.980  0.00  0.00    +0.000 N 
ATOM      2  C   UNL     1       1.131   8.843  20.316  0.00  0.00    +0.000 A 
ATOM      3  C   UNL     1       0.734  10.049  20.869  0.00  0.00    +0.000 A 
ATOM      4  C   UNL     1      -0.051  10.652  19.837  0.00  0.00    +0.000 A 
ATOM      5  C   UNL     1      -1.123  11.563  19.847  0.00  0.00    +0.000 A 
ATOM      6  C   UNL     1      -2.010  11.589  18.767  0.00  0.00    +0.000 A 
ATOM      7  C   UNL     1      -1.796  10.780  17.654  0.00  0.00    +0.000 A 
ATOM      8  C   UNL     1      -0.664   9.957  17.554  0.00  0.00    +0.000 A 
ATOM      9  C   UNL     1       0.180   9.891  18.674  0.00  0.00    +0.000 A 
ATOM     10  S   UNL     1       0.223   9.799  22.514  0.00  0.00    +0.000 S 
ATOM     11  O   UNL     1       1.450   9.694  23.277  0.00  0.00    +0.000 OA
ATOM     12  O   UNL     1      -0.840  10.741  22.795  0.00  0.00    +0.000 OA
ATOM     13  C   UNL     1      -0.395   8.148  22.044  0.00  0.00    +0.000 C 
ATOM     14  C   UNL     1       0.681   7.610  21.047  0.00  0.00    +0.000 C 
ENDROOT
BRANCH   1  15
ATOM     15  C   UNL     1       2.269   8.553  18.058  0.00  0.00    +0.000 C 
BRANCH  15  19
ATOM     16  C   UNL     1       3.337   4.366  18.661  0.00  0.00    +0.000 A 
ATOM     17  C   UNL     1       4.199   5.393  19.057  0.00  0.00    +0.000 A 
ATOM     18  C   UNL     1       3.858   6.734  18.827  0.00  0.00    +0.000 A 
ATOM     19  C   UNL     1       2.644   7.081  18.213  0.00  0.00    +0.000 A 
ATOM     20  C   UNL     1       1.767   6.039  17.858  0.00  0.00    +0.000 A 
ATOM     21  C   UNL     1       2.113   4.693  18.069  0.00  0.00    +0.000 A 
BRANCH  16  23
ATOM     22  O   UNL     1       2.986   2.015  18.648  0.00  0.00    +0.000 OA
ATOM     23  C   UNL     1       3.730   2.953  18.932  0.00  0.00    +0.000 C 
ATOM     24  N   UNL     1       4.921   2.766  19.589  0.00  0.00    +0.000 N 
ATOM     25  H   UNL     1       5.376   3.497  20.128  0.00  0.00    +0.000 HD
BRANCH  24  26
ATOM     26  O   UNL     1       5.217   1.431  19.970  0.00  0.00    +0.000 OA
ATOM     27  H   UNL     1       4.689   1.336  20.794  0.00  0.00    +0.000 HD
ENDBRANCH  24  26
ENDBRANCH  16  23
ENDBRANCH  15  19
ENDBRANCH   1  15
TORSDOF 4
ENDMDL
MODEL 7
REMARK VINA RESULT:      -7.8      3.687      6.346
REMARK  Name = 
REMARK  4 active torsions:
REMARK  status: ('A' for Active; 'I' for Inactive)
REMARK    1  A    between atoms: C_2  and  C_5
REMARK    2  A    between atoms: N_3  and  O_4
REMARK    3  A    between atoms: C_8  and  C_9
REMARK    4  A    between atoms: C_9  and  N_10
REMARK                            x       y       z     vdW  Elec       q    Type
REMARK                         _______ _______ _______ _____ _____    ______ ____
ROOT
ATOM      1  N   UNL     1       4.985   5.260  17.861  0.00  0.00    +0.000 N 
ATOM      2  C   UNL     1       4.451   4.126  18.382  0.00  0.00    +0.000 A 
ATOM      3  C   UNL     1       3.865   4.482  19.586  0.00  0.00    +0.000 A 
ATOM      4  C   UNL     1       3.438   5.830  19.368  0.00  0.00    +0.000 A 
ATOM      5  C   UNL     1       2.397   6.612  19.901  0.00  0.00    +0.000 A 
ATOM      6  C   UNL     1       1.905   7.692  19.163  0.00  0.00    +0.000 A 
ATOM      7  C   UNL     1       2.488   8.046  17.949  0.00  0.00    +0.000 A 
ATOM      8  C   UNL     1       3.613   7.371  17.453  0.00  0.00    +0.000 A 
ATOM      9  C   UNL     1       4.053   6.247  18.170  0.00  0.00    +0.000 A 
ATOM     10  S   UNL     1       2.858   3.183  20.154  0.00  0.00    +0.000 S 
ATOM     11  O   UNL     1       3.776   2.219  20.727  0.00  0.00    +0.000 OA
ATOM     12  O   UNL     1       1.736   3.766  20.859  0.00  0.00    +0.000 OA
ATOM     13  C   UNL     1       2.468   2.761  18.422  0.00  0.00    +0.000 C 
ATOM     14  C   UNL     1       3.823   2.964  17.669  0.00  0.00    +0.000 C 
ENDROOT
BRANCH   1  15
ATOM     15  C   UNL     1       6.264   5.441  17.172  0.00  0.00    +0.000 C 
BRANCH  15  19
ATOM     16  C   UNL     1       8.556   8.879  18.571  0.00  0.00    +0.000 A 
ATOM     17  C   UNL     1       7.710   8.980  17.463  0.00  0.00    +0.000 A 
ATOM     18  C   UNL     1       7.003   7.859  17.004  0.00  0.00    +0.000 A 
ATOM     19  C   UNL     1       7.113   6.616  17.648  0.00  0.00    +0.000 A 
ATOM     20  C   UNL     1       7.935   6.538  18.788  0.00  0.00    +0.000 A 
ATOM     21  C   UNL     1       8.659   7.655  19.240  0.00  0.00    +0.000 A 
BRANCH  16  23
ATOM     22  O   UNL     1       9.834  10.856  18.241  0.00  0.00    +0.000 OA
ATOM     23  C   UNL     1       9.281  10.096  19.036  0.00  0.00    +0.000 C 
ATOM     24  N   UNL     1       9.369  10.272  20.395  0.00  0.00    +0.000 N 
ATOM     25  H   UNL     1       9.233   9.516  21.061  0.00  0.00    +0.000 HD
BRANCH  24  26
ATOM     26  O   UNL     1      10.182  11.351  20.830  0.00  0.00    +0.000 OA
ATOM     27  H   UNL     1      11.083  10.963  20.763  0.00  0.00    +0.000 HD
ENDBRANCH  24  26
ENDBRANCH  16  23
ENDBRANCH  15  19
ENDBRANCH   1  15
TORSDOF 4
ENDMDL
MODEL 8
REMARK VINA RESULT:      -7.8      1.016      1.150
REMARK  Name = 
REMARK  4 active torsions:
REMARK  status: ('A' for Active; 'I' for Inactive)
REMARK    1  A    between atoms: C_2  and  C_5
REMARK    2  A    between atoms: N_3  and  O_4
REMARK    3  A    between atoms: C_8  and  C_9
REMARK    4  A    between atoms: C_9  and  N_10
REMARK                            x       y       z     vdW  Elec       q    Type
REMARK                         _______ _______ _______ _____ _____    ______ ____
ROOT
ATOM      1  N   UNL     1       2.981   6.490  18.076  0.00  0.00    +0.000 N 
ATOM      2  C   UNL     1       4.299   6.187  18.186  0.00  0.00    +0.000 A 
ATOM      3  C   UNL     1       4.406   5.253  19.203  0.00  0.00    +0.000 A 
ATOM      4  C   UNL     1       3.174   4.529  19.128  0.00  0.00    +0.000 A 
ATOM      5  C   UNL     1       2.805   3.214  19.462  0.00  0.00    +0.000 A 
ATOM      6  C   UNL     1       1.703   2.631  18.831  0.00  0.00    +0.000 A 
ATOM      7  C   UNL     1       0.925   3.365  17.938  0.00  0.00    +0.000 A 
ATOM      8  C   UNL     1       1.186   4.720  17.685  0.00  0.00    +0.000 A 
ATOM      9  C   UNL     1       2.336   5.272  18.273  0.00  0.00    +0.000 A 
ATOM     10  S   UNL     1       5.996   4.546  19.184  0.00  0.00    +0.000 S 
ATOM     11  O   UNL     1       6.853   5.532  19.812  0.00  0.00    +0.000 OA
ATOM     12  O   UNL     1       5.875   3.170  19.616  0.00  0.00    +0.000 OA
ATOM     13  C   UNL     1       6.025   4.721  17.368  0.00  0.00    +0.000 C 
ATOM     14  C   UNL     1       5.342   6.104  17.110  0.00  0.00    +0.000 C 
ENDROOT
BRANCH   1  15
ATOM     15  C   UNL     1       2.353   7.793  17.851  0.00  0.00    +0.000 C 
BRANCH  15  19
ATOM     16  C   UNL     1       0.512   9.695  21.319  0.00  0.00    +0.000 A 
ATOM     17  C   UNL     1       0.429  10.276  20.051  0.00  0.00    +0.000 A 
ATOM     18  C   UNL     1       1.053   9.671  18.950  0.00  0.00    +0.000 A 
ATOM     19  C   UNL     1       1.760   8.465  19.087  0.00  0.00    +0.000 A 
ATOM     20  C   UNL     1       1.801   7.870  20.361  0.00  0.00    +0.000 A 
ATOM     21  C   UNL     1       1.193   8.483  21.470  0.00  0.00    +0.000 A 
BRANCH  16  23
ATOM     22  O   UNL     1       0.008   9.995  23.623  0.00  0.00    +0.000 OA
ATOM     23  C   UNL     1      -0.173  10.363  22.463  0.00  0.00    +0.000 C 
ATOM     24  N   UNL     1      -1.076  11.347  22.143  0.00  0.00    +0.000 N 
ATOM     25  H   UNL     1      -1.494  11.436  21.220  0.00  0.00    +0.000 HD
BRANCH  24  26
ATOM     26  O   UNL     1      -1.829  11.875  23.224  0.00  0.00    +0.000 OA
ATOM     27  H   UNL     1      -1.410  12.756  23.348  0.00  0.00    +0.000 HD
ENDBRANCH  24  26
ENDBRANCH  16  23
ENDBRANCH  15  19
ENDBRANCH   1  15
TORSDOF 4
ENDMDL
MODEL 9
REMARK VINA RESULT:      -7.8      3.258      4.440
REMARK  Name = 
REMARK  4 active torsions:
REMARK  status: ('A' for Active; 'I' for Inactive)
REMARK    1  A    between atoms: C_2  and  C_5
REMARK    2  A    between atoms: N_3  and  O_4
REMARK    3  A    between atoms: C_8  and  C_9
REMARK    4  A    between atoms: C_9  and  N_10
REMARK                            x       y       z     vdW  Elec       q    Type
REMARK                         _______ _______ _______ _____ _____    ______ ____
ROOT
ATOM      1  N   UNL     1       2.736   5.708  19.950  0.00  0.00    +0.000 N 
ATOM      2  C   UNL     1       2.040   4.544  19.892  0.00  0.00    +0.000 A 
ATOM      3  C   UNL     1       2.033   4.153  18.563  0.00  0.00    +0.000 A 
ATOM      4  C   UNL     1       3.277   4.649  18.060  0.00  0.00    +0.000 A 
ATOM      5  C   UNL     1       4.137   4.230  17.028  0.00  0.00    +0.000 A 
ATOM      6  C   UNL     1       5.490   4.574  17.082  0.00  0.00    +0.000 A 
ATOM      7  C   UNL     1       5.975   5.390  18.102  0.00  0.00    +0.000 A 
ATOM      8  C   UNL     1       5.120   5.934  19.071  0.00  0.00    +0.000 A 
ATOM      9  C   UNL     1       3.777   5.525  19.044  0.00  0.00    +0.000 A 
ATOM     10  S   UNL     1       1.475   2.510  18.439  0.00  0.00    +0.000 S 
ATOM     11  O   UNL     1       0.033   2.592  18.565  0.00  0.00    +0.000 OA
ATOM     12  O   UNL     1       2.167   1.890  17.329  0.00  0.00    +0.000 OA
ATOM     13  C   UNL     1       2.250   2.151  20.051  0.00  0.00    +0.000 C 
ATOM     14  C   UNL     1       1.970   3.433  20.900  0.00  0.00    +0.000 C 
ENDROOT
BRANCH   1  15
ATOM     15  C   UNL     1       2.454   6.909  20.737  0.00  0.00    +0.000 C 
BRANCH  15  19
ATOM     16  C   UNL     1       0.216  10.117  18.805  0.00  0.00    +0.000 A 
ATOM     17  C   UNL     1      -0.015   9.782  20.142  0.00  0.00    +0.000 A 
ATOM     18  C   UNL     1       0.688   8.727  20.742  0.00  0.00    +0.000 A 
ATOM     19  C   UNL     1       1.648   7.993  20.026  0.00  0.00    +0.000 A 
ATOM     20  C   UNL     1       1.901   8.368  18.694  0.00  0.00    +0.000 A 
ATOM     21  C   UNL     1       1.185   9.412  18.083  0.00  0.00    +0.000 A 
BRANCH  16  23
ATOM     22  O   UNL     1      -0.480  12.387  18.677  0.00  0.00    +0.000 OA
ATOM     23  C   UNL     1      -0.544  11.251  18.206  0.00  0.00    +0.000 C 
ATOM     24  N   UNL     1      -1.378  10.943  17.159  0.00  0.00    +0.000 N 
ATOM     25  H   UNL     1      -1.709   9.999  16.975  0.00  0.00    +0.000 HD
BRANCH  24  26
ATOM     26  O   UNL     1      -2.204  11.998  16.691  0.00  0.00    +0.000 OA
ATOM     27  H   UNL     1      -3.023  11.516  16.441  0.00  0.00    +0.000 HD
ENDBRANCH  24  26
ENDBRANCH  16  23
ENDBRANCH  15  19
ENDBRANCH   1  15
TORSDOF 4
ENDMDL
