MODEL 1
REMARK VINA RESULT:      -8.2      0.000      0.000
REMARK  Name = 
REMARK  0 active torsions:
REMARK  status: ('A' for Active; 'I' for Inactive)
REMARK                            x       y       z     vdW  Elec       q    Type
REMARK                         _______ _______ _______ _____ _____    ______ ____
ROOT
ATOM      1  O   UNL     1      -1.441  13.795  21.656  0.00  0.00    +0.000 OA
ATOM      2  C   UNL     1      -1.109  12.615  21.751  0.00  0.00    +0.000 C 
ATOM      3  C   UNL     1      -1.701  11.762  22.855  0.00  0.00    +0.000 C 
ATOM      4  C   UNL     1      -0.808  10.577  23.176  0.00  0.00    +0.000 C 
ATOM      5  C   UNL     1      -0.563   9.759  21.914  0.00  0.00    +0.000 C 
ATOM      6  C   UNL     1      -0.014  10.637  20.823  0.00  0.00    +0.000 C 
ATOM      7  C   UNL     1      -0.179  11.975  20.772  0.00  0.00    +0.000 C 
ATOM      8  C   UNL     1       0.739  12.761  19.837  0.00  0.00    +0.000 C 
ATOM      9  C   UNL     1       2.055  13.048  20.620  0.00  0.00    +0.000 C 
ATOM     10  C   UNL     1       1.787  14.361  21.323  0.00  0.00    +0.000 C 
ATOM     11  C   UNL     1       1.110  15.176  20.234  0.00  0.00    +0.000 C 
ATOM     12  C   UNL     1       0.307  14.176  19.386  0.00  0.00    +0.000 C 
ATOM     13  N   UNL     1       1.156  12.003  18.620  0.00  0.00    +0.000 NA
ATOM     14  C   UNL     1       1.233  10.716  18.768  0.00  0.00    +0.000 C 
ATOM     15  N   UNL     1       1.814   9.966  17.789  0.00  0.00    +0.000 N 
ATOM     16  C   UNL     1       2.320   8.728  17.922  0.00  0.00    +0.000 A 
ATOM     17  N   UNL     1       2.069   7.835  18.862  0.00  0.00    +0.000 NA
ATOM     18  C   UNL     1       2.944   6.819  18.582  0.00  0.00    +0.000 A 
ATOM     19  C   UNL     1       3.167   5.601  19.234  0.00  0.00    +0.000 A 
ATOM     20  C   UNL     1       4.156   4.758  18.709  0.00  0.00    +0.000 A 
ATOM     21 BR   UNL     1       4.476   3.090  19.544  0.00  0.00    +0.000 Br
ATOM     22  C   UNL     1       4.908   5.121  17.584  0.00  0.00    +0.000 A 
ATOM     23  C   UNL     1       4.692   6.339  16.924  0.00  0.00    +0.000 A 
ATOM     24  C   UNL     1       3.692   7.140  17.460  0.00  0.00    +0.000 A 
ATOM     25  O   UNL     1       3.279   8.361  17.021  0.00  0.00    +0.000 OA
ATOM     26  N   UNL     1       0.792  10.049  19.878  0.00  0.00    +0.000 N 
ATOM     27  H   UNL     1       2.167  10.528  17.028  0.00  0.00    +0.000 HD
ATOM     28  H   UNL     1       0.883   9.035  19.888  0.00  0.00    +0.000 HD
ENDROOT
TORSDOF 0
ENDMDL
MODEL 2
REMARK VINA RESULT:      -7.5      1.325      1.628
REMARK  Name = 
REMARK  0 active torsions:
REMARK  status: ('A' for Active; 'I' for Inactive)
REMARK                            x       y       z     vdW  Elec       q    Type
REMARK                         _______ _______ _______ _____ _____    ______ ____
ROOT
ATOM      1  O   UNL     1      -0.383  15.580  20.631  0.00  0.00    +0.000 OA
ATOM      2  C   UNL     1      -0.419  14.398  20.967  0.00  0.00    +0.000 C 
ATOM      3  C   UNL     1      -1.336  13.974  22.098  0.00  0.00    +0.000 C 
ATOM      4  C   UNL     1      -0.861  12.681  22.737  0.00  0.00    +0.000 C 
ATOM      5  C   UNL     1      -0.746  11.593  21.677  0.00  0.00    +0.000 C 
ATOM      6  C   UNL     1       0.135  12.054  20.549  0.00  0.00    +0.000 C 
ATOM      7  C   UNL     1       0.372  13.350  20.254  0.00  0.00    +0.000 C 
ATOM      8  C   UNL     1       1.564  13.657  19.348  0.00  0.00    +0.000 C 
ATOM      9  C   UNL     1       2.826  13.731  20.258  0.00  0.00    +0.000 C 
ATOM     10  C   UNL     1       2.887  15.180  20.689  0.00  0.00    +0.000 C 
ATOM     11  C   UNL     1       2.583  15.913  19.392  0.00  0.00    +0.000 C 
ATOM     12  C   UNL     1       1.607  15.017  18.613  0.00  0.00    +0.000 C 
ATOM     13  N   UNL     1       1.855  12.588  18.348  0.00  0.00    +0.000 NA
ATOM     14  C   UNL     1       1.539  11.384  18.715  0.00  0.00    +0.000 C 
ATOM     15  N   UNL     1       1.966  10.326  17.969  0.00  0.00    +0.000 N 
ATOM     16  C   UNL     1       2.074   9.051  18.378  0.00  0.00    +0.000 A 
ATOM     17  N   UNL     1       1.486   8.463  19.405  0.00  0.00    +0.000 NA
ATOM     18  C   UNL     1       2.050   7.215  19.427  0.00  0.00    +0.000 A 
ATOM     19  C   UNL     1       1.846   6.137  20.297  0.00  0.00    +0.000 A 
ATOM     20  C   UNL     1       2.591   4.973  20.069  0.00  0.00    +0.000 A 
ATOM     21 BR   UNL     1       2.331   3.482  21.204  0.00  0.00    +0.000 Br
ATOM     22  C   UNL     1       3.519   4.888  19.022  0.00  0.00    +0.000 A 
ATOM     23  C   UNL     1       3.730   5.962  18.146  0.00  0.00    +0.000 A 
ATOM     24  C   UNL     1       2.962   7.093  18.390  0.00  0.00    +0.000 A 
ATOM     25  O   UNL     1       2.965   8.267  17.700  0.00  0.00    +0.000 OA
ATOM     26  N   UNL     1       0.820  11.096  19.842  0.00  0.00    +0.000 N 
ATOM     27  H   UNL     1       2.538  10.609  17.187  0.00  0.00    +0.000 HD
ATOM     28  H   UNL     1       0.610  10.117  20.033  0.00  0.00    +0.000 HD
ENDROOT
TORSDOF 0
ENDMDL
MODEL 3
REMARK VINA RESULT:      -7.3      1.862      3.487
REMARK  Name = 
REMARK  0 active torsions:
REMARK  status: ('A' for Active; 'I' for Inactive)
REMARK                            x       y       z     vdW  Elec       q    Type
REMARK                         _______ _______ _______ _____ _____    ______ ____
ROOT
ATOM      1  O   UNL     1      -0.576  14.584  20.547  0.00  0.00    +0.000 OA
ATOM      2  C   UNL     1       0.201  13.852  19.938  0.00  0.00    +0.000 C 
ATOM      3  C   UNL     1       1.201  14.464  18.977  0.00  0.00    +0.000 C 
ATOM      4  C   UNL     1       1.656  13.453  17.938  0.00  0.00    +0.000 C 
ATOM      5  C   UNL     1       2.233  12.226  18.631  0.00  0.00    +0.000 C 
ATOM      6  C   UNL     1       1.238  11.663  19.608  0.00  0.00    +0.000 C 
ATOM      7  C   UNL     1       0.233  12.374  20.161  0.00  0.00    +0.000 C 
ATOM      8  C   UNL     1      -0.902  11.592  20.819  0.00  0.00    +0.000 C 
ATOM      9  C   UNL     1      -1.914  11.216  19.695  0.00  0.00    +0.000 C 
ATOM     10  C   UNL     1      -2.865  12.392  19.647  0.00  0.00    +0.000 C 
ATOM     11  C   UNL     1      -3.112  12.666  21.121  0.00  0.00    +0.000 C 
ATOM     12  C   UNL     1      -1.804  12.314  21.848  0.00  0.00    +0.000 C 
ATOM     13  N   UNL     1      -0.474  10.295  21.421  0.00  0.00    +0.000 NA
ATOM     14  C   UNL     1       0.535   9.721  20.840  0.00  0.00    +0.000 C 
ATOM     15  N   UNL     1       0.856   8.439  21.175  0.00  0.00    +0.000 N 
ATOM     16  C   UNL     1       1.581   7.578  20.441  0.00  0.00    +0.000 A 
ATOM     17  N   UNL     1       2.425   7.841  19.460  0.00  0.00    +0.000 NA
ATOM     18  C   UNL     1       2.773   6.602  18.993  0.00  0.00    +0.000 A 
ATOM     19  C   UNL     1       3.625   6.227  17.947  0.00  0.00    +0.000 A 
ATOM     20  C   UNL     1       3.774   4.857  17.695  0.00  0.00    +0.000 A 
ATOM     21 BR   UNL     1       4.934   4.302  16.307  0.00  0.00    +0.000 Br
ATOM     22  C   UNL     1       3.087   3.893  18.445  0.00  0.00    +0.000 A 
ATOM     23  C   UNL     1       2.232   4.259  19.495  0.00  0.00    +0.000 A 
ATOM     24  C   UNL     1       2.122   5.624  19.728  0.00  0.00    +0.000 A 
ATOM     25  O   UNL     1       1.370   6.248  20.675  0.00  0.00    +0.000 OA
ATOM     26  N   UNL     1       1.295  10.315  19.872  0.00  0.00    +0.000 N 
ATOM     27  H   UNL     1       0.220   8.044  21.852  0.00  0.00    +0.000 HD
ATOM     28  H   UNL     1       2.077   9.785  19.491  0.00  0.00    +0.000 HD
ENDROOT
TORSDOF 0
ENDMDL
MODEL 4
REMARK VINA RESULT:      -7.3      3.391      8.527
REMARK  Name = 
REMARK  0 active torsions:
REMARK  status: ('A' for Active; 'I' for Inactive)
REMARK                            x       y       z     vdW  Elec       q    Type
REMARK                         _______ _______ _______ _____ _____    ______ ____
ROOT
ATOM      1  O   UNL     1       5.170   3.264  16.987  0.00  0.00    +0.000 OA
ATOM      2  C   UNL     1       5.347   4.480  16.995  0.00  0.00    +0.000 C 
ATOM      3  C   UNL     1       6.676   5.041  16.529  0.00  0.00    +0.000 C 
ATOM      4  C   UNL     1       6.928   6.420  17.114  0.00  0.00    +0.000 C 
ATOM      5  C   UNL     1       5.777   7.350  16.756  0.00  0.00    +0.000 C 
ATOM      6  C   UNL     1       4.468   6.753  17.192  0.00  0.00    +0.000 C 
ATOM      7  C   UNL     1       4.268   5.433  17.394  0.00  0.00    +0.000 C 
ATOM      8  C   UNL     1       3.028   5.025  18.189  0.00  0.00    +0.000 C 
ATOM      9  C   UNL     1       3.403   5.104  19.699  0.00  0.00    +0.000 C 
ATOM     10  C   UNL     1       3.954   3.730  20.014  0.00  0.00    +0.000 C 
ATOM     11  C   UNL     1       2.965   2.818  19.307  0.00  0.00    +0.000 C 
ATOM     12  C   UNL     1       2.502   3.577  18.054  0.00  0.00    +0.000 C 
ATOM     13  N   UNL     1       1.868   5.949  18.017  0.00  0.00    +0.000 NA
ATOM     14  C   UNL     1       2.176   7.186  17.775  0.00  0.00    +0.000 C 
ATOM     15  N   UNL     1       1.201   8.137  17.824  0.00  0.00    +0.000 N 
ATOM     16  C   UNL     1       1.379   9.459  17.985  0.00  0.00    +0.000 A 
ATOM     17  N   UNL     1       2.471  10.174  17.776  0.00  0.00    +0.000 NA
ATOM     18  C   UNL     1       2.128  11.423  18.219  0.00  0.00    +0.000 A 
ATOM     19  C   UNL     1       2.871  12.608  18.274  0.00  0.00    +0.000 A 
ATOM     20  C   UNL     1       2.241  13.743  18.801  0.00  0.00    +0.000 A 
ATOM     21 BR   UNL     1       3.199  15.373  18.872  0.00  0.00    +0.000 Br
ATOM     22  C   UNL     1       0.922  13.698  19.272  0.00  0.00    +0.000 A 
ATOM     23  C   UNL     1       0.169  12.516  19.221  0.00  0.00    +0.000 A 
ATOM     24  C   UNL     1       0.819  11.416  18.677  0.00  0.00    +0.000 A 
ATOM     25  O   UNL     1       0.327  10.158  18.508  0.00  0.00    +0.000 OA
ATOM     26  N   UNL     1       3.445   7.616  17.501  0.00  0.00    +0.000 N 
ATOM     27  H   UNL     1       0.302   7.759  18.087  0.00  0.00    +0.000 HD
ATOM     28  H   UNL     1       3.578   8.607  17.308  0.00  0.00    +0.000 HD
ENDROOT
TORSDOF 0
ENDMDL
MODEL 5
REMARK VINA RESULT:      -7.2      2.008      3.571
REMARK  Name = 
REMARK  0 active torsions:
REMARK  status: ('A' for Active; 'I' for Inactive)
REMARK                            x       y       z     vdW  Elec       q    Type
REMARK                         _______ _______ _______ _____ _____    ______ ____
ROOT
ATOM      1  O   UNL     1      -0.379  14.210  19.886  0.00  0.00    +0.000 OA
ATOM      2  C   UNL     1       0.525  13.622  19.296  0.00  0.00    +0.000 C 
ATOM      3  C   UNL     1       1.600  14.427  18.593  0.00  0.00    +0.000 C 
ATOM      4  C   UNL     1       2.266  13.616  17.495  0.00  0.00    +0.000 C 
ATOM      5  C   UNL     1       2.829  12.326  18.075  0.00  0.00    +0.000 C 
ATOM      6  C   UNL     1       1.753  11.567  18.801  0.00  0.00    +0.000 C 
ATOM      7  C   UNL     1       0.633  12.132  19.300  0.00  0.00    +0.000 C 
ATOM      8  C   UNL     1      -0.523  11.200  19.662  0.00  0.00    +0.000 C 
ATOM      9  C   UNL     1      -1.340  10.954  18.359  0.00  0.00    +0.000 C 
ATOM     10  C   UNL     1      -2.358  12.073  18.346  0.00  0.00    +0.000 C 
ATOM     11  C   UNL     1      -2.824  12.100  19.792  0.00  0.00    +0.000 C 
ATOM     12  C   UNL     1      -1.607  11.705  20.642  0.00  0.00    +0.000 C 
ATOM     13  N   UNL     1      -0.088   9.847  20.121  0.00  0.00    +0.000 NA
ATOM     14  C   UNL     1       1.030   9.423  19.617  0.00  0.00    +0.000 C 
ATOM     15  N   UNL     1       1.393   8.122  19.801  0.00  0.00    +0.000 N 
ATOM     16  C   UNL     1       2.273   7.425  19.062  0.00  0.00    +0.000 A 
ATOM     17  N   UNL     1       3.223   7.881  18.265  0.00  0.00    +0.000 NA
ATOM     18  C   UNL     1       3.719   6.749  17.676  0.00  0.00    +0.000 A 
ATOM     19  C   UNL     1       4.732   6.586  16.723  0.00  0.00    +0.000 A 
ATOM     20  C   UNL     1       5.012   5.282  16.295  0.00  0.00    +0.000 A 
ATOM     21 BR   UNL     1       6.389   5.011  15.026  0.00  0.00    +0.000 Br
ATOM     22  C   UNL     1       4.301   4.179  16.786  0.00  0.00    +0.000 A 
ATOM     23  C   UNL     1       3.286   4.332  17.741  0.00  0.00    +0.000 A 
ATOM     24  C   UNL     1       3.047   5.636  18.155  0.00  0.00    +0.000 A 
ATOM     25  O   UNL     1       2.128   6.066  19.064  0.00  0.00    +0.000 OA
ATOM     26  N   UNL     1       1.871  10.200  18.868  0.00  0.00    +0.000 N 
ATOM     27  H   UNL     1       0.701   7.594  20.311  0.00  0.00    +0.000 HD
ATOM     28  H   UNL     1       2.734   9.776  18.533  0.00  0.00    +0.000 HD
ENDROOT
TORSDOF 0
ENDMDL
MODEL 6
REMARK VINA RESULT:      -7.1      8.023     10.334
REMARK  Name = 
REMARK  0 active torsions:
REMARK  status: ('A' for Active; 'I' for Inactive)
REMARK                            x       y       z     vdW  Elec       q    Type
REMARK                         _______ _______ _______ _____ _____    ______ ____
ROOT
ATOM      1  O   UNL     1      11.259  13.353  17.523  0.00  0.00    +0.000 OA
ATOM      2  C   UNL     1      10.606  12.653  18.294  0.00  0.00    +0.000 C 
ATOM      3  C   UNL     1      10.423  11.180  17.986  0.00  0.00    +0.000 C 
ATOM      4  C   UNL     1       9.189  10.622  18.674  0.00  0.00    +0.000 C 
ATOM      5  C   UNL     1       9.279  10.868  20.174  0.00  0.00    +0.000 C 
ATOM      6  C   UNL     1       9.500  12.330  20.450  0.00  0.00    +0.000 C 
ATOM      7  C   UNL     1      10.034  13.196  19.563  0.00  0.00    +0.000 C 
ATOM      8  C   UNL     1       9.845  14.688  19.837  0.00  0.00    +0.000 C 
ATOM      9  C   UNL     1       8.458  15.090  19.254  0.00  0.00    +0.000 C 
ATOM     10  C   UNL     1       8.758  15.477  17.822  0.00  0.00    +0.000 C 
ATOM     11  C   UNL     1      10.023  16.305  17.972  0.00  0.00    +0.000 C 
ATOM     12  C   UNL     1      10.797  15.696  19.152  0.00  0.00    +0.000 C 
ATOM     13  N   UNL     1       9.783  15.033  21.288  0.00  0.00    +0.000 NA
ATOM     14  C   UNL     1       9.301  14.107  22.058  0.00  0.00    +0.000 C 
ATOM     15  N   UNL     1       9.000  14.407  23.354  0.00  0.00    +0.000 N 
ATOM     16  C   UNL     1       8.166  13.729  24.160  0.00  0.00    +0.000 A 
ATOM     17  N   UNL     1       7.744  12.482  24.045  0.00  0.00    +0.000 NA
ATOM     18  C   UNL     1       6.824  12.360  25.052  0.00  0.00    +0.000 A 
ATOM     19  C   UNL     1       6.023  11.276  25.430  0.00  0.00    +0.000 A 
ATOM     20  C   UNL     1       5.154  11.461  26.513  0.00  0.00    +0.000 A 
ATOM     21 BR   UNL     1       4.069  10.016  27.075  0.00  0.00    +0.000 Br
ATOM     22  C   UNL     1       5.072  12.686  27.188  0.00  0.00    +0.000 A 
ATOM     23  C   UNL     1       5.871  13.777  26.818  0.00  0.00    +0.000 A 
ATOM     24  C   UNL     1       6.733  13.553  25.752  0.00  0.00    +0.000 A 
ATOM     25  O   UNL     1       7.610  14.431  25.193  0.00  0.00    +0.000 OA
ATOM     26  N   UNL     1       9.035  12.832  21.642  0.00  0.00    +0.000 N 
ATOM     27  H   UNL     1       9.166  15.378  23.576  0.00  0.00    +0.000 HD
ATOM     28  H   UNL     1       8.673  12.174  22.331  0.00  0.00    +0.000 HD
ENDROOT
TORSDOF 0
ENDMDL
MODEL 7
REMARK VINA RESULT:      -7.0      1.648      2.317
REMARK  Name = 
REMARK  0 active torsions:
REMARK  status: ('A' for Active; 'I' for Inactive)
REMARK                            x       y       z     vdW  Elec       q    Type
REMARK                         _______ _______ _______ _____ _____    ______ ____
ROOT
ATOM      1  O   UNL     1      -1.494  16.433  21.461  0.00  0.00    +0.000 OA
ATOM      2  C   UNL     1      -1.352  15.240  21.720  0.00  0.00    +0.000 C 
ATOM      3  C   UNL     1      -2.025  14.661  22.949  0.00  0.00    +0.000 C 
ATOM      4  C   UNL     1      -1.320  13.401  23.420  0.00  0.00    +0.000 C 
ATOM      5  C   UNL     1      -1.266  12.385  22.287  0.00  0.00    +0.000 C 
ATOM      6  C   UNL     1      -0.631  12.997  21.069  0.00  0.00    +0.000 C 
ATOM      7  C   UNL     1      -0.581  14.324  20.826  0.00  0.00    +0.000 C 
ATOM      8  C   UNL     1       0.410  14.808  19.768  0.00  0.00    +0.000 C 
ATOM      9  C   UNL     1       1.788  14.980  20.474  0.00  0.00    +0.000 C 
ATOM     10  C   UNL     1       1.766  16.405  20.983  0.00  0.00    +0.000 C 
ATOM     11  C   UNL     1       1.181  17.159  19.800  0.00  0.00    +0.000 C 
ATOM     12  C   UNL     1       0.191  16.197  19.125  0.00  0.00    +0.000 C 
ATOM     13  N   UNL     1       0.645  13.828  18.667  0.00  0.00    +0.000 NA
ATOM     14  C   UNL     1       0.520  12.579  18.999  0.00  0.00    +0.000 C 
ATOM     15  N   UNL     1       0.929  11.614  18.128  0.00  0.00    +0.000 N 
ATOM     16  C   UNL     1       1.234  10.340  18.431  0.00  0.00    +0.000 A 
ATOM     17  N   UNL     1       0.885   9.642  19.496  0.00  0.00    +0.000 NA
ATOM     18  C   UNL     1       1.572   8.466  19.349  0.00  0.00    +0.000 A 
ATOM     19  C   UNL     1       1.624   7.332  20.167  0.00  0.00    +0.000 A 
ATOM     20  C   UNL     1       2.441   6.272  19.750  0.00  0.00    +0.000 A 
ATOM     21 BR   UNL     1       2.524   4.708  20.813  0.00  0.00    +0.000 Br
ATOM     22  C   UNL     1       3.191   6.343  18.570  0.00  0.00    +0.000 A 
ATOM     23  C   UNL     1       3.145   7.475  17.743  0.00  0.00    +0.000 A 
ATOM     24  C   UNL     1       2.312   8.498  18.177  0.00  0.00    +0.000 A 
ATOM     25  O   UNL     1       2.081   9.696  17.573  0.00  0.00    +0.000 OA
ATOM     26  N   UNL     1       0.027  12.158  20.203  0.00  0.00    +0.000 N 
ATOM     27  H   UNL     1       1.335  11.996  17.287  0.00  0.00    +0.000 HD
ATOM     28  H   UNL     1      -0.046  11.154  20.359  0.00  0.00    +0.000 HD
ENDROOT
TORSDOF 0
ENDMDL
MODEL 8
REMARK VINA RESULT:      -7.0      5.044      6.463
REMARK  Name = 
REMARK  0 active torsions:
REMARK  status: ('A' for Active; 'I' for Inactive)
REMARK                            x       y       z     vdW  Elec       q    Type
REMARK                         _______ _______ _______ _____ _____    ______ ____
ROOT
ATOM      1  O   UNL     1      -1.289  12.889  18.908  0.00  0.00    +0.000 OA
ATOM      2  C   UNL     1      -0.177  12.410  18.693  0.00  0.00    +0.000 C 
ATOM      3  C   UNL     1      -0.051  10.930  18.392  0.00  0.00    +0.000 C 
ATOM      4  C   UNL     1       1.344  10.420  18.710  0.00  0.00    +0.000 C 
ATOM      5  C   UNL     1       2.378  11.232  17.942  0.00  0.00    +0.000 C 
ATOM      6  C   UNL     1       2.205  12.699  18.227  0.00  0.00    +0.000 C 
ATOM      7  C   UNL     1       1.055  13.256  18.660  0.00  0.00    +0.000 C 
ATOM      8  C   UNL     1       1.136  14.658  19.262  0.00  0.00    +0.000 C 
ATOM      9  C   UNL     1       1.511  14.493  20.765  0.00  0.00    +0.000 C 
ATOM     10  C   UNL     1       0.177  14.361  21.466  0.00  0.00    +0.000 C 
ATOM     11  C   UNL     1      -0.650  15.439  20.787  0.00  0.00    +0.000 C 
ATOM     12  C   UNL     1      -0.152  15.512  19.335  0.00  0.00    +0.000 C 
ATOM     13  N   UNL     1       2.213  15.507  18.673  0.00  0.00    +0.000 NA
ATOM     14  C   UNL     1       3.253  14.863  18.240  0.00  0.00    +0.000 C 
ATOM     15  N   UNL     1       4.372  15.560  17.893  0.00  0.00    +0.000 N 
ATOM     16  C   UNL     1       5.622  15.074  17.802  0.00  0.00    +0.000 A 
ATOM     17  N   UNL     1       6.008  13.819  17.667  0.00  0.00    +0.000 NA
ATOM     18  C   UNL     1       7.373  13.890  17.760  0.00  0.00    +0.000 A 
ATOM     19  C   UNL     1       8.345  12.884  17.708  0.00  0.00    +0.000 A 
ATOM     20  C   UNL     1       9.684  13.272  17.848  0.00  0.00    +0.000 A 
ATOM     21 BR   UNL     1      11.035  11.950  17.760  0.00  0.00    +0.000 Br
ATOM     22  C   UNL     1      10.044  14.612  18.047  0.00  0.00    +0.000 A 
ATOM     23  C   UNL     1       9.077  15.626  18.099  0.00  0.00    +0.000 A 
ATOM     24  C   UNL     1       7.762  15.208  17.940  0.00  0.00    +0.000 A 
ATOM     25  O   UNL     1       6.638  15.976  17.948  0.00  0.00    +0.000 OA
ATOM     26  N   UNL     1       3.317  13.501  18.138  0.00  0.00    +0.000 N 
ATOM     27  H   UNL     1       4.274  16.553  18.047  0.00  0.00    +0.000 HD
ATOM     28  H   UNL     1       4.175  13.093  17.770  0.00  0.00    +0.000 HD
ENDROOT
TORSDOF 0
ENDMDL
MODEL 9
REMARK VINA RESULT:      -7.0      1.484      1.852
REMARK  Name = 
REMARK  0 active torsions:
REMARK  status: ('A' for Active; 'I' for Inactive)
REMARK                            x       y       z     vdW  Elec       q    Type
REMARK                         _______ _______ _______ _____ _____    ______ ____
ROOT
ATOM      1  O   UNL     1      -0.505  14.804  19.219  0.00  0.00    +0.000 OA
ATOM      2  C   UNL     1      -0.610  13.651  19.631  0.00  0.00    +0.000 C 
ATOM      3  C   UNL     1      -1.791  13.278  20.505  0.00  0.00    +0.000 C 
ATOM      4  C   UNL     1      -1.484  12.057  21.354  0.00  0.00    +0.000 C 
ATOM      5  C   UNL     1      -1.069  10.897  20.458  0.00  0.00    +0.000 C 
ATOM      6  C   UNL     1       0.077  11.306  19.574  0.00  0.00    +0.000 C 
ATOM      7  C   UNL     1       0.363  12.583  19.246  0.00  0.00    +0.000 C 
ATOM      8  C   UNL     1       1.749  12.868  18.670  0.00  0.00    +0.000 C 
ATOM      9  C   UNL     1       2.717  13.060  19.876  0.00  0.00    +0.000 C 
ATOM     10  C   UNL     1       2.634  14.538  20.184  0.00  0.00    +0.000 C 
ATOM     11  C   UNL     1       2.679  15.158  18.797  0.00  0.00    +0.000 C 
ATOM     12  C   UNL     1       1.967  14.168  17.862  0.00  0.00    +0.000 C 
ATOM     13  N   UNL     1       2.318  11.738  17.878  0.00  0.00    +0.000 NA
ATOM     14  C   UNL     1       1.936  10.554  18.246  0.00  0.00    +0.000 C 
ATOM     15  N   UNL     1       2.567   9.460  17.733  0.00  0.00    +0.000 N 
ATOM     16  C   UNL     1       2.583   8.224  18.261  0.00  0.00    +0.000 A 
ATOM     17  N   UNL     1       1.750   7.694  19.138  0.00  0.00    +0.000 NA
ATOM     18  C   UNL     1       2.307   6.474  19.415  0.00  0.00    +0.000 A 
ATOM     19  C   UNL     1       1.894   5.458  20.285  0.00  0.00    +0.000 A 
ATOM     20  C   UNL     1       2.694   4.310  20.363  0.00  0.00    +0.000 A 
ATOM     21 BR   UNL     1       2.162   2.900  21.508  0.00  0.00    +0.000 Br
ATOM     22  C   UNL     1       3.871   4.183  19.615  0.00  0.00    +0.000 A 
ATOM     23  C   UNL     1       4.293   5.194  18.740  0.00  0.00    +0.000 A 
ATOM     24  C   UNL     1       3.468   6.310  18.674  0.00  0.00    +0.000 A 
ATOM     25  O   UNL     1       3.637   7.427  17.915  0.00  0.00    +0.000 OA
ATOM     26  N   UNL     1       0.944  10.324  19.159  0.00  0.00    +0.000 N 
ATOM     27  H   UNL     1       3.324   9.704  17.112  0.00  0.00    +0.000 HD
ATOM     28  H   UNL     1       0.708   9.355  19.367  0.00  0.00    +0.000 HD
ENDROOT
TORSDOF 0
ENDMDL
