MODEL 1
REMARK VINA RESULT:      -7.5      0.000      0.000
REMARK  Name = 
REMARK  7 active torsions:
REMARK  status: ('A' for Active; 'I' for Inactive)
REMARK    1  A    between atoms: C_1  and  C_2
REMARK    2  A    between atoms: C_2  and  N_3
REMARK    3  A    between atoms: C_4  and  S_5
REMARK    4  A    between atoms: S_5  and  C_6
REMARK    5  A    between atoms: C_6  and  C_7
REMARK    6  A    between atoms: C_7  and  C_9
REMARK    7  A    between atoms: C_17  and  C_18
REMARK                            x       y       z     vdW  Elec       q    Type
REMARK                         _______ _______ _______ _____ _____    ______ ____
ROOT
ATOM      1  N   UNL     1       0.987   9.958  19.887  0.00  0.00    +0.000 N 
ATOM      2  C   UNL     1       1.515   8.732  19.575  0.00  0.00    +0.000 A 
ATOM      3  N   UNL     1       1.770   8.105  20.713  0.00  0.00    +0.000 NA
ATOM      4  N   UNL     1       1.375   8.863  21.759  0.00  0.00    +0.000 NA
ATOM      5  C   UNL     1       0.800   9.939  21.257  0.00  0.00    +0.000 A 
ENDROOT
BRANCH   5   6
ATOM      6  C   UNL     1       0.021  10.846  22.038  0.00  0.00    +0.000 A 
ATOM      7  C   UNL     1      -1.091  10.538  22.822  0.00  0.00    +0.000 A 
ATOM      8  C   UNL     1      -1.768  11.761  23.037  0.00  0.00    +0.000 A 
ATOM      9  C   UNL     1      -3.002  12.149  23.552  0.00  0.00    +0.000 A 
ATOM     10  C   UNL     1      -3.540  13.303  22.990  0.00  0.00    +0.000 A 
ATOM     11 BR   UNL     1      -5.279  13.181  22.213  0.00  0.00    +0.000 Br
ATOM     12  C   UNL     1      -2.703  14.314  22.529  0.00  0.00    +0.000 A 
ATOM     13  C   UNL     1      -1.326  14.092  22.429  0.00  0.00    +0.000 A 
ATOM     14  C   UNL     1      -0.958  12.753  22.506  0.00  0.00    +0.000 A 
ATOM     15  O   UNL     1       0.182  12.209  22.020  0.00  0.00    +0.000 OA
ENDBRANCH   5   6
BRANCH   1  17
ATOM     16  C   UNL     1      -0.877  10.816  18.496  0.00  0.00    +0.000 C 
ATOM     17  C   UNL     1       0.556  10.989  18.973  0.00  0.00    +0.000 C 
ENDBRANCH   1  17
BRANCH   2  18
ATOM     18  S   UNL     1       1.765   8.093  18.003  0.00  0.00    +0.000 S 
BRANCH  18  19
ATOM     19  C   UNL     1       3.420   7.342  18.203  0.00  0.00    +0.000 C 
BRANCH  19  20
ATOM     20  C   UNL     1       3.413   5.847  17.882  0.00  0.00    +0.000 C 
ATOM     21  O   UNL     1       4.077   5.347  16.973  0.00  0.00    +0.000 OA
BRANCH  20  22
ATOM     22  C   UNL     1       2.533   4.934  18.658  0.00  0.00    +0.000 A 
ATOM     23  C   UNL     1       1.741   4.027  17.943  0.00  0.00    +0.000 A 
ATOM     24  C   UNL     1       0.929   3.139  18.612  0.00  0.00    +0.000 A 
ATOM     25  C   UNL     1       0.873   3.132  20.001  0.00  0.00    +0.000 A 
ATOM     26  C   UNL     1       1.688   4.013  20.723  0.00  0.00    +0.000 A 
ATOM     27  C   UNL     1       2.505   4.929  20.055  0.00  0.00    +0.000 A 
ENDBRANCH  20  22
ENDBRANCH  19  20
ENDBRANCH  18  19
ENDBRANCH   2  18
TORSDOF 6
ENDMDL
MODEL 2
REMARK VINA RESULT:      -7.4      3.945      5.838
REMARK  Name = 
REMARK  7 active torsions:
REMARK  status: ('A' for Active; 'I' for Inactive)
REMARK    1  A    between atoms: C_1  and  C_2
REMARK    2  A    between atoms: C_2  and  N_3
REMARK    3  A    between atoms: C_4  and  S_5
REMARK    4  A    between atoms: S_5  and  C_6
REMARK    5  A    between atoms: C_6  and  C_7
REMARK    6  A    between atoms: C_7  and  C_9
REMARK    7  A    between atoms: C_17  and  C_18
REMARK                            x       y       z     vdW  Elec       q    Type
REMARK                         _______ _______ _______ _____ _____    ______ ____
ROOT
ATOM      1  N   UNL     1       2.914   6.148  18.402  0.00  0.00    +0.000 N 
ATOM      2  C   UNL     1       4.193   5.835  18.018  0.00  0.00    +0.000 A 
ATOM      3  N   UNL     1       4.714   6.912  17.450  0.00  0.00    +0.000 NA
ATOM      4  N   UNL     1       3.834   7.935  17.500  0.00  0.00    +0.000 NA
ATOM      5  C   UNL     1       2.785   7.506  18.174  0.00  0.00    +0.000 A 
ENDROOT
BRANCH   5   6
ATOM      6  C   UNL     1       1.763   8.374  18.667  0.00  0.00    +0.000 A 
ATOM      7  C   UNL     1       0.953   9.227  17.917  0.00  0.00    +0.000 A 
ATOM      8  C   UNL     1       0.428  10.170  18.831  0.00  0.00    +0.000 A 
ATOM      9  C   UNL     1      -0.275  11.369  18.745  0.00  0.00    +0.000 A 
ATOM     10  C   UNL     1      -0.014  12.280  19.764  0.00  0.00    +0.000 A 
ATOM     11 BR   UNL     1       0.596  14.018  19.265  0.00  0.00    +0.000 Br
ATOM     12  C   UNL     1       0.310  11.829  21.040  0.00  0.00    +0.000 A 
ATOM     13  C   UNL     1       0.588  10.476  21.256  0.00  0.00    +0.000 A 
ATOM     14  C   UNL     1       0.822   9.751  20.092  0.00  0.00    +0.000 A 
ATOM     15  O   UNL     1       1.519   8.594  19.999  0.00  0.00    +0.000 OA
ENDBRANCH   5   6
BRANCH   1  17
ATOM     16  C   UNL     1       2.150   5.216  20.569  0.00  0.00    +0.000 C 
ATOM     17  C   UNL     1       1.959   5.290  19.063  0.00  0.00    +0.000 C 
ENDBRANCH   1  17
BRANCH   2  18
ATOM     18  S   UNL     1       4.999   4.340  18.260  0.00  0.00    +0.000 S 
BRANCH  18  19
ATOM     19  C   UNL     1       5.270   3.819  16.529  0.00  0.00    +0.000 C 
BRANCH  19  20
ATOM     20  C   UNL     1       6.563   4.396  15.953  0.00  0.00    +0.000 C 
ATOM     21  O   UNL     1       7.441   4.914  16.645  0.00  0.00    +0.000 OA
BRANCH  20  22
ATOM     22  C   UNL     1       6.778   4.390  14.482  0.00  0.00    +0.000 A 
ATOM     23  C   UNL     1       6.005   3.512  13.712  0.00  0.00    +0.000 A 
ATOM     24  C   UNL     1       6.142   3.486  12.342  0.00  0.00    +0.000 A 
ATOM     25  C   UNL     1       7.052   4.318  11.702  0.00  0.00    +0.000 A 
ATOM     26  C   UNL     1       7.805   5.223  12.462  0.00  0.00    +0.000 A 
ATOM     27  C   UNL     1       7.685   5.249  13.855  0.00  0.00    +0.000 A 
ENDBRANCH  20  22
ENDBRANCH  19  20
ENDBRANCH  18  19
ENDBRANCH   2  18
TORSDOF 6
ENDMDL
MODEL 3
REMARK VINA RESULT:      -7.4      3.883      5.788
REMARK  Name = 
REMARK  7 active torsions:
REMARK  status: ('A' for Active; 'I' for Inactive)
REMARK    1  A    between atoms: C_1  and  C_2
REMARK    2  A    between atoms: C_2  and  N_3
REMARK    3  A    between atoms: C_4  and  S_5
REMARK    4  A    between atoms: S_5  and  C_6
REMARK    5  A    between atoms: C_6  and  C_7
REMARK    6  A    between atoms: C_7  and  C_9
REMARK    7  A    between atoms: C_17  and  C_18
REMARK                            x       y       z     vdW  Elec       q    Type
REMARK                         _______ _______ _______ _____ _____    ______ ____
ROOT
ATOM      1  N   UNL     1       3.058   6.317  18.699  0.00  0.00    +0.000 N 
ATOM      2  C   UNL     1       4.282   6.036  18.150  0.00  0.00    +0.000 A 
ATOM      3  N   UNL     1       4.572   7.012  17.302  0.00  0.00    +0.000 NA
ATOM      4  N   UNL     1       3.599   7.948  17.321  0.00  0.00    +0.000 NA
ATOM      5  C   UNL     1       2.734   7.583  18.248  0.00  0.00    +0.000 A 
ENDROOT
BRANCH   5   6
ATOM      6  C   UNL     1       1.714   8.448  18.749  0.00  0.00    +0.000 A 
ATOM      7  C   UNL     1       0.926   9.333  18.012  0.00  0.00    +0.000 A 
ATOM      8  C   UNL     1       0.396  10.254  18.946  0.00  0.00    +0.000 A 
ATOM      9  C   UNL     1      -0.291  11.463  18.884  0.00  0.00    +0.000 A 
ATOM     10  C   UNL     1      -0.038  12.340  19.934  0.00  0.00    +0.000 A 
ATOM     11 BR   UNL     1       0.600  14.085  19.497  0.00  0.00    +0.000 Br
ATOM     12  C   UNL     1       0.261  11.849  21.201  0.00  0.00    +0.000 A 
ATOM     13  C   UNL     1       0.520  10.486  21.381  0.00  0.00    +0.000 A 
ATOM     14  C   UNL     1       0.765   9.793  20.200  0.00  0.00    +0.000 A 
ATOM     15  O   UNL     1       1.450   8.632  20.083  0.00  0.00    +0.000 OA
ENDBRANCH   5   6
BRANCH   1  17
ATOM     16  C   UNL     1       1.580   4.363  19.077  0.00  0.00    +0.000 C 
ATOM     17  C   UNL     1       2.332   5.540  19.676  0.00  0.00    +0.000 C 
ENDBRANCH   1  17
BRANCH   2  18
ATOM     18  S   UNL     1       5.287   4.695  18.515  0.00  0.00    +0.000 S 
BRANCH  18  19
ATOM     19  C   UNL     1       5.489   3.962  16.853  0.00  0.00    +0.000 C 
BRANCH  19  20
ATOM     20  C   UNL     1       6.658   4.585  16.090  0.00  0.00    +0.000 C 
ATOM     21  O   UNL     1       7.552   5.235  16.635  0.00  0.00    +0.000 OA
BRANCH  20  22
ATOM     22  C   UNL     1       6.720   4.459  14.610  0.00  0.00    +0.000 A 
ATOM     23  C   UNL     1       7.670   5.228  13.927  0.00  0.00    +0.000 A 
ATOM     24  C   UNL     1       7.790   5.128  12.560  0.00  0.00    +0.000 A 
ATOM     25  C   UNL     1       6.968   4.275  11.833  0.00  0.00    +0.000 A 
ATOM     26  C   UNL     1       6.039   3.476  12.513  0.00  0.00    +0.000 A 
ATOM     27  C   UNL     1       5.898   3.579  13.900  0.00  0.00    +0.000 A 
ENDBRANCH  20  22
ENDBRANCH  19  20
ENDBRANCH  18  19
ENDBRANCH   2  18
TORSDOF 6
ENDMDL
MODEL 4
REMARK VINA RESULT:      -7.2      1.022      1.284
REMARK  Name = 
REMARK  7 active torsions:
REMARK  status: ('A' for Active; 'I' for Inactive)
REMARK    1  A    between atoms: C_1  and  C_2
REMARK    2  A    between atoms: C_2  and  N_3
REMARK    3  A    between atoms: C_4  and  S_5
REMARK    4  A    between atoms: S_5  and  C_6
REMARK    5  A    between atoms: C_6  and  C_7
REMARK    6  A    between atoms: C_7  and  C_9
REMARK    7  A    between atoms: C_17  and  C_18
REMARK                            x       y       z     vdW  Elec       q    Type
REMARK                         _______ _______ _______ _____ _____    ______ ____
ROOT
ATOM      1  N   UNL     1       1.167   9.619  19.757  0.00  0.00    +0.000 N 
ATOM      2  C   UNL     1       1.626   8.369  19.430  0.00  0.00    +0.000 A 
ATOM      3  N   UNL     1       1.823   7.708  20.561  0.00  0.00    +0.000 NA
ATOM      4  N   UNL     1       1.457   8.471  21.614  0.00  0.00    +0.000 NA
ATOM      5  C   UNL     1       0.955   9.587  21.123  0.00  0.00    +0.000 A 
ENDROOT
BRANCH   5   6
ATOM      6  C   UNL     1       0.217  10.525  21.909  0.00  0.00    +0.000 A 
ATOM      7  C   UNL     1      -0.889  10.259  22.714  0.00  0.00    +0.000 A 
ATOM      8  C   UNL     1      -1.525  11.505  22.929  0.00  0.00    +0.000 A 
ATOM      9  C   UNL     1      -2.737  11.935  23.461  0.00  0.00    +0.000 A 
ATOM     10  C   UNL     1      -3.249  13.099  22.897  0.00  0.00    +0.000 A 
ATOM     11 BR   UNL     1      -5.005  13.024  22.152  0.00  0.00    +0.000 Br
ATOM     12  C   UNL     1      -2.389  14.080  22.412  0.00  0.00    +0.000 A 
ATOM     13  C   UNL     1      -1.022  13.815  22.290  0.00  0.00    +0.000 A 
ATOM     14  C   UNL     1      -0.694  12.466  22.375  0.00  0.00    +0.000 A 
ATOM     15  O   UNL     1       0.420  11.882  21.874  0.00  0.00    +0.000 OA
ENDBRANCH   5   6
BRANCH   1  17
ATOM     16  C   UNL     1      -0.637  10.647  18.402  0.00  0.00    +0.000 C 
ATOM     17  C   UNL     1       0.813  10.690  18.855  0.00  0.00    +0.000 C 
ENDBRANCH   1  17
BRANCH   2  18
ATOM     18  S   UNL     1       1.865   7.745  17.851  0.00  0.00    +0.000 S 
BRANCH  18  19
ATOM     19  C   UNL     1       2.886   6.274  18.220  0.00  0.00    +0.000 C 
BRANCH  19  20
ATOM     20  C   UNL     1       2.056   4.991  18.237  0.00  0.00    +0.000 C 
ATOM     21  O   UNL     1       1.271   4.680  17.341  0.00  0.00    +0.000 OA
BRANCH  20  22
ATOM     22  C   UNL     1       2.144   4.075  19.405  0.00  0.00    +0.000 A 
ATOM     23  C   UNL     1       3.365   3.431  19.641  0.00  0.00    +0.000 A 
ATOM     24  C   UNL     1       3.510   2.596  20.725  0.00  0.00    +0.000 A 
ATOM     25  C   UNL     1       2.452   2.369  21.597  0.00  0.00    +0.000 A 
ATOM     26  C   UNL     1       1.238   3.037  21.388  0.00  0.00    +0.000 A 
ATOM     27  C   UNL     1       1.074   3.877  20.282  0.00  0.00    +0.000 A 
ENDBRANCH  20  22
ENDBRANCH  19  20
ENDBRANCH  18  19
ENDBRANCH   2  18
TORSDOF 6
ENDMDL
MODEL 5
REMARK VINA RESULT:      -7.2      4.168      8.732
REMARK  Name = 
REMARK  7 active torsions:
REMARK  status: ('A' for Active; 'I' for Inactive)
REMARK    1  A    between atoms: C_1  and  C_2
REMARK    2  A    between atoms: C_2  and  N_3
REMARK    3  A    between atoms: C_4  and  S_5
REMARK    4  A    between atoms: S_5  and  C_6
REMARK    5  A    between atoms: C_6  and  C_7
REMARK    6  A    between atoms: C_7  and  C_9
REMARK    7  A    between atoms: C_17  and  C_18
REMARK                            x       y       z     vdW  Elec       q    Type
REMARK                         _______ _______ _______ _____ _____    ______ ____
ROOT
ATOM      1  N   UNL     1       1.088   9.044  19.751  0.00  0.00    +0.000 N 
ATOM      2  C   UNL     1       0.819   9.920  18.731  0.00  0.00    +0.000 A 
ATOM      3  N   UNL     1       1.643   9.637  17.734  0.00  0.00    +0.000 NA
ATOM      4  N   UNL     1       2.406   8.569  18.052  0.00  0.00    +0.000 NA
ATOM      5  C   UNL     1       1.994   8.140  19.229  0.00  0.00    +0.000 A 
ENDROOT
BRANCH   5   6
ATOM      6  C   UNL     1       2.372   6.876  19.777  0.00  0.00    +0.000 A 
ATOM      7  C   UNL     1       3.563   6.186  19.554  0.00  0.00    +0.000 A 
ATOM      8  C   UNL     1       3.313   4.844  19.926  0.00  0.00    +0.000 A 
ATOM      9  C   UNL     1       3.972   3.625  19.791  0.00  0.00    +0.000 A 
ATOM     10  C   UNL     1       3.141   2.515  19.675  0.00  0.00    +0.000 A 
ATOM     11 BR   UNL     1       3.355   1.406  18.136  0.00  0.00    +0.000 Br
ATOM     12  C   UNL     1       1.904   2.496  20.310  0.00  0.00    +0.000 A 
ATOM     13  C   UNL     1       1.394   3.664  20.887  0.00  0.00    +0.000 A 
ATOM     14  C   UNL     1       2.047   4.826  20.489  0.00  0.00    +0.000 A 
ATOM     15  O   UNL     1       1.533   6.078  20.515  0.00  0.00    +0.000 OA
ENDBRANCH   5   6
BRANCH   1  17
ATOM     16  C   UNL     1       1.372   9.266  22.204  0.00  0.00    +0.000 C 
ATOM     17  C   UNL     1       0.441   8.969  21.040  0.00  0.00    +0.000 C 
ENDBRANCH   1  17
BRANCH   2  18
ATOM     18  S   UNL     1      -0.390  11.137  18.717  0.00  0.00    +0.000 S 
BRANCH  18  19
ATOM     19  C   UNL     1      -1.845  10.160  18.194  0.00  0.00    +0.000 C 
BRANCH  19  20
ATOM     20  C   UNL     1      -2.753  10.946  17.249  0.00  0.00    +0.000 C 
ATOM     21  O   UNL     1      -2.514  11.096  16.050  0.00  0.00    +0.000 OA
BRANCH  20  22
ATOM     22  C   UNL     1      -3.967  11.615  17.785  0.00  0.00    +0.000 A 
ATOM     23  C   UNL     1      -5.044  11.815  16.912  0.00  0.00    +0.000 A 
ATOM     24  C   UNL     1      -6.203  12.403  17.364  0.00  0.00    +0.000 A 
ATOM     25  C   UNL     1      -6.324  12.817  18.685  0.00  0.00    +0.000 A 
ATOM     26  C   UNL     1      -5.265  12.589  19.573  0.00  0.00    +0.000 A 
ATOM     27  C   UNL     1      -4.077  12.006  19.123  0.00  0.00    +0.000 A 
ENDBRANCH  20  22
ENDBRANCH  19  20
ENDBRANCH  18  19
ENDBRANCH   2  18
TORSDOF 6
ENDMDL
MODEL 6
REMARK VINA RESULT:      -7.1      6.092     10.210
REMARK  Name = 
REMARK  7 active torsions:
REMARK  status: ('A' for Active; 'I' for Inactive)
REMARK    1  A    between atoms: C_1  and  C_2
REMARK    2  A    between atoms: C_2  and  N_3
REMARK    3  A    between atoms: C_4  and  S_5
REMARK    4  A    between atoms: S_5  and  C_6
REMARK    5  A    between atoms: C_6  and  C_7
REMARK    6  A    between atoms: C_7  and  C_9
REMARK    7  A    between atoms: C_17  and  C_18
REMARK                            x       y       z     vdW  Elec       q    Type
REMARK                         _______ _______ _______ _____ _____    ______ ____
ROOT
ATOM      1  N   UNL     1       4.525   3.027  18.409  0.00  0.00    +0.000 N 
ATOM      2  C   UNL     1       4.500   3.286  19.755  0.00  0.00    +0.000 A 
ATOM      3  N   UNL     1       5.375   4.251  19.992  0.00  0.00    +0.000 NA
ATOM      4  N   UNL     1       5.934   4.666  18.834  0.00  0.00    +0.000 NA
ATOM      5  C   UNL     1       5.339   4.001  17.863  0.00  0.00    +0.000 A 
ENDROOT
BRANCH   5   6
ATOM      6  C   UNL     1       5.465   4.353  16.484  0.00  0.00    +0.000 A 
ATOM      7  C   UNL     1       4.632   3.958  15.437  0.00  0.00    +0.000 A 
ATOM      8  C   UNL     1       5.371   4.170  14.249  0.00  0.00    +0.000 A 
ATOM      9  C   UNL     1       5.230   3.833  12.906  0.00  0.00    +0.000 A 
ATOM     10  C   UNL     1       6.424   3.634  12.220  0.00  0.00    +0.000 A 
ATOM     11 BR   UNL     1       6.677   1.954  11.351  0.00  0.00    +0.000 Br
ATOM     12  C   UNL     1       7.564   4.349  12.575  0.00  0.00    +0.000 A 
ATOM     13  C   UNL     1       7.578   5.106  13.750  0.00  0.00    +0.000 A 
ATOM     14  C   UNL     1       6.538   4.816  14.626  0.00  0.00    +0.000 A 
ATOM     15  O   UNL     1       6.532   5.040  15.961  0.00  0.00    +0.000 OA
ENDBRANCH   5   6
BRANCH   1  17
ATOM     16  C   UNL     1       2.267   2.416  17.588  0.00  0.00    +0.000 C 
ATOM     17  C   UNL     1       3.740   2.055  17.685  0.00  0.00    +0.000 C 
ENDBRANCH   1  17
BRANCH   2  18
ATOM     18  S   UNL     1       3.492   2.539  20.925  0.00  0.00    +0.000 S 
BRANCH  18  19
ATOM     19  C   UNL     1       2.586   3.991  21.566  0.00  0.00    +0.000 C 
BRANCH  19  20
ATOM     20  C   UNL     1       1.588   4.540  20.547  0.00  0.00    +0.000 C 
ATOM     21  O   UNL     1       0.599   3.914  20.164  0.00  0.00    +0.000 OA
BRANCH  20  22
ATOM     22  C   UNL     1       1.823   5.874  19.935  0.00  0.00    +0.000 A 
ATOM     23  C   UNL     1       2.308   5.914  18.622  0.00  0.00    +0.000 A 
ATOM     24  C   UNL     1       2.516   7.122  17.996  0.00  0.00    +0.000 A 
ATOM     25  C   UNL     1       2.259   8.319  18.654  0.00  0.00    +0.000 A 
ATOM     26  C   UNL     1       1.741   8.287  19.955  0.00  0.00    +0.000 A 
ATOM     27  C   UNL     1       1.539   7.066  20.606  0.00  0.00    +0.000 A 
ENDBRANCH  20  22
ENDBRANCH  19  20
ENDBRANCH  18  19
ENDBRANCH   2  18
TORSDOF 6
ENDMDL
MODEL 7
REMARK VINA RESULT:      -7.1      3.429      5.206
REMARK  Name = 
REMARK  7 active torsions:
REMARK  status: ('A' for Active; 'I' for Inactive)
REMARK    1  A    between atoms: C_1  and  C_2
REMARK    2  A    between atoms: C_2  and  N_3
REMARK    3  A    between atoms: C_4  and  S_5
REMARK    4  A    between atoms: S_5  and  C_6
REMARK    5  A    between atoms: C_6  and  C_7
REMARK    6  A    between atoms: C_7  and  C_9
REMARK    7  A    between atoms: C_17  and  C_18
REMARK                            x       y       z     vdW  Elec       q    Type
REMARK                         _______ _______ _______ _____ _____    ______ ____
ROOT
ATOM      1  N   UNL     1       2.840   6.586  19.160  0.00  0.00    +0.000 N 
ATOM      2  C   UNL     1       4.017   6.187  18.582  0.00  0.00    +0.000 A 
ATOM      3  N   UNL     1       4.230   6.967  17.533  0.00  0.00    +0.000 NA
ATOM      4  N   UNL     1       3.255   7.896  17.439  0.00  0.00    +0.000 NA
ATOM      5  C   UNL     1       2.472   7.737  18.488  0.00  0.00    +0.000 A 
ENDROOT
BRANCH   5   6
ATOM      6  C   UNL     1       1.490   8.696  18.884  0.00  0.00    +0.000 A 
ATOM      7  C   UNL     1       0.739   9.523  18.049  0.00  0.00    +0.000 A 
ATOM      8  C   UNL     1       0.250  10.566  18.869  0.00  0.00    +0.000 A 
ATOM      9  C   UNL     1      -0.385  11.788  18.668  0.00  0.00    +0.000 A 
ATOM     10  C   UNL     1      -0.093  12.768  19.612  0.00  0.00    +0.000 A 
ATOM     11 BR   UNL     1       0.617  14.423  18.981  0.00  0.00    +0.000 Br
ATOM     12  C   UNL     1       0.186  12.411  20.927  0.00  0.00    +0.000 A 
ATOM     13  C   UNL     1       0.387  11.069  21.262  0.00  0.00    +0.000 A 
ATOM     14  C   UNL     1       0.600  10.236  20.169  0.00  0.00    +0.000 A 
ATOM     15  O   UNL     1       1.236   9.041  20.188  0.00  0.00    +0.000 OA
ENDBRANCH   5   6
BRANCH   1  17
ATOM     16  C   UNL     1       1.573   4.668  20.090  0.00  0.00    +0.000 C 
ATOM     17  C   UNL     1       2.202   6.030  20.331  0.00  0.00    +0.000 C 
ENDBRANCH   1  17
BRANCH   2  18
ATOM     18  S   UNL     1       5.057   4.938  19.130  0.00  0.00    +0.000 S 
BRANCH  18  19
ATOM     19  C   UNL     1       6.681   5.604  18.618  0.00  0.00    +0.000 C 
BRANCH  19  20
ATOM     20  C   UNL     1       7.388   4.686  17.621  0.00  0.00    +0.000 C 
ATOM     21  O   UNL     1       8.445   4.103  17.869  0.00  0.00    +0.000 OA
BRANCH  20  22
ATOM     22  C   UNL     1       6.821   4.507  16.258  0.00  0.00    +0.000 A 
ATOM     23  C   UNL     1       7.533   5.044  15.178  0.00  0.00    +0.000 A 
ATOM     24  C   UNL     1       7.068   4.883  13.893  0.00  0.00    +0.000 A 
ATOM     25  C   UNL     1       5.886   4.195  13.644  0.00  0.00    +0.000 A 
ATOM     26  C   UNL     1       5.187   3.625  14.715  0.00  0.00    +0.000 A 
ATOM     27  C   UNL     1       5.641   3.795  16.027  0.00  0.00    +0.000 A 
ENDBRANCH  20  22
ENDBRANCH  19  20
ENDBRANCH  18  19
ENDBRANCH   2  18
TORSDOF 6
ENDMDL
MODEL 8
REMARK VINA RESULT:      -7.1      3.203      4.472
REMARK  Name = 
REMARK  7 active torsions:
REMARK  status: ('A' for Active; 'I' for Inactive)
REMARK    1  A    between atoms: C_1  and  C_2
REMARK    2  A    between atoms: C_2  and  N_3
REMARK    3  A    between atoms: C_4  and  S_5
REMARK    4  A    between atoms: S_5  and  C_6
REMARK    5  A    between atoms: C_6  and  C_7
REMARK    6  A    between atoms: C_7  and  C_9
REMARK    7  A    between atoms: C_17  and  C_18
REMARK                            x       y       z     vdW  Elec       q    Type
REMARK                         _______ _______ _______ _____ _____    ______ ____
ROOT
ATOM      1  N   UNL     1       1.413   8.856  19.837  0.00  0.00    +0.000 N 
ATOM      2  C   UNL     1       2.044   7.936  19.040  0.00  0.00    +0.000 A 
ATOM      3  N   UNL     1       2.090   8.436  17.814  0.00  0.00    +0.000 NA
ATOM      4  N   UNL     1       1.555   9.676  17.798  0.00  0.00    +0.000 NA
ATOM      5  C   UNL     1       1.245   9.976  19.044  0.00  0.00    +0.000 A 
ENDROOT
BRANCH   5   6
ATOM      6  C   UNL     1       0.906  11.297  19.469  0.00  0.00    +0.000 A 
ATOM      7  C   UNL     1       0.161  12.241  18.763  0.00  0.00    +0.000 A 
ATOM      8  C   UNL     1       0.453  13.491  19.356  0.00  0.00    +0.000 A 
ATOM      9  C   UNL     1       0.215  14.828  19.050  0.00  0.00    +0.000 A 
ATOM     10  C   UNL     1       1.194  15.717  19.485  0.00  0.00    +0.000 A 
ATOM     11 BR   UNL     1       2.021  16.834  18.176  0.00  0.00    +0.000 Br
ATOM     12  C   UNL     1       1.911  15.454  20.647  0.00  0.00    +0.000 A 
ATOM     13  C   UNL     1       1.809  14.205  21.267  0.00  0.00    +0.000 A 
ATOM     14  C   UNL     1       1.230  13.222  20.472  0.00  0.00    +0.000 A 
ATOM     15  O   UNL     1       1.394  11.885  20.610  0.00  0.00    +0.000 OA
ENDBRANCH   5   6
BRANCH   1  17
ATOM     16  C   UNL     1      -0.342   8.572  21.566  0.00  0.00    +0.000 C 
ATOM     17  C   UNL     1       1.134   8.751  21.250  0.00  0.00    +0.000 C 
ENDBRANCH   1  17
BRANCH   2  18
ATOM     18  S   UNL     1       2.700   6.430  19.533  0.00  0.00    +0.000 S 
BRANCH  18  19
ATOM     19  C   UNL     1       2.806   5.566  17.925  0.00  0.00    +0.000 C 
BRANCH  19  20
ATOM     20  C   UNL     1       4.105   4.773  17.786  0.00  0.00    +0.000 C 
ATOM     21  O   UNL     1       4.138   3.563  17.559  0.00  0.00    +0.000 OA
BRANCH  20  22
ATOM     22  C   UNL     1       5.409   5.460  17.979  0.00  0.00    +0.000 A 
ATOM     23  C   UNL     1       5.714   6.534  17.134  0.00  0.00    +0.000 A 
ATOM     24  C   UNL     1       6.895   7.224  17.288  0.00  0.00    +0.000 A 
ATOM     25  C   UNL     1       7.807   6.864  18.273  0.00  0.00    +0.000 A 
ATOM     26  C   UNL     1       7.494   5.814  19.145  0.00  0.00    +0.000 A 
ATOM     27  C   UNL     1       6.304   5.096  18.989  0.00  0.00    +0.000 A 
ENDBRANCH  20  22
ENDBRANCH  19  20
ENDBRANCH  18  19
ENDBRANCH   2  18
TORSDOF 6
ENDMDL
MODEL 9
REMARK VINA RESULT:      -7.0      4.313      8.615
REMARK  Name = 
REMARK  7 active torsions:
REMARK  status: ('A' for Active; 'I' for Inactive)
REMARK    1  A    between atoms: C_1  and  C_2
REMARK    2  A    between atoms: C_2  and  N_3
REMARK    3  A    between atoms: C_4  and  S_5
REMARK    4  A    between atoms: S_5  and  C_6
REMARK    5  A    between atoms: C_6  and  C_7
REMARK    6  A    between atoms: C_7  and  C_9
REMARK    7  A    between atoms: C_17  and  C_18
REMARK                            x       y       z     vdW  Elec       q    Type
REMARK                         _______ _______ _______ _____ _____    ______ ____
ROOT
ATOM      1  N   UNL     1       0.741   9.439  19.916  0.00  0.00    +0.000 N 
ATOM      2  C   UNL     1      -0.002  10.155  19.012  0.00  0.00    +0.000 A 
ATOM      3  N   UNL     1       0.378   9.782  17.800  0.00  0.00    +0.000 NA
ATOM      4  N   UNL     1       1.308   8.806  17.884  0.00  0.00    +0.000 NA
ATOM      5  C   UNL     1       1.449   8.521  19.164  0.00  0.00    +0.000 A 
ENDROOT
BRANCH   5   6
ATOM      6  C   UNL     1       2.141   7.363  19.635  0.00  0.00    +0.000 A 
ATOM      7  C   UNL     1       3.292   6.794  19.092  0.00  0.00    +0.000 A 
ATOM      8  C   UNL     1       3.349   5.473  19.594  0.00  0.00    +0.000 A 
ATOM      9  C   UNL     1       4.096   4.328  19.329  0.00  0.00    +0.000 A 
ATOM     10  C   UNL     1       3.427   3.126  19.535  0.00  0.00    +0.000 A 
ATOM     11 BR   UNL     1       3.317   1.910  18.067  0.00  0.00    +0.000 Br
ATOM     12  C   UNL     1       2.451   3.027  20.522  0.00  0.00    +0.000 A 
ATOM     13  C   UNL     1       1.985   4.178  21.164  0.00  0.00    +0.000 A 
ATOM     14  C   UNL     1       2.324   5.364  20.522  0.00  0.00    +0.000 A 
ATOM     15  O   UNL     1       1.678   6.548  20.638  0.00  0.00    +0.000 OA
ENDBRANCH   5   6
BRANCH   1  17
ATOM     16  C   UNL     1      -0.434   8.657  21.955  0.00  0.00    +0.000 C 
ATOM     17  C   UNL     1       0.676   9.506  21.357  0.00  0.00    +0.000 C 
ENDBRANCH   1  17
BRANCH   2  18
ATOM     18  S   UNL     1      -1.232  11.295  19.370  0.00  0.00    +0.000 S 
BRANCH  18  19
ATOM     19  C   UNL     1      -1.952  11.547  17.709  0.00  0.00    +0.000 C 
BRANCH  19  20
ATOM     20  C   UNL     1      -3.129  10.607  17.445  0.00  0.00    +0.000 C 
ATOM     21  O   UNL     1      -2.999   9.475  16.978  0.00  0.00    +0.000 OA
BRANCH  20  22
ATOM     22  C   UNL     1      -4.515  11.075  17.710  0.00  0.00    +0.000 A 
ATOM     23  C   UNL     1      -5.016  12.116  16.919  0.00  0.00    +0.000 A 
ATOM     24  C   UNL     1      -6.303  12.568  17.103  0.00  0.00    +0.000 A 
ATOM     25  C   UNL     1      -7.122  12.010  18.077  0.00  0.00    +0.000 A 
ATOM     26  C   UNL     1      -6.640  10.946  18.849  0.00  0.00    +0.000 A 
ATOM     27  C   UNL     1      -5.329  10.487  18.682  0.00  0.00    +0.000 A 
ENDBRANCH  20  22
ENDBRANCH  19  20
ENDBRANCH  18  19
ENDBRANCH   2  18
TORSDOF 6
ENDMDL
