MODEL 1
REMARK VINA RESULT:      -8.0      0.000      0.000
REMARK  Name = 
REMARK  9 active torsions:
REMARK  status: ('A' for Active; 'I' for Inactive)
REMARK    1  A    between atoms: C_1  and  C_2
REMARK    2  A    between atoms: C_2  and  C_3
REMARK    3  A    between atoms: C_2  and  C_4
REMARK    4  A    between atoms: C_4  and  N_5
REMARK    5  A    between atoms: C_10  and  N_11
REMARK    6  A    between atoms: N_11  and  C_12
REMARK    7  A    between atoms: C_12  and  C_13
REMARK    8  A    between atoms: C_13  and  N_14
REMARK    9  A    between atoms: N_14  and  C_15
REMARK                            x       y       z     vdW  Elec       q    Type
REMARK                         _______ _______ _______ _____ _____    ______ ____
ROOT
ATOM      1  N   UNL     1       3.203   5.322  20.379  0.00  0.00    +0.000 NA
ATOM      2  H   UNL     1       3.927   6.010  20.172  0.00  0.00    +0.000 HD
ENDROOT
BRANCH   1   3
ATOM      3  C   UNL     1       1.975   5.712  19.678  0.00  0.00    +0.000 C 
ATOM      4  C   UNL     1       2.132   5.899  18.142  0.00  0.00    +0.000 C 
ATOM      5  C   UNL     1       3.025   7.105  17.788  0.00  0.00    +0.000 C 
ATOM      6  C   UNL     1       2.461   8.436  18.321  0.00  0.00    +0.000 C 
ATOM      7  C   UNL     1       1.759   8.271  19.628  0.00  0.00    +0.000 A 
ATOM      8  C   UNL     1       1.549   7.041  20.223  0.00  0.00    +0.000 A 
ATOM      9  N   UNL     1       0.848   7.239  21.381  0.00  0.00    +0.000 N 
ATOM     10  C   UNL     1       0.535   8.578  21.514  0.00  0.00    +0.000 A 
ATOM     11  C   UNL     1      -0.217   9.240  22.496  0.00  0.00    +0.000 A 
ATOM     12  C   UNL     1      -0.387  10.622  22.361  0.00  0.00    +0.000 A 
ATOM     13  C   UNL     1       0.181  11.310  21.291  0.00  0.00    +0.000 A 
ATOM     14 BR   UNL     1      -0.076  13.179  21.138  0.00  0.00    +0.000 Br
ATOM     15  C   UNL     1       0.932  10.642  20.320  0.00  0.00    +0.000 A 
ATOM     16  C   UNL     1       1.110   9.249  20.431  0.00  0.00    +0.000 A 
ATOM     17  H   UNL     1       0.573   6.512  22.027  0.00  0.00    +0.000 HD
ENDBRANCH   1   3
BRANCH   1  18
ATOM     18  C   UNL     1       3.679   3.978  20.027  0.00  0.00    +0.000 C 
BRANCH  18  19
ATOM     19  C   UNL     1       5.124   4.008  19.490  0.00  0.00    +0.000 C 
BRANCH  19  20
ATOM     20  N   UNL     1       5.177   3.547  18.105  0.00  0.00    +0.000 N 
ATOM     21  H   UNL     1       5.365   2.559  17.954  0.00  0.00    +0.000 HD
BRANCH  20  27
ATOM     22  N   UNL     1       6.411   4.152  13.625  0.00  0.00    +0.000 N 
ATOM     23  C   UNL     1       6.474   4.523  14.957  0.00  0.00    +0.000 A 
ATOM     24  N   UNL     1       7.258   5.580  15.208  0.00  0.00    +0.000 NA
ATOM     25  C   UNL     1       7.359   5.966  16.486  0.00  0.00    +0.000 A 
ATOM     26  C   UNL     1       6.697   5.346  17.515  0.00  0.00    +0.000 A 
ATOM     27  C   UNL     1       5.922   4.261  17.176  0.00  0.00    +0.000 A 
ATOM     28  N   UNL     1       5.800   3.850  15.903  0.00  0.00    +0.000 NA
ATOM     29  H   UNL     1       6.715   4.960  13.094  0.00  0.00    +0.000 HD
BRANCH  22  30
ATOM     30  C   UNL     1       5.178   3.524  13.189  0.00  0.00    +0.000 C 
BRANCH  30  32
ATOM     31  C   UNL     1       5.920   1.808  11.465  0.00  0.00    +0.000 C 
ATOM     32  C   UNL     1       5.273   3.178  11.690  0.00  0.00    +0.000 C 
ATOM     33  C   UNL     1       3.885   3.203  11.047  0.00  0.00    +0.000 C 
ENDBRANCH  30  32
ENDBRANCH  22  30
ENDBRANCH  20  27
ENDBRANCH  19  20
ENDBRANCH  18  19
ENDBRANCH   1  18
TORSDOF 7
ENDMDL
MODEL 2
REMARK VINA RESULT:      -8.0      3.176      5.672
REMARK  Name = 
REMARK  9 active torsions:
REMARK  status: ('A' for Active; 'I' for Inactive)
REMARK    1  A    between atoms: C_1  and  C_2
REMARK    2  A    between atoms: C_2  and  C_3
REMARK    3  A    between atoms: C_2  and  C_4
REMARK    4  A    between atoms: C_4  and  N_5
REMARK    5  A    between atoms: C_10  and  N_11
REMARK    6  A    between atoms: N_11  and  C_12
REMARK    7  A    between atoms: C_12  and  C_13
REMARK    8  A    between atoms: C_13  and  N_14
REMARK    9  A    between atoms: N_14  and  C_15
REMARK                            x       y       z     vdW  Elec       q    Type
REMARK                         _______ _______ _______ _____ _____    ______ ____
ROOT
ATOM      1  N   UNL     1       1.003   8.985  20.017  0.00  0.00    +0.000 NA
ATOM      2  H   UNL     1       0.928   9.025  21.033  0.00  0.00    +0.000 HD
ENDROOT
BRANCH   1   3
ATOM      3  C   UNL     1       0.949  10.353  19.492  0.00  0.00    +0.000 C 
ATOM      4  C   UNL     1       1.099  11.470  20.564  0.00  0.00    +0.000 C 
ATOM      5  C   UNL     1      -0.102  11.518  21.530  0.00  0.00    +0.000 C 
ATOM      6  C   UNL     1      -1.433  11.801  20.806  0.00  0.00    +0.000 C 
ATOM      7  C   UNL     1      -1.479  11.189  19.445  0.00  0.00    +0.000 A 
ATOM      8  C   UNL     1      -0.400  10.544  18.870  0.00  0.00    +0.000 A 
ATOM      9  N   UNL     1      -0.762  10.140  17.614  0.00  0.00    +0.000 N 
ATOM     10  C   UNL     1      -2.043  10.576  17.334  0.00  0.00    +0.000 A 
ATOM     11  C   UNL     1      -2.805  10.458  16.163  0.00  0.00    +0.000 A 
ATOM     12  C   UNL     1      -4.085  11.022  16.161  0.00  0.00    +0.000 A 
ATOM     13  C   UNL     1      -4.579  11.671  17.290  0.00  0.00    +0.000 A 
ATOM     14 BR   UNL     1      -6.313  12.430  17.249  0.00  0.00    +0.000 Br
ATOM     15  C   UNL     1      -3.814  11.781  18.454  0.00  0.00    +0.000 A 
ATOM     16  C   UNL     1      -2.519  11.227  18.476  0.00  0.00    +0.000 A 
ATOM     17  H   UNL     1      -0.172   9.626  16.974  0.00  0.00    +0.000 HD
ENDBRANCH   1   3
BRANCH   1  18
ATOM     18  C   UNL     1       2.219   8.256  19.636  0.00  0.00    +0.000 C 
BRANCH  18  19
ATOM     19  C   UNL     1       1.911   6.793  19.258  0.00  0.00    +0.000 C 
BRANCH  19  20
ATOM     20  N   UNL     1       2.239   5.889  20.357  0.00  0.00    +0.000 N 
ATOM     21  H   UNL     1       2.539   6.314  21.231  0.00  0.00    +0.000 HD
BRANCH  20  27
ATOM     22  N   UNL     1       6.283   4.267  18.632  0.00  0.00    +0.000 N 
ATOM     23  C   UNL     1       5.075   4.063  19.275  0.00  0.00    +0.000 A 
ATOM     24  N   UNL     1       4.836   2.793  19.629  0.00  0.00    +0.000 NA
ATOM     25  C   UNL     1       3.672   2.546  20.243  0.00  0.00    +0.000 A 
ATOM     26  C   UNL     1       2.749   3.521  20.527  0.00  0.00    +0.000 A 
ATOM     27  C   UNL     1       3.064   4.796  20.120  0.00  0.00    +0.000 A 
ATOM     28  N   UNL     1       4.223   5.076  19.503  0.00  0.00    +0.000 NA
ATOM     29  H   UNL     1       6.862   3.467  18.860  0.00  0.00    +0.000 HD
BRANCH  22  30
ATOM     30  C   UNL     1       6.894   5.572  18.808  0.00  0.00    +0.000 C 
BRANCH  30  32
ATOM     31  C   UNL     1       5.917   6.237  16.557  0.00  0.00    +0.000 C 
ATOM     32  C   UNL     1       7.174   6.205  17.431  0.00  0.00    +0.000 C 
ATOM     33  C   UNL     1       7.720   7.624  17.597  0.00  0.00    +0.000 C 
ENDBRANCH  30  32
ENDBRANCH  22  30
ENDBRANCH  20  27
ENDBRANCH  19  20
ENDBRANCH  18  19
ENDBRANCH   1  18
TORSDOF 7
ENDMDL
MODEL 3
REMARK VINA RESULT:      -8.0      3.232      4.395
REMARK  Name = 
REMARK  9 active torsions:
REMARK  status: ('A' for Active; 'I' for Inactive)
REMARK    1  A    between atoms: C_1  and  C_2
REMARK    2  A    between atoms: C_2  and  C_3
REMARK    3  A    between atoms: C_2  and  C_4
REMARK    4  A    between atoms: C_4  and  N_5
REMARK    5  A    between atoms: C_10  and  N_11
REMARK    6  A    between atoms: N_11  and  C_12
REMARK    7  A    between atoms: C_12  and  C_13
REMARK    8  A    between atoms: C_13  and  N_14
REMARK    9  A    between atoms: N_14  and  C_15
REMARK                            x       y       z     vdW  Elec       q    Type
REMARK                         _______ _______ _______ _____ _____    ______ ____
ROOT
ATOM      1  N   UNL     1       1.359   8.853  19.415  0.00  0.00    +0.000 NA
ATOM      2  H   UNL     1       1.750   8.811  20.356  0.00  0.00    +0.000 HD
ENDROOT
BRANCH   1   3
ATOM      3  C   UNL     1       1.199  10.261  19.039  0.00  0.00    +0.000 C 
ATOM      4  C   UNL     1       1.372  11.273  20.208  0.00  0.00    +0.000 C 
ATOM      5  C   UNL     1       0.243  11.156  21.253  0.00  0.00    +0.000 C 
ATOM      6  C   UNL     1      -1.149  11.433  20.654  0.00  0.00    +0.000 C 
ATOM      7  C   UNL     1      -1.264  10.959  19.243  0.00  0.00    +0.000 A 
ATOM      8  C   UNL     1      -0.200  10.436  18.533  0.00  0.00    +0.000 A 
ATOM      9  N   UNL     1      -0.632  10.140  17.269  0.00  0.00    +0.000 N 
ATOM     10  C   UNL     1      -1.950  10.529  17.123  0.00  0.00    +0.000 A 
ATOM     11  C   UNL     1      -2.789  10.484  16.000  0.00  0.00    +0.000 A 
ATOM     12  C   UNL     1      -4.092  10.973  16.144  0.00  0.00    +0.000 A 
ATOM     13  C   UNL     1      -4.534  11.477  17.365  0.00  0.00    +0.000 A 
ATOM     14 BR   UNL     1      -6.302  12.136  17.520  0.00  0.00    +0.000 Br
ATOM     15  C   UNL     1      -3.692  11.513  18.479  0.00  0.00    +0.000 A 
ATOM     16  C   UNL     1      -2.373  11.034  18.356  0.00  0.00    +0.000 A 
ATOM     17  H   UNL     1      -0.065   9.727  16.541  0.00  0.00    +0.000 HD
ENDBRANCH   1   3
BRANCH   1  18
ATOM     18  C   UNL     1       2.205   8.089  18.489  0.00  0.00    +0.000 C 
BRANCH  18  19
ATOM     19  C   UNL     1       2.530   6.687  19.041  0.00  0.00    +0.000 C 
BRANCH  19  20
ATOM     20  N   UNL     1       2.882   5.768  17.961  0.00  0.00    +0.000 N 
ATOM     21  H   UNL     1       2.281   4.959  17.829  0.00  0.00    +0.000 HD
BRANCH  20  27
ATOM     22  N   UNL     1       6.191   3.869  15.239  0.00  0.00    +0.000 N 
ATOM     23  C   UNL     1       5.785   4.421  16.442  0.00  0.00    +0.000 A 
ATOM     24  N   UNL     1       6.744   4.501  17.374  0.00  0.00    +0.000 NA
ATOM     25  C   UNL     1       6.392   5.017  18.559  0.00  0.00    +0.000 A 
ATOM     26  C   UNL     1       5.126   5.466  18.839  0.00  0.00    +0.000 A 
ATOM     27  C   UNL     1       4.197   5.338  17.833  0.00  0.00    +0.000 A 
ATOM     28  N   UNL     1       4.519   4.825  16.634  0.00  0.00    +0.000 NA
ATOM     29  H   UNL     1       7.201   3.947  15.222  0.00  0.00    +0.000 HD
BRANCH  22  30
ATOM     30  C   UNL     1       5.493   4.326  14.052  0.00  0.00    +0.000 C 
BRANCH  30  32
ATOM     31  C   UNL     1       4.773   3.303  11.838  0.00  0.00    +0.000 C 
ATOM     32  C   UNL     1       5.920   3.477  12.839  0.00  0.00    +0.000 C 
ATOM     33  C   UNL     1       7.121   4.114  12.138  0.00  0.00    +0.000 C 
ENDBRANCH  30  32
ENDBRANCH  22  30
ENDBRANCH  20  27
ENDBRANCH  19  20
ENDBRANCH  18  19
ENDBRANCH   1  18
TORSDOF 7
ENDMDL
MODEL 4
REMARK VINA RESULT:      -7.9      3.437      5.838
REMARK  Name = 
REMARK  9 active torsions:
REMARK  status: ('A' for Active; 'I' for Inactive)
REMARK    1  A    between atoms: C_1  and  C_2
REMARK    2  A    between atoms: C_2  and  C_3
REMARK    3  A    between atoms: C_2  and  C_4
REMARK    4  A    between atoms: C_4  and  N_5
REMARK    5  A    between atoms: C_10  and  N_11
REMARK    6  A    between atoms: N_11  and  C_12
REMARK    7  A    between atoms: C_12  and  C_13
REMARK    8  A    between atoms: C_13  and  N_14
REMARK    9  A    between atoms: N_14  and  C_15
REMARK                            x       y       z     vdW  Elec       q    Type
REMARK                         _______ _______ _______ _____ _____    ______ ____
ROOT
ATOM      1  N   UNL     1       0.948   8.936  19.883  0.00  0.00    +0.000 NA
ATOM      2  H   UNL     1       0.840   9.011  20.894  0.00  0.00    +0.000 HD
ENDROOT
BRANCH   1   3
ATOM      3  C   UNL     1       0.914  10.284  19.308  0.00  0.00    +0.000 C 
ATOM      4  C   UNL     1       1.126  11.435  20.333  0.00  0.00    +0.000 C 
ATOM      5  C   UNL     1      -0.043  11.551  21.332  0.00  0.00    +0.000 C 
ATOM      6  C   UNL     1      -1.388  11.843  20.639  0.00  0.00    +0.000 C 
ATOM      7  C   UNL     1      -1.492  11.184  19.304  0.00  0.00    +0.000 A 
ATOM      8  C   UNL     1      -0.449  10.489  18.721  0.00  0.00    +0.000 A 
ATOM      9  N   UNL     1      -0.861  10.049  17.492  0.00  0.00    +0.000 N 
ATOM     10  C   UNL     1      -2.138  10.510  17.235  0.00  0.00    +0.000 A 
ATOM     11  C   UNL     1      -2.938  10.369  16.093  0.00  0.00    +0.000 A 
ATOM     12  C   UNL     1      -4.203  10.967  16.109  0.00  0.00    +0.000 A 
ATOM     13  C   UNL     1      -4.645  11.670  17.228  0.00  0.00    +0.000 A 
ATOM     14 BR   UNL     1      -6.359  12.473  17.210  0.00  0.00    +0.000 Br
ATOM     15  C   UNL     1      -3.841  11.802  18.363  0.00  0.00    +0.000 A 
ATOM     16  C   UNL     1      -2.561  11.214  18.366  0.00  0.00    +0.000 A 
ATOM     17  H   UNL     1      -0.304   9.497  16.855  0.00  0.00    +0.000 HD
ENDBRANCH   1   3
BRANCH   1  18
ATOM     18  C   UNL     1       2.176   8.194  19.568  0.00  0.00    +0.000 C 
BRANCH  18  19
ATOM     19  C   UNL     1       2.291   7.899  18.059  0.00  0.00    +0.000 C 
BRANCH  19  20
ATOM     20  N   UNL     1       3.662   7.549  17.698  0.00  0.00    +0.000 N 
ATOM     21  H   UNL     1       4.123   8.138  17.008  0.00  0.00    +0.000 HD
BRANCH  20  27
ATOM     22  N   UNL     1       2.616   3.007  18.191  0.00  0.00    +0.000 N 
ATOM     23  C   UNL     1       3.397   4.017  17.656  0.00  0.00    +0.000 A 
ATOM     24  N   UNL     1       4.388   3.596  16.858  0.00  0.00    +0.000 NA
ATOM     25  C   UNL     1       5.177   4.538  16.328  0.00  0.00    +0.000 A 
ATOM     26  C   UNL     1       5.005   5.880  16.554  0.00  0.00    +0.000 A 
ATOM     27  C   UNL     1       3.973   6.229  17.393  0.00  0.00    +0.000 A 
ATOM     28  N   UNL     1       3.164   5.308  17.940  0.00  0.00    +0.000 NA
ATOM     29  H   UNL     1       2.766   2.195  17.604  0.00  0.00    +0.000 HD
BRANCH  22  30
ATOM     30  C   UNL     1       1.235   3.345  18.478  0.00  0.00    +0.000 C 
BRANCH  30  32
ATOM     31  C   UNL     1       1.949   2.375  20.717  0.00  0.00    +0.000 C 
ATOM     32  C   UNL     1       1.006   3.347  20.002  0.00  0.00    +0.000 C 
ATOM     33  C   UNL     1       1.193   4.755  20.569  0.00  0.00    +0.000 C 
ENDBRANCH  30  32
ENDBRANCH  22  30
ENDBRANCH  20  27
ENDBRANCH  19  20
ENDBRANCH  18  19
ENDBRANCH   1  18
TORSDOF 7
ENDMDL
MODEL 5
REMARK VINA RESULT:      -7.9      1.711      2.603
REMARK  Name = 
REMARK  9 active torsions:
REMARK  status: ('A' for Active; 'I' for Inactive)
REMARK    1  A    between atoms: C_1  and  C_2
REMARK    2  A    between atoms: C_2  and  C_3
REMARK    3  A    between atoms: C_2  and  C_4
REMARK    4  A    between atoms: C_4  and  N_5
REMARK    5  A    between atoms: C_10  and  N_11
REMARK    6  A    between atoms: N_11  and  C_12
REMARK    7  A    between atoms: C_12  and  C_13
REMARK    8  A    between atoms: C_13  and  N_14
REMARK    9  A    between atoms: N_14  and  C_15
REMARK                            x       y       z     vdW  Elec       q    Type
REMARK                         _______ _______ _______ _____ _____    ______ ____
ROOT
ATOM      1  N   UNL     1       3.438   2.486  20.460  0.00  0.00    +0.000 NA
ATOM      2  H   UNL     1       3.705   3.083  21.242  0.00  0.00    +0.000 HD
ENDROOT
BRANCH   1   3
ATOM      3  C   UNL     1       2.094   2.872  20.017  0.00  0.00    +0.000 C 
ATOM      4  C   UNL     1       1.676   2.304  18.631  0.00  0.00    +0.000 C 
ATOM      5  C   UNL     1       2.508   2.902  17.479  0.00  0.00    +0.000 C 
ATOM      6  C   UNL     1       2.358   4.433  17.372  0.00  0.00    +0.000 C 
ATOM      7  C   UNL     1       2.192   5.079  18.708  0.00  0.00    +0.000 A 
ATOM      8  C   UNL     1       2.075   4.364  19.884  0.00  0.00    +0.000 A 
ATOM      9  N   UNL     1       1.897   5.252  20.910  0.00  0.00    +0.000 N 
ATOM     10  C   UNL     1       1.826   6.537  20.408  0.00  0.00    +0.000 A 
ATOM     11  C   UNL     1       1.592   7.755  21.063  0.00  0.00    +0.000 A 
ATOM     12  C   UNL     1       1.556   8.915  20.283  0.00  0.00    +0.000 A 
ATOM     13  C   UNL     1       1.754   8.855  18.906  0.00  0.00    +0.000 A 
ATOM     14 BR   UNL     1       1.690  10.446  17.882  0.00  0.00    +0.000 Br
ATOM     15  C   UNL     1       1.990   7.638  18.262  0.00  0.00    +0.000 A 
ATOM     16  C   UNL     1       2.023   6.455  19.026  0.00  0.00    +0.000 A 
ATOM     17  H   UNL     1       1.801   5.004  21.885  0.00  0.00    +0.000 HD
ENDBRANCH   1   3
BRANCH   1  18
ATOM     18  C   UNL     1       4.452   2.570  19.401  0.00  0.00    +0.000 C 
BRANCH  18  19
ATOM     19  C   UNL     1       5.374   3.791  19.591  0.00  0.00    +0.000 C 
BRANCH  19  20
ATOM     20  N   UNL     1       6.319   3.910  18.484  0.00  0.00    +0.000 N 
ATOM     21  H   UNL     1       7.307   3.950  18.722  0.00  0.00    +0.000 HD
BRANCH  20  27
ATOM     22  N   UNL     1       6.404   4.972  13.920  0.00  0.00    +0.000 N 
ATOM     23  C   UNL     1       6.134   5.309  15.235  0.00  0.00    +0.000 A 
ATOM     24  N   UNL     1       5.644   6.545  15.407  0.00  0.00    +0.000 NA
ATOM     25  C   UNL     1       5.381   6.919  16.665  0.00  0.00    +0.000 A 
ATOM     26  C   UNL     1       5.574   6.102  17.750  0.00  0.00    +0.000 A 
ATOM     27  C   UNL     1       6.091   4.854  17.490  0.00  0.00    +0.000 A 
ATOM     28  N   UNL     1       6.365   4.449  16.239  0.00  0.00    +0.000 NA
ATOM     29  H   UNL     1       5.868   5.615  13.349  0.00  0.00    +0.000 HD
BRANCH  22  30
ATOM     30  C   UNL     1       6.290   3.566  13.579  0.00  0.00    +0.000 C 
BRANCH  30  32
ATOM     31  C   UNL     1       6.789   2.175  11.510  0.00  0.00    +0.000 C 
ATOM     32  C   UNL     1       6.077   3.414  12.060  0.00  0.00    +0.000 C 
ATOM     33  C   UNL     1       4.584   3.335  11.736  0.00  0.00    +0.000 C 
ENDBRANCH  30  32
ENDBRANCH  22  30
ENDBRANCH  20  27
ENDBRANCH  19  20
ENDBRANCH  18  19
ENDBRANCH   1  18
TORSDOF 7
ENDMDL
MODEL 6
REMARK VINA RESULT:      -7.9      3.367      5.664
REMARK  Name = 
REMARK  9 active torsions:
REMARK  status: ('A' for Active; 'I' for Inactive)
REMARK    1  A    between atoms: C_1  and  C_2
REMARK    2  A    between atoms: C_2  and  C_3
REMARK    3  A    between atoms: C_2  and  C_4
REMARK    4  A    between atoms: C_4  and  N_5
REMARK    5  A    between atoms: C_10  and  N_11
REMARK    6  A    between atoms: N_11  and  C_12
REMARK    7  A    between atoms: C_12  and  C_13
REMARK    8  A    between atoms: C_13  and  N_14
REMARK    9  A    between atoms: N_14  and  C_15
REMARK                            x       y       z     vdW  Elec       q    Type
REMARK                         _______ _______ _______ _____ _____    ______ ____
ROOT
ATOM      1  N   UNL     1       1.204   9.727  19.059  0.00  0.00    +0.000 NA
ATOM      2  H   UNL     1       1.881   9.676  19.819  0.00  0.00    +0.000 HD
ENDROOT
BRANCH   1   3
ATOM      3  C   UNL     1       0.834  11.132  18.857  0.00  0.00    +0.000 C 
ATOM      4  C   UNL     1       1.057  12.049  20.093  0.00  0.00    +0.000 C 
ATOM      5  C   UNL     1       0.110  11.699  21.259  0.00  0.00    +0.000 C 
ATOM      6  C   UNL     1      -1.376  11.850  20.881  0.00  0.00    +0.000 C 
ATOM      7  C   UNL     1      -1.638  11.492  19.456  0.00  0.00    +0.000 A 
ATOM      8  C   UNL     1      -0.634  11.172  18.561  0.00  0.00    +0.000 A 
ATOM      9  N   UNL     1      -1.207  10.936  17.341  0.00  0.00    +0.000 N 
ATOM     10  C   UNL     1      -2.567  11.167  17.411  0.00  0.00    +0.000 A 
ATOM     11  C   UNL     1      -3.548  11.116  16.410  0.00  0.00    +0.000 A 
ATOM     12  C   UNL     1      -4.864  11.421  16.775  0.00  0.00    +0.000 A 
ATOM     13  C   UNL     1      -5.181  11.756  18.090  0.00  0.00    +0.000 A 
ATOM     14 BR   UNL     1      -6.971  12.170  18.544  0.00  0.00    +0.000 Br
ATOM     15  C   UNL     1      -4.197  11.800  19.081  0.00  0.00    +0.000 A 
ATOM     16  C   UNL     1      -2.864  11.504  18.736  0.00  0.00    +0.000 A 
ATOM     17  H   UNL     1      -0.707  10.664  16.506  0.00  0.00    +0.000 HD
ENDBRANCH   1   3
BRANCH   1  18
ATOM     18  C   UNL     1       1.753   9.085  17.858  0.00  0.00    +0.000 C 
BRANCH  18  19
ATOM     19  C   UNL     1       2.619   7.859  18.214  0.00  0.00    +0.000 C 
BRANCH  19  20
ATOM     20  N   UNL     1       2.125   7.203  19.421  0.00  0.00    +0.000 N 
ATOM     21  H   UNL     1       2.212   7.716  20.295  0.00  0.00    +0.000 HD
BRANCH  20  27
ATOM     22  N   UNL     1       4.681   3.471  18.196  0.00  0.00    +0.000 N 
ATOM     23  C   UNL     1       3.775   4.092  19.037  0.00  0.00    +0.000 A 
ATOM     24  N   UNL     1       3.341   3.332  20.052  0.00  0.00    +0.000 NA
ATOM     25  C   UNL     1       2.452   3.887  20.884  0.00  0.00    +0.000 A 
ATOM     26  C   UNL     1       1.994   5.174  20.749  0.00  0.00    +0.000 A 
ATOM     27  C   UNL     1       2.479   5.883  19.675  0.00  0.00    +0.000 A 
ATOM     28  N   UNL     1       3.372   5.354  18.823  0.00  0.00    +0.000 NA
ATOM     29  H   UNL     1       5.061   2.691  18.718  0.00  0.00    +0.000 HD
BRANCH  22  30
ATOM     30  C   UNL     1       5.646   4.334  17.540  0.00  0.00    +0.000 C 
BRANCH  30  32
ATOM     31  C   UNL     1       5.222   6.057  15.719  0.00  0.00    +0.000 C 
ATOM     32  C   UNL     1       5.224   4.568  16.076  0.00  0.00    +0.000 C 
ATOM     33  C   UNL     1       6.154   3.812  15.125  0.00  0.00    +0.000 C 
ENDBRANCH  30  32
ENDBRANCH  22  30
ENDBRANCH  20  27
ENDBRANCH  19  20
ENDBRANCH  18  19
ENDBRANCH   1  18
TORSDOF 7
ENDMDL
MODEL 7
REMARK VINA RESULT:      -7.9      3.621      6.078
REMARK  Name = 
REMARK  9 active torsions:
REMARK  status: ('A' for Active; 'I' for Inactive)
REMARK    1  A    between atoms: C_1  and  C_2
REMARK    2  A    between atoms: C_2  and  C_3
REMARK    3  A    between atoms: C_2  and  C_4
REMARK    4  A    between atoms: C_4  and  N_5
REMARK    5  A    between atoms: C_10  and  N_11
REMARK    6  A    between atoms: N_11  and  C_12
REMARK    7  A    between atoms: C_12  and  C_13
REMARK    8  A    between atoms: C_13  and  N_14
REMARK    9  A    between atoms: N_14  and  C_15
REMARK                            x       y       z     vdW  Elec       q    Type
REMARK                         _______ _______ _______ _____ _____    ______ ____
ROOT
ATOM      1  N   UNL     1       0.780   9.497  18.871  0.00  0.00    +0.000 NA
ATOM      2  H   UNL     1       1.119   9.362  19.822  0.00  0.00    +0.000 HD
ENDROOT
BRANCH   1   3
ATOM      3  C   UNL     1       0.553  10.929  18.655  0.00  0.00    +0.000 C 
ATOM      4  C   UNL     1       0.972  11.842  19.842  0.00  0.00    +0.000 C 
ATOM      5  C   UNL     1       0.087  11.626  21.087  0.00  0.00    +0.000 C 
ATOM      6  C   UNL     1      -1.399  11.935  20.818  0.00  0.00    +0.000 C 
ATOM      7  C   UNL     1      -1.809  11.578  19.428  0.00  0.00    +0.000 A 
ATOM      8  C   UNL     1      -0.920  11.128  18.470  0.00  0.00    +0.000 A 
ATOM      9  N   UNL     1      -1.609  10.932  17.304  0.00  0.00    +0.000 N 
ATOM     10  C   UNL     1      -2.926  11.316  17.470  0.00  0.00    +0.000 A 
ATOM     11  C   UNL     1      -3.982  11.354  16.548  0.00  0.00    +0.000 A 
ATOM     12  C   UNL     1      -5.223  11.813  17.001  0.00  0.00    +0.000 A 
ATOM     13  C   UNL     1      -5.397  12.208  18.325  0.00  0.00    +0.000 A 
ATOM     14 BR   UNL     1      -7.090  12.831  18.901  0.00  0.00    +0.000 Br
ATOM     15  C   UNL     1      -4.340  12.163  19.238  0.00  0.00    +0.000 A 
ATOM     16  C   UNL     1      -3.079  11.712  18.802  0.00  0.00    +0.000 A 
ATOM     17  H   UNL     1      -1.210  10.588  16.441  0.00  0.00    +0.000 HD
ENDBRANCH   1   3
BRANCH   1  18
ATOM     18  C   UNL     1       1.725   8.901  17.917  0.00  0.00    +0.000 C 
BRANCH  18  19
ATOM     19  C   UNL     1       2.529   7.751  18.555  0.00  0.00    +0.000 C 
BRANCH  19  20
ATOM     20  N   UNL     1       3.484   7.189  17.604  0.00  0.00    +0.000 N 
ATOM     21  H   UNL     1       3.128   6.941  16.684  0.00  0.00    +0.000 HD
BRANCH  20  27
ATOM     22  N   UNL     1       3.952   2.946  19.538  0.00  0.00    +0.000 N 
ATOM     23  C   UNL     1       4.498   4.072  18.948  0.00  0.00    +0.000 A 
ATOM     24  N   UNL     1       5.830   4.043  18.810  0.00  0.00    +0.000 NA
ATOM     25  C   UNL     1       6.403   5.118  18.256  0.00  0.00    +0.000 A 
ATOM     26  C   UNL     1       5.695   6.210  17.823  0.00  0.00    +0.000 A 
ATOM     27  C   UNL     1       4.333   6.168  18.011  0.00  0.00    +0.000 A 
ATOM     28  N   UNL     1       3.729   5.103  18.563  0.00  0.00    +0.000 NA
ATOM     29  H   UNL     1       4.645   2.213  19.440  0.00  0.00    +0.000 HD
BRANCH  22  30
ATOM     30  C   UNL     1       2.598   2.604  19.144  0.00  0.00    +0.000 C 
BRANCH  30  32
ATOM     31  C   UNL     1       2.432   2.696  21.680  0.00  0.00    +0.000 C 
ATOM     32  C   UNL     1       1.657   2.723  20.359  0.00  0.00    +0.000 C 
ATOM     33  C   UNL     1       0.834   4.010  20.273  0.00  0.00    +0.000 C 
ENDBRANCH  30  32
ENDBRANCH  22  30
ENDBRANCH  20  27
ENDBRANCH  19  20
ENDBRANCH  18  19
ENDBRANCH   1  18
TORSDOF 7
ENDMDL
MODEL 8
REMARK VINA RESULT:      -7.6      3.291      5.813
REMARK  Name = 
REMARK  9 active torsions:
REMARK  status: ('A' for Active; 'I' for Inactive)
REMARK    1  A    between atoms: C_1  and  C_2
REMARK    2  A    between atoms: C_2  and  C_3
REMARK    3  A    between atoms: C_2  and  C_4
REMARK    4  A    between atoms: C_4  and  N_5
REMARK    5  A    between atoms: C_10  and  N_11
REMARK    6  A    between atoms: N_11  and  C_12
REMARK    7  A    between atoms: C_12  and  C_13
REMARK    8  A    between atoms: C_13  and  N_14
REMARK    9  A    between atoms: N_14  and  C_15
REMARK                            x       y       z     vdW  Elec       q    Type
REMARK                         _______ _______ _______ _____ _____    ______ ____
ROOT
ATOM      1  N   UNL     1       1.819  10.240  17.820  0.00  0.00    +0.000 NA
ATOM      2  H   UNL     1       1.444  10.763  17.030  0.00  0.00    +0.000 HD
ENDROOT
BRANCH   1   3
ATOM      3  C   UNL     1       1.163  10.710  19.044  0.00  0.00    +0.000 C 
ATOM      4  C   UNL     1      -0.306  10.229  19.223  0.00  0.00    +0.000 C 
ATOM      5  C   UNL     1      -1.253  10.842  18.172  0.00  0.00    +0.000 C 
ATOM      6  C   UNL     1      -1.300  12.380  18.241  0.00  0.00    +0.000 C 
ATOM      7  C   UNL     1       0.017  12.970  18.624  0.00  0.00    +0.000 A 
ATOM      8  C   UNL     1       1.112  12.206  18.982  0.00  0.00    +0.000 A 
ATOM      9  N   UNL     1       2.136  13.051  19.310  0.00  0.00    +0.000 N 
ATOM     10  C   UNL     1       1.702  14.361  19.238  0.00  0.00    +0.000 A 
ATOM     11  C   UNL     1       2.371  15.555  19.542  0.00  0.00    +0.000 A 
ATOM     12  C   UNL     1       1.663  16.752  19.390  0.00  0.00    +0.000 A 
ATOM     13  C   UNL     1       0.342  16.749  18.946  0.00  0.00    +0.000 A 
ATOM     14 BR   UNL     1      -0.586  18.388  18.760  0.00  0.00    +0.000 Br
ATOM     15  C   UNL     1      -0.315  15.554  18.642  0.00  0.00    +0.000 A 
ATOM     16  C   UNL     1       0.376  14.336  18.795  0.00  0.00    +0.000 A 
ATOM     17  H   UNL     1       3.063  12.762  19.592  0.00  0.00    +0.000 HD
ENDBRANCH   1   3
BRANCH   1  18
ATOM     18  C   UNL     1       1.659   8.799  17.584  0.00  0.00    +0.000 C 
BRANCH  18  19
ATOM     19  C   UNL     1       2.826   7.991  18.187  0.00  0.00    +0.000 C 
BRANCH  19  20
ATOM     20  N   UNL     1       2.375   7.191  19.322  0.00  0.00    +0.000 N 
ATOM     21  H   UNL     1       2.435   7.620  20.242  0.00  0.00    +0.000 HD
BRANCH  20  27
ATOM     22  N   UNL     1       5.911   4.129  19.026  0.00  0.00    +0.000 N 
ATOM     23  C   UNL     1       4.588   4.424  19.304  0.00  0.00    +0.000 A 
ATOM     24  N   UNL     1       3.850   3.377  19.696  0.00  0.00    +0.000 NA
ATOM     25  C   UNL     1       2.560   3.614  19.963  0.00  0.00    +0.000 A 
ATOM     26  C   UNL     1       1.987   4.856  19.866  0.00  0.00    +0.000 A 
ATOM     27  C   UNL     1       2.808   5.876  19.446  0.00  0.00    +0.000 A 
ATOM     28  N   UNL     1       4.106   5.671  19.171  0.00  0.00    +0.000 NA
ATOM     29  H   UNL     1       6.107   3.251  19.492  0.00  0.00    +0.000 HD
BRANCH  22  30
ATOM     30  C   UNL     1       6.869   5.197  19.244  0.00  0.00    +0.000 C 
BRANCH  30  32
ATOM     31  C   UNL     1       7.174   4.574  16.798  0.00  0.00    +0.000 C 
ATOM     32  C   UNL     1       7.592   5.525  17.923  0.00  0.00    +0.000 C 
ATOM     33  C   UNL     1       7.313   6.970  17.505  0.00  0.00    +0.000 C 
ENDBRANCH  30  32
ENDBRANCH  22  30
ENDBRANCH  20  27
ENDBRANCH  19  20
ENDBRANCH  18  19
ENDBRANCH   1  18
TORSDOF 7
ENDMDL
MODEL 9
REMARK VINA RESULT:      -7.6      3.323      5.313
REMARK  Name = 
REMARK  9 active torsions:
REMARK  status: ('A' for Active; 'I' for Inactive)
REMARK    1  A    between atoms: C_1  and  C_2
REMARK    2  A    between atoms: C_2  and  C_3
REMARK    3  A    between atoms: C_2  and  C_4
REMARK    4  A    between atoms: C_4  and  N_5
REMARK    5  A    between atoms: C_10  and  N_11
REMARK    6  A    between atoms: N_11  and  C_12
REMARK    7  A    between atoms: C_12  and  C_13
REMARK    8  A    between atoms: C_13  and  N_14
REMARK    9  A    between atoms: N_14  and  C_15
REMARK                            x       y       z     vdW  Elec       q    Type
REMARK                         _______ _______ _______ _____ _____    ______ ____
ROOT
ATOM      1  N   UNL     1       0.728   8.651  19.953  0.00  0.00    +0.000 NA
ATOM      2  H   UNL     1       0.083   8.646  20.743  0.00  0.00    +0.000 HD
ENDROOT
BRANCH   1   3
ATOM      3  C   UNL     1       0.792  10.012  19.411  0.00  0.00    +0.000 C 
ATOM      4  C   UNL     1       1.035  11.125  20.471  0.00  0.00    +0.000 C 
ATOM      5  C   UNL     1      -0.160  11.286  21.433  0.00  0.00    +0.000 C 
ATOM      6  C   UNL     1      -1.460  11.673  20.702  0.00  0.00    +0.000 C 
ATOM      7  C   UNL     1      -1.556  11.052  19.348  0.00  0.00    +0.000 A 
ATOM      8  C   UNL     1      -0.535  10.310  18.784  0.00  0.00    +0.000 A 
ATOM      9  N   UNL     1      -0.928   9.923  17.532  0.00  0.00    +0.000 N 
ATOM     10  C   UNL     1      -2.166  10.464  17.243  0.00  0.00    +0.000 A 
ATOM     11  C   UNL     1      -2.934  10.396  16.071  0.00  0.00    +0.000 A 
ATOM     12  C   UNL     1      -4.161  11.068  16.060  0.00  0.00    +0.000 A 
ATOM     13  C   UNL     1      -4.600  11.770  17.180  0.00  0.00    +0.000 A 
ATOM     14 BR   UNL     1      -6.263  12.673  17.125  0.00  0.00    +0.000 Br
ATOM     15  C   UNL     1      -3.830  11.828  18.344  0.00  0.00    +0.000 A 
ATOM     16  C   UNL     1      -2.588  11.166  18.376  0.00  0.00    +0.000 A 
ATOM     17  H   UNL     1      -0.382   9.353  16.900  0.00  0.00    +0.000 HD
ENDBRANCH   1   3
BRANCH   1  18
ATOM     18  C   UNL     1       2.032   8.123  20.374  0.00  0.00    +0.000 C 
BRANCH  18  19
ATOM     19  C   UNL     1       2.464   6.920  19.512  0.00  0.00    +0.000 C 
BRANCH  19  20
ATOM     20  N   UNL     1       1.902   5.676  20.031  0.00  0.00    +0.000 N 
ATOM     21  H   UNL     1       1.982   5.516  21.032  0.00  0.00    +0.000 HD
BRANCH  20  27
ATOM     22  N   UNL     1       4.663   3.321  17.065  0.00  0.00    +0.000 N 
ATOM     23  C   UNL     1       3.595   3.368  17.943  0.00  0.00    +0.000 A 
ATOM     24  N   UNL     1       2.949   2.205  18.102  0.00  0.00    +0.000 NA
ATOM     25  C   UNL     1       1.899   2.207  18.933  0.00  0.00    +0.000 A 
ATOM     26  C   UNL     1       1.483   3.320  19.619  0.00  0.00    +0.000 A 
ATOM     27  C   UNL     1       2.192   4.477  19.392  0.00  0.00    +0.000 A 
ATOM     28  N   UNL     1       3.249   4.507  18.565  0.00  0.00    +0.000 NA
ATOM     29  H   UNL     1       4.919   2.344  16.986  0.00  0.00    +0.000 HD
BRANCH  22  30
ATOM     30  C   UNL     1       5.749   4.249  17.322  0.00  0.00    +0.000 C 
BRANCH  30  32
ATOM     31  C   UNL     1       6.002   4.087  14.797  0.00  0.00    +0.000 C 
ATOM     32  C   UNL     1       6.111   4.998  16.024  0.00  0.00    +0.000 C 
ATOM     33  C   UNL     1       5.206   6.217  15.841  0.00  0.00    +0.000 C 
ENDBRANCH  30  32
ENDBRANCH  22  30
ENDBRANCH  20  27
ENDBRANCH  19  20
ENDBRANCH  18  19
ENDBRANCH   1  18
TORSDOF 7
ENDMDL
