MODEL 1
REMARK VINA RESULT:      -7.3      0.000      0.000
REMARK  Name = 
REMARK  9 active torsions:
REMARK  status: ('A' for Active; 'I' for Inactive)
REMARK    1  A    between atoms: C_1  and  C_2
REMARK    2  A    between atoms: C_2  and  C_3
REMARK    3  A    between atoms: C_3  and  C_5
REMARK    4  A    between atoms: C_5  and  C_6
REMARK    5  A    between atoms: C_5  and  C_15
REMARK    6  A    between atoms: C_5  and  C_21
REMARK    7  A    between atoms: C_6  and  C_7
REMARK    8  A    between atoms: C_7  and  C_8
REMARK    9  A    between atoms: C_7  and  N_9
REMARK                            x       y       z     vdW  Elec       q    Type
REMARK                         _______ _______ _______ _____ _____    ______ ____
ROOT
ATOM      1  C   UNL     1       5.827   4.917  17.627  0.00  0.00    +0.000 C 
ENDROOT
BRANCH   1   2
ATOM      2  C   UNL     1       4.697   5.985  17.889  0.00  0.00    +0.000 A 
ATOM      3  C   UNL     1       3.964   6.059  19.108  0.00  0.00    +0.000 A 
ATOM      4  C   UNL     1       2.916   6.966  19.285  0.00  0.00    +0.000 A 
ATOM      5  C   UNL     1       2.568   7.846  18.272  0.00  0.00    +0.000 A 
ATOM      6  C   UNL     1       3.290   7.849  17.087  0.00  0.00    +0.000 A 
ATOM      7  C   UNL     1       4.345   6.950  16.901  0.00  0.00    +0.000 A 
ENDBRANCH   1   2
BRANCH   1   8
ATOM      8  C   UNL     1       5.948   4.693  16.089  0.00  0.00    +0.000 A 
ATOM      9  C   UNL     1       7.114   5.038  15.355  0.00  0.00    +0.000 A 
ATOM     10  C   UNL     1       7.215   4.795  13.983  0.00  0.00    +0.000 A 
ATOM     11  C   UNL     1       6.161   4.198  13.298  0.00  0.00    +0.000 A 
ATOM     12  C   UNL     1       5.000   3.848  13.985  0.00  0.00    +0.000 A 
ATOM     13  C   UNL     1       4.889   4.093  15.360  0.00  0.00    +0.000 A 
ENDBRANCH   1   8
BRANCH   1  14
ATOM     14  C   UNL     1       7.221   5.351  18.216  0.00  0.00    +0.000 C 
ATOM     15  O   UNL     1       7.953   4.486  18.665  0.00  0.00    +0.000 OA
BRANCH  14  17
ATOM     16  C   UNL     1       7.825   7.763  17.616  0.00  0.00    +0.000 C 
ATOM     17  C   UNL     1       7.506   6.765  18.736  0.00  0.00    +0.000 C 
ENDBRANCH  14  17
ENDBRANCH   1  14
BRANCH   1  18
ATOM     18  C   UNL     1       5.439   3.515  18.268  0.00  0.00    +0.000 C 
BRANCH  18  19
ATOM     19  C   UNL     1       3.967   2.950  18.083  0.00  0.00    +0.000 C 
ATOM     20  C   UNL     1       3.863   1.446  17.787  0.00  0.00    +0.000 C 
BRANCH  19  21
ATOM     21  N   UNL     1       3.080   3.291  19.231  0.00  0.00    +0.000 NA
ATOM     22  C   UNL     1       1.627   3.233  18.920  0.00  0.00    +0.000 C 
ATOM     23  C   UNL     1       0.792   3.717  20.110  0.00  0.00    +0.000 C 
ATOM     24  C   UNL     1       1.109   2.861  21.335  0.00  0.00    +0.000 C 
ATOM     25  C   UNL     1       2.600   2.982  21.652  0.00  0.00    +0.000 C 
ATOM     26  C   UNL     1       3.420   2.515  20.448  0.00  0.00    +0.000 C 
ENDBRANCH  19  21
ENDBRANCH  18  19
ENDBRANCH   1  18
TORSDOF 7
ENDMDL
MODEL 2
REMARK VINA RESULT:      -7.0      1.348      4.179
REMARK  Name = 
REMARK  9 active torsions:
REMARK  status: ('A' for Active; 'I' for Inactive)
REMARK    1  A    between atoms: C_1  and  C_2
REMARK    2  A    between atoms: C_2  and  C_3
REMARK    3  A    between atoms: C_3  and  C_5
REMARK    4  A    between atoms: C_5  and  C_6
REMARK    5  A    between atoms: C_5  and  C_15
REMARK    6  A    between atoms: C_5  and  C_21
REMARK    7  A    between atoms: C_6  and  C_7
REMARK    8  A    between atoms: C_7  and  C_8
REMARK    9  A    between atoms: C_7  and  N_9
REMARK                            x       y       z     vdW  Elec       q    Type
REMARK                         _______ _______ _______ _____ _____    ______ ____
ROOT
ATOM      1  C   UNL     1       5.362   5.635  16.995  0.00  0.00    +0.000 C 
ENDROOT
BRANCH   1   2
ATOM      2  C   UNL     1       5.854   5.086  15.601  0.00  0.00    +0.000 A 
ATOM      3  C   UNL     1       7.166   5.311  15.096  0.00  0.00    +0.000 A 
ATOM      4  C   UNL     1       7.552   4.878  13.825  0.00  0.00    +0.000 A 
ATOM      5  C   UNL     1       6.662   4.189  13.015  0.00  0.00    +0.000 A 
ATOM      6  C   UNL     1       5.390   3.897  13.487  0.00  0.00    +0.000 A 
ATOM      7  C   UNL     1       4.995   4.320  14.760  0.00  0.00    +0.000 A 
ENDBRANCH   1   2
BRANCH   1   8
ATOM      8  C   UNL     1       6.517   6.463  17.635  0.00  0.00    +0.000 A 
ATOM      9  C   UNL     1       7.349   5.948  18.665  0.00  0.00    +0.000 A 
ATOM     10  C   UNL     1       8.402   6.694  19.200  0.00  0.00    +0.000 A 
ATOM     11  C   UNL     1       8.663   7.976  18.726  0.00  0.00    +0.000 A 
ATOM     12  C   UNL     1       7.866   8.516  17.718  0.00  0.00    +0.000 A 
ATOM     13  C   UNL     1       6.805   7.775  17.180  0.00  0.00    +0.000 A 
ENDBRANCH   1   8
BRANCH   1  14
ATOM     14  C   UNL     1       4.069   6.524  16.875  0.00  0.00    +0.000 C 
ATOM     15  O   UNL     1       3.941   7.227  15.888  0.00  0.00    +0.000 OA
BRANCH  14  17
ATOM     16  C   UNL     1       2.443   8.251  17.834  0.00  0.00    +0.000 C 
ATOM     17  C   UNL     1       3.243   6.967  18.088  0.00  0.00    +0.000 C 
ENDBRANCH  14  17
ENDBRANCH   1  14
BRANCH   1  18
ATOM     18  C   UNL     1       5.044   4.439  17.993  0.00  0.00    +0.000 C 
BRANCH  18  19
ATOM     19  C   UNL     1       3.635   3.710  17.917  0.00  0.00    +0.000 C 
ATOM     20  C   UNL     1       3.661   2.264  17.401  0.00  0.00    +0.000 C 
BRANCH  19  21
ATOM     21  N   UNL     1       2.900   3.761  19.213  0.00  0.00    +0.000 NA
ATOM     22  C   UNL     1       1.421   3.812  19.076  0.00  0.00    +0.000 C 
ATOM     23  C   UNL     1       0.749   3.989  20.441  0.00  0.00    +0.000 C 
ATOM     24  C   UNL     1       1.159   2.840  21.362  0.00  0.00    +0.000 C 
ATOM     25  C   UNL     1       2.681   2.847  21.516  0.00  0.00    +0.000 C 
ATOM     26  C   UNL     1       3.336   2.691  20.143  0.00  0.00    +0.000 C 
ENDBRANCH  19  21
ENDBRANCH  18  19
ENDBRANCH   1  18
TORSDOF 7
ENDMDL
MODEL 3
REMARK VINA RESULT:      -6.9      1.433      4.169
REMARK  Name = 
REMARK  9 active torsions:
REMARK  status: ('A' for Active; 'I' for Inactive)
REMARK    1  A    between atoms: C_1  and  C_2
REMARK    2  A    between atoms: C_2  and  C_3
REMARK    3  A    between atoms: C_3  and  C_5
REMARK    4  A    between atoms: C_5  and  C_6
REMARK    5  A    between atoms: C_5  and  C_15
REMARK    6  A    between atoms: C_5  and  C_21
REMARK    7  A    between atoms: C_6  and  C_7
REMARK    8  A    between atoms: C_7  and  C_8
REMARK    9  A    between atoms: C_7  and  N_9
REMARK                            x       y       z     vdW  Elec       q    Type
REMARK                         _______ _______ _______ _____ _____    ______ ____
ROOT
ATOM      1  C   UNL     1       5.283   5.655  16.951  0.00  0.00    +0.000 C 
ENDROOT
BRANCH   1   2
ATOM      2  C   UNL     1       5.737   5.105  15.545  0.00  0.00    +0.000 A 
ATOM      3  C   UNL     1       4.863   4.407  14.663  0.00  0.00    +0.000 A 
ATOM      4  C   UNL     1       5.311   3.864  13.457  0.00  0.00    +0.000 A 
ATOM      5  C   UNL     1       6.634   4.007  13.068  0.00  0.00    +0.000 A 
ATOM      6  C   UNL     1       7.510   4.728  13.867  0.00  0.00    +0.000 A 
ATOM      7  C   UNL     1       7.071   5.281  15.074  0.00  0.00    +0.000 A 
ENDBRANCH   1   2
BRANCH   1   8
ATOM      8  C   UNL     1       6.489   6.398  17.603  0.00  0.00    +0.000 A 
ATOM      9  C   UNL     1       6.886   7.704  17.210  0.00  0.00    +0.000 A 
ATOM     10  C   UNL     1       7.947   8.367  17.832  0.00  0.00    +0.000 A 
ATOM     11  C   UNL     1       8.644   7.753  18.868  0.00  0.00    +0.000 A 
ATOM     12  C   UNL     1       8.285   6.471  19.279  0.00  0.00    +0.000 A 
ATOM     13  C   UNL     1       7.225   5.798  18.656  0.00  0.00    +0.000 A 
ENDBRANCH   1   8
BRANCH   1  14
ATOM     14  C   UNL     1       4.047   6.624  16.854  0.00  0.00    +0.000 C 
ATOM     15  O   UNL     1       3.973   7.373  15.895  0.00  0.00    +0.000 OA
BRANCH  14  17
ATOM     16  C   UNL     1       2.491   8.391  17.855  0.00  0.00    +0.000 C 
ATOM     17  C   UNL     1       3.233   7.066  18.075  0.00  0.00    +0.000 C 
ENDBRANCH  14  17
ENDBRANCH   1  14
BRANCH   1  18
ATOM     18  C   UNL     1       4.895   4.462  17.926  0.00  0.00    +0.000 C 
BRANCH  18  19
ATOM     19  C   UNL     1       3.567   3.633  17.660  0.00  0.00    +0.000 C 
ATOM     20  C   UNL     1       3.765   2.150  17.315  0.00  0.00    +0.000 C 
BRANCH  19  21
ATOM     21  N   UNL     1       2.589   3.755  18.779  0.00  0.00    +0.000 NA
ATOM     22  C   UNL     1       1.590   2.657  18.841  0.00  0.00    +0.000 C 
ATOM     23  C   UNL     1       0.550   2.921  19.934  0.00  0.00    +0.000 C 
ATOM     24  C   UNL     1       1.257   3.075  21.281  0.00  0.00    +0.000 C 
ATOM     25  C   UNL     1       2.242   4.241  21.194  0.00  0.00    +0.000 C 
ATOM     26  C   UNL     1       3.260   3.971  20.083  0.00  0.00    +0.000 C 
ENDBRANCH  19  21
ENDBRANCH  18  19
ENDBRANCH   1  18
TORSDOF 7
ENDMDL
MODEL 4
REMARK VINA RESULT:      -6.9      2.001      5.943
REMARK  Name = 
REMARK  9 active torsions:
REMARK  status: ('A' for Active; 'I' for Inactive)
REMARK    1  A    between atoms: C_1  and  C_2
REMARK    2  A    between atoms: C_2  and  C_3
REMARK    3  A    between atoms: C_3  and  C_5
REMARK    4  A    between atoms: C_5  and  C_6
REMARK    5  A    between atoms: C_5  and  C_15
REMARK    6  A    between atoms: C_5  and  C_21
REMARK    7  A    between atoms: C_6  and  C_7
REMARK    8  A    between atoms: C_7  and  C_8
REMARK    9  A    between atoms: C_7  and  N_9
REMARK                            x       y       z     vdW  Elec       q    Type
REMARK                         _______ _______ _______ _____ _____    ______ ____
ROOT
ATOM      1  C   UNL     1       4.768   5.555  17.783  0.00  0.00    +0.000 C 
ENDROOT
BRANCH   1   2
ATOM      2  C   UNL     1       4.244   4.116  18.161  0.00  0.00    +0.000 A 
ATOM      3  C   UNL     1       4.676   3.410  19.319  0.00  0.00    +0.000 A 
ATOM      4  C   UNL     1       4.254   2.107  19.589  0.00  0.00    +0.000 A 
ATOM      5  C   UNL     1       3.372   1.461  18.735  0.00  0.00    +0.000 A 
ATOM      6  C   UNL     1       2.879   2.130  17.624  0.00  0.00    +0.000 A 
ATOM      7  C   UNL     1       3.291   3.437  17.346  0.00  0.00    +0.000 A 
ENDBRANCH   1   2
BRANCH   1   8
ATOM      8  C   UNL     1       3.675   6.597  18.170  0.00  0.00    +0.000 A 
ATOM      9  C   UNL     1       2.951   6.530  19.390  0.00  0.00    +0.000 A 
ATOM     10  C   UNL     1       2.000   7.494  19.733  0.00  0.00    +0.000 A 
ATOM     11  C   UNL     1       1.742   8.558  18.875  0.00  0.00    +0.000 A 
ATOM     12  C   UNL     1       2.431   8.656  17.668  0.00  0.00    +0.000 A 
ATOM     13  C   UNL     1       3.382   7.690  17.314  0.00  0.00    +0.000 A 
ENDBRANCH   1   8
BRANCH   1  14
ATOM     14  C   UNL     1       6.124   5.914  18.496  0.00  0.00    +0.000 C 
ATOM     15  O   UNL     1       6.288   5.544  19.645  0.00  0.00    +0.000 OA
BRANCH  14  17
ATOM     16  C   UNL     1       8.351   7.135  18.809  0.00  0.00    +0.000 C 
ATOM     17  C   UNL     1       7.006   7.094  18.071  0.00  0.00    +0.000 C 
ENDBRANCH  14  17
ENDBRANCH   1  14
BRANCH   1  18
ATOM     18  C   UNL     1       4.991   5.681  16.214  0.00  0.00    +0.000 C 
BRANCH  18  19
ATOM     19  C   UNL     1       6.394   5.281  15.588  0.00  0.00    +0.000 C 
ATOM     20  C   UNL     1       7.152   4.159  16.314  0.00  0.00    +0.000 C 
BRANCH  19  21
ATOM     21  N   UNL     1       6.294   4.953  14.137  0.00  0.00    +0.000 NA
ATOM     22  C   UNL     1       7.588   5.006  13.407  0.00  0.00    +0.000 C 
ATOM     23  C   UNL     1       7.381   4.781  11.906  0.00  0.00    +0.000 C 
ATOM     24  C   UNL     1       6.699   3.432  11.683  0.00  0.00    +0.000 C 
ATOM     25  C   UNL     1       5.352   3.432  12.409  0.00  0.00    +0.000 C 
ATOM     26  C   UNL     1       5.575   3.678  13.902  0.00  0.00    +0.000 C 
ENDBRANCH  19  21
ENDBRANCH  18  19
ENDBRANCH   1  18
TORSDOF 7
ENDMDL
MODEL 5
REMARK VINA RESULT:      -6.9      0.561      1.446
REMARK  Name = 
REMARK  9 active torsions:
REMARK  status: ('A' for Active; 'I' for Inactive)
REMARK    1  A    between atoms: C_1  and  C_2
REMARK    2  A    between atoms: C_2  and  C_3
REMARK    3  A    between atoms: C_3  and  C_5
REMARK    4  A    between atoms: C_5  and  C_6
REMARK    5  A    between atoms: C_5  and  C_15
REMARK    6  A    between atoms: C_5  and  C_21
REMARK    7  A    between atoms: C_6  and  C_7
REMARK    8  A    between atoms: C_7  and  C_8
REMARK    9  A    between atoms: C_7  and  N_9
REMARK                            x       y       z     vdW  Elec       q    Type
REMARK                         _______ _______ _______ _____ _____    ______ ____
ROOT
ATOM      1  C   UNL     1       5.673   5.025  18.000  0.00  0.00    +0.000 C 
ENDROOT
BRANCH   1   2
ATOM      2  C   UNL     1       4.463   6.026  18.138  0.00  0.00    +0.000 A 
ATOM      3  C   UNL     1       4.118   6.973  17.132  0.00  0.00    +0.000 A 
ATOM      4  C   UNL     1       3.089   7.900  17.313  0.00  0.00    +0.000 A 
ATOM      5  C   UNL     1       2.348   7.910  18.486  0.00  0.00    +0.000 A 
ATOM      6  C   UNL     1       2.611   6.969  19.472  0.00  0.00    +0.000 A 
ATOM      7  C   UNL     1       3.636   6.033  19.299  0.00  0.00    +0.000 A 
ENDBRANCH   1   2
BRANCH   1   8
ATOM      8  C   UNL     1       5.926   4.762  16.484  0.00  0.00    +0.000 A 
ATOM      9  C   UNL     1       4.922   4.254  15.617  0.00  0.00    +0.000 A 
ATOM     10  C   UNL     1       5.159   4.059  14.254  0.00  0.00    +0.000 A 
ATOM     11  C   UNL     1       6.401   4.367  13.709  0.00  0.00    +0.000 A 
ATOM     12  C   UNL     1       7.412   4.865  14.529  0.00  0.00    +0.000 A 
ATOM     13  C   UNL     1       7.183   5.059  15.898  0.00  0.00    +0.000 A 
ENDBRANCH   1   8
BRANCH   1  14
ATOM     14  C   UNL     1       6.988   5.565  18.675  0.00  0.00    +0.000 C 
ATOM     15  O   UNL     1       7.063   5.547  19.891  0.00  0.00    +0.000 OA
BRANCH  14  17
ATOM     16  C   UNL     1       7.368   7.985  17.938  0.00  0.00    +0.000 C 
ATOM     17  C   UNL     1       7.933   6.560  17.990  0.00  0.00    +0.000 C 
ENDBRANCH  14  17
ENDBRANCH   1  14
BRANCH   1  18
ATOM     18  C   UNL     1       5.324   3.622  18.659  0.00  0.00    +0.000 C 
BRANCH  18  19
ATOM     19  C   UNL     1       3.917   2.947  18.366  0.00  0.00    +0.000 C 
ATOM     20  C   UNL     1       3.949   1.441  18.069  0.00  0.00    +0.000 C 
BRANCH  19  21
ATOM     21  N   UNL     1       2.923   3.219  19.443  0.00  0.00    +0.000 NA
ATOM     22  C   UNL     1       1.524   2.862  19.089  0.00  0.00    +0.000 C 
ATOM     23  C   UNL     1       0.553   3.286  20.195  0.00  0.00    +0.000 C 
ATOM     24  C   UNL     1       0.956   2.619  21.509  0.00  0.00    +0.000 C 
ATOM     25  C   UNL     1       2.381   3.045  21.865  0.00  0.00    +0.000 C 
ATOM     26  C   UNL     1       3.335   2.633  20.741  0.00  0.00    +0.000 C 
ENDBRANCH  19  21
ENDBRANCH  18  19
ENDBRANCH   1  18
TORSDOF 7
ENDMDL
MODEL 6
REMARK VINA RESULT:      -6.8      1.493      4.182
REMARK  Name = 
REMARK  9 active torsions:
REMARK  status: ('A' for Active; 'I' for Inactive)
REMARK    1  A    between atoms: C_1  and  C_2
REMARK    2  A    between atoms: C_2  and  C_3
REMARK    3  A    between atoms: C_3  and  C_5
REMARK    4  A    between atoms: C_5  and  C_6
REMARK    5  A    between atoms: C_5  and  C_15
REMARK    6  A    between atoms: C_5  and  C_21
REMARK    7  A    between atoms: C_6  and  C_7
REMARK    8  A    between atoms: C_7  and  C_8
REMARK    9  A    between atoms: C_7  and  N_9
REMARK                            x       y       z     vdW  Elec       q    Type
REMARK                         _______ _______ _______ _____ _____    ______ ____
ROOT
ATOM      1  C   UNL     1       5.235   5.491  16.851  0.00  0.00    +0.000 C 
ENDROOT
BRANCH   1   2
ATOM      2  C   UNL     1       5.755   4.981  15.452  0.00  0.00    +0.000 A 
ATOM      3  C   UNL     1       7.082   5.204  14.987  0.00  0.00    +0.000 A 
ATOM      4  C   UNL     1       7.493   4.808  13.712  0.00  0.00    +0.000 A 
ATOM      5  C   UNL     1       6.614   4.158  12.858  0.00  0.00    +0.000 A 
ATOM      6  C   UNL     1       5.327   3.869  13.289  0.00  0.00    +0.000 A 
ATOM      7  C   UNL     1       4.906   4.256  14.565  0.00  0.00    +0.000 A 
ENDBRANCH   1   2
BRANCH   1   8
ATOM      8  C   UNL     1       6.443   6.080  17.642  0.00  0.00    +0.000 A 
ATOM      9  C   UNL     1       6.988   7.362  17.365  0.00  0.00    +0.000 A 
ATOM     10  C   UNL     1       8.048   7.885  18.110  0.00  0.00    +0.000 A 
ATOM     11  C   UNL     1       8.596   7.152  19.157  0.00  0.00    +0.000 A 
ATOM     12  C   UNL     1       8.089   5.889  19.456  0.00  0.00    +0.000 A 
ATOM     13  C   UNL     1       7.030   5.355  18.710  0.00  0.00    +0.000 A 
ENDBRANCH   1   8
BRANCH   1  14
ATOM     14  C   UNL     1       4.103   6.576  16.719  0.00  0.00    +0.000 C 
ATOM     15  O   UNL     1       4.126   7.322  15.756  0.00  0.00    +0.000 OA
BRANCH  14  17
ATOM     16  C   UNL     1       2.659   8.470  17.655  0.00  0.00    +0.000 C 
ATOM     17  C   UNL     1       3.307   7.105  17.919  0.00  0.00    +0.000 C 
ENDBRANCH  14  17
ENDBRANCH   1  14
BRANCH   1  18
ATOM     18  C   UNL     1       4.662   4.287  17.714  0.00  0.00    +0.000 C 
BRANCH  18  19
ATOM     19  C   UNL     1       3.148   3.843  17.532  0.00  0.00    +0.000 C 
ATOM     20  C   UNL     1       2.930   2.461  16.899  0.00  0.00    +0.000 C 
BRANCH  19  21
ATOM     21  N   UNL     1       2.373   3.934  18.802  0.00  0.00    +0.000 NA
ATOM     22  C   UNL     1       1.409   2.823  19.012  0.00  0.00    +0.000 C 
ATOM     23  C   UNL     1       0.568   3.056  20.271  0.00  0.00    +0.000 C 
ATOM     24  C   UNL     1       1.492   3.195  21.481  0.00  0.00    +0.000 C 
ATOM     25  C   UNL     1       2.437   4.376  21.249  0.00  0.00    +0.000 C 
ATOM     26  C   UNL     1       3.254   4.137  19.978  0.00  0.00    +0.000 C 
ENDBRANCH  19  21
ENDBRANCH  18  19
ENDBRANCH   1  18
TORSDOF 7
ENDMDL
MODEL 7
REMARK VINA RESULT:      -6.8      1.957      5.952
REMARK  Name = 
REMARK  9 active torsions:
REMARK  status: ('A' for Active; 'I' for Inactive)
REMARK    1  A    between atoms: C_1  and  C_2
REMARK    2  A    between atoms: C_2  and  C_3
REMARK    3  A    between atoms: C_3  and  C_5
REMARK    4  A    between atoms: C_5  and  C_6
REMARK    5  A    between atoms: C_5  and  C_15
REMARK    6  A    between atoms: C_5  and  C_21
REMARK    7  A    between atoms: C_6  and  C_7
REMARK    8  A    between atoms: C_7  and  C_8
REMARK    9  A    between atoms: C_7  and  N_9
REMARK                            x       y       z     vdW  Elec       q    Type
REMARK                         _______ _______ _______ _____ _____    ______ ____
ROOT
ATOM      1  C   UNL     1       4.779   5.546  17.742  0.00  0.00    +0.000 C 
ENDROOT
BRANCH   1   2
ATOM      2  C   UNL     1       4.224   4.114  18.102  0.00  0.00    +0.000 A 
ATOM      3  C   UNL     1       3.231   3.448  17.330  0.00  0.00    +0.000 A 
ATOM      4  C   UNL     1       2.702   2.214  17.715  0.00  0.00    +0.000 A 
ATOM      5  C   UNL     1       3.152   1.582  18.865  0.00  0.00    +0.000 A 
ATOM      6  C   UNL     1       4.159   2.167  19.619  0.00  0.00    +0.000 A 
ATOM      7  C   UNL     1       4.700   3.400  19.241  0.00  0.00    +0.000 A 
ENDBRANCH   1   2
BRANCH   1   8
ATOM      8  C   UNL     1       3.710   6.606  18.146  0.00  0.00    +0.000 A 
ATOM      9  C   UNL     1       3.336   7.679  17.294  0.00  0.00    +0.000 A 
ATOM     10  C   UNL     1       2.349   8.598  17.662  0.00  0.00    +0.000 A 
ATOM     11  C   UNL     1       1.700   8.476  18.886  0.00  0.00    +0.000 A 
ATOM     12  C   UNL     1       2.042   7.437  19.749  0.00  0.00    +0.000 A 
ATOM     13  C   UNL     1       3.035   6.515  19.390  0.00  0.00    +0.000 A 
ENDBRANCH   1   8
BRANCH   1  14
ATOM     14  C   UNL     1       6.145   5.866  18.455  0.00  0.00    +0.000 C 
ATOM     15  O   UNL     1       6.327   5.427  19.578  0.00  0.00    +0.000 OA
BRANCH  14  17
ATOM     16  C   UNL     1       8.356   7.094  18.839  0.00  0.00    +0.000 C 
ATOM     17  C   UNL     1       7.017   7.073  18.091  0.00  0.00    +0.000 C 
ENDBRANCH  14  17
ENDBRANCH   1  14
BRANCH   1  18
ATOM     18  C   UNL     1       5.000   5.689  16.175  0.00  0.00    +0.000 C 
BRANCH  18  19
ATOM     19  C   UNL     1       6.401   5.292  15.542  0.00  0.00    +0.000 C 
ATOM     20  C   UNL     1       7.177   4.191  16.279  0.00  0.00    +0.000 C 
BRANCH  19  21
ATOM     21  N   UNL     1       6.292   4.940  14.098  0.00  0.00    +0.000 NA
ATOM     22  C   UNL     1       7.589   4.917  13.373  0.00  0.00    +0.000 C 
ATOM     23  C   UNL     1       7.378   4.672  11.876  0.00  0.00    +0.000 C 
ATOM     24  C   UNL     1       6.635   3.351  11.677  0.00  0.00    +0.000 C 
ATOM     25  C   UNL     1       5.287   3.428  12.397  0.00  0.00    +0.000 C 
ATOM     26  C   UNL     1       5.515   3.694  13.886  0.00  0.00    +0.000 C 
ENDBRANCH  19  21
ENDBRANCH  18  19
ENDBRANCH   1  18
TORSDOF 7
ENDMDL
MODEL 8
REMARK VINA RESULT:      -6.8      1.438      3.373
REMARK  Name = 
REMARK  9 active torsions:
REMARK  status: ('A' for Active; 'I' for Inactive)
REMARK    1  A    between atoms: C_1  and  C_2
REMARK    2  A    between atoms: C_2  and  C_3
REMARK    3  A    between atoms: C_3  and  C_5
REMARK    4  A    between atoms: C_5  and  C_6
REMARK    5  A    between atoms: C_5  and  C_15
REMARK    6  A    between atoms: C_5  and  C_21
REMARK    7  A    between atoms: C_6  and  C_7
REMARK    8  A    between atoms: C_7  and  C_8
REMARK    9  A    between atoms: C_7  and  N_9
REMARK                            x       y       z     vdW  Elec       q    Type
REMARK                         _______ _______ _______ _____ _____    ______ ____
ROOT
ATOM      1  C   UNL     1       5.381   5.103  16.892  0.00  0.00    +0.000 C 
ENDROOT
BRANCH   1   2
ATOM      2  C   UNL     1       6.424   6.105  17.520  0.00  0.00    +0.000 A 
ATOM      3  C   UNL     1       6.556   7.457  17.094  0.00  0.00    +0.000 A 
ATOM      4  C   UNL     1       7.539   8.302  17.615  0.00  0.00    +0.000 A 
ATOM      5  C   UNL     1       8.414   7.848  18.591  0.00  0.00    +0.000 A 
ATOM      6  C   UNL     1       8.286   6.555  19.078  0.00  0.00    +0.000 A 
ATOM      7  C   UNL     1       7.302   5.702  18.568  0.00  0.00    +0.000 A 
ENDBRANCH   1   2
BRANCH   1   8
ATOM      8  C   UNL     1       5.828   4.774  15.434  0.00  0.00    +0.000 A 
ATOM      9  C   UNL     1       7.160   4.968  14.980  0.00  0.00    +0.000 A 
ATOM     10  C   UNL     1       7.548   4.634  13.680  0.00  0.00    +0.000 A 
ATOM     11  C   UNL     1       6.624   4.092  12.792  0.00  0.00    +0.000 A 
ATOM     12  C   UNL     1       5.308   3.889  13.201  0.00  0.00    +0.000 A 
ATOM     13  C   UNL     1       4.910   4.227  14.502  0.00  0.00    +0.000 A 
ENDBRANCH   1   8
BRANCH   1  14
ATOM     14  C   UNL     1       5.242   3.772  17.721  0.00  0.00    +0.000 C 
ATOM     15  O   UNL     1       4.726   2.808  17.183  0.00  0.00    +0.000 OA
BRANCH  14  17
ATOM     16  C   UNL     1       4.540   2.485  19.817  0.00  0.00    +0.000 C 
ATOM     17  C   UNL     1       5.218   3.740  19.253  0.00  0.00    +0.000 C 
ENDBRANCH  14  17
ENDBRANCH   1  14
BRANCH   1  18
ATOM     18  C   UNL     1       3.943   5.771  16.793  0.00  0.00    +0.000 C 
BRANCH  18  19
ATOM     19  C   UNL     1       3.282   6.403  18.091  0.00  0.00    +0.000 C 
ATOM     20  C   UNL     1       2.787   7.850  17.949  0.00  0.00    +0.000 C 
BRANCH  19  21
ATOM     21  N   UNL     1       2.186   5.555  18.639  0.00  0.00    +0.000 NA
ATOM     22  C   UNL     1       1.941   4.302  17.878  0.00  0.00    +0.000 C 
ATOM     23  C   UNL     1       0.724   3.554  18.428  0.00  0.00    +0.000 C 
ATOM     24  C   UNL     1       0.944   3.243  19.908  0.00  0.00    +0.000 C 
ATOM     25  C   UNL     1       1.145   4.556  20.666  0.00  0.00    +0.000 C 
ATOM     26  C   UNL     1       2.352   5.301  20.091  0.00  0.00    +0.000 C 
ENDBRANCH  19  21
ENDBRANCH  18  19
ENDBRANCH   1  18
TORSDOF 7
ENDMDL
MODEL 9
REMARK VINA RESULT:      -6.7      1.419      3.376
REMARK  Name = 
REMARK  9 active torsions:
REMARK  status: ('A' for Active; 'I' for Inactive)
REMARK    1  A    between atoms: C_1  and  C_2
REMARK    2  A    between atoms: C_2  and  C_3
REMARK    3  A    between atoms: C_3  and  C_5
REMARK    4  A    between atoms: C_5  and  C_6
REMARK    5  A    between atoms: C_5  and  C_15
REMARK    6  A    between atoms: C_5  and  C_21
REMARK    7  A    between atoms: C_6  and  C_7
REMARK    8  A    between atoms: C_7  and  C_8
REMARK    9  A    between atoms: C_7  and  N_9
REMARK                            x       y       z     vdW  Elec       q    Type
REMARK                         _______ _______ _______ _____ _____    ______ ____
ROOT
ATOM      1  C   UNL     1       5.439   5.212  16.823  0.00  0.00    +0.000 C 
ENDROOT
BRANCH   1   2
ATOM      2  C   UNL     1       6.552   6.122  17.470  0.00  0.00    +0.000 A 
ATOM      3  C   UNL     1       7.434   5.665  18.491  0.00  0.00    +0.000 A 
ATOM      4  C   UNL     1       8.360   6.515  19.100  0.00  0.00    +0.000 A 
ATOM      5  C   UNL     1       8.464   7.841  18.708  0.00  0.00    +0.000 A 
ATOM      6  C   UNL     1       7.664   8.316  17.678  0.00  0.00    +0.000 A 
ATOM      7  C   UNL     1       6.737   7.474  17.057  0.00  0.00    +0.000 A 
ENDBRANCH   1   2
BRANCH   1   8
ATOM      8  C   UNL     1       5.873   4.859  15.368  0.00  0.00    +0.000 A 
ATOM      9  C   UNL     1       7.191   5.080  14.887  0.00  0.00    +0.000 A 
ATOM     10  C   UNL     1       7.569   4.724  13.590  0.00  0.00    +0.000 A 
ATOM     11  C   UNL     1       6.648   4.133  12.731  0.00  0.00    +0.000 A 
ATOM     12  C   UNL     1       5.344   3.903  13.166  0.00  0.00    +0.000 A 
ATOM     13  C   UNL     1       4.957   4.263  14.464  0.00  0.00    +0.000 A 
ENDBRANCH   1   8
BRANCH   1  14
ATOM     14  C   UNL     1       5.184   3.891  17.639  0.00  0.00    +0.000 C 
ATOM     15  O   UNL     1       4.498   3.021  17.131  0.00  0.00    +0.000 OA
BRANCH  14  17
ATOM     16  C   UNL     1       4.595   2.578  19.755  0.00  0.00    +0.000 C 
ATOM     17  C   UNL     1       5.277   3.820  19.168  0.00  0.00    +0.000 C 
ENDBRANCH  14  17
ENDBRANCH   1  14
BRANCH   1  18
ATOM     18  C   UNL     1       4.060   5.995  16.716  0.00  0.00    +0.000 C 
BRANCH  18  19
ATOM     19  C   UNL     1       3.357   6.527  18.037  0.00  0.00    +0.000 C 
ATOM     20  C   UNL     1       2.327   7.648  17.838  0.00  0.00    +0.000 C 
BRANCH  19  21
ATOM     21  N   UNL     1       2.745   5.427  18.835  0.00  0.00    +0.000 NA
ATOM     22  C   UNL     1       2.263   5.841  20.179  0.00  0.00    +0.000 C 
ATOM     23  C   UNL     1       1.765   4.633  20.980  0.00  0.00    +0.000 C 
ATOM     24  C   UNL     1       0.648   3.935  20.205  0.00  0.00    +0.000 C 
ATOM     25  C   UNL     1       1.192   3.483  18.850  0.00  0.00    +0.000 C 
ATOM     26  C   UNL     1       1.704   4.697  18.072  0.00  0.00    +0.000 C 
ENDBRANCH  19  21
ENDBRANCH  18  19
ENDBRANCH   1  18
TORSDOF 7
ENDMDL
