MODEL 1
REMARK VINA RESULT:      -8.5      0.000      0.000
REMARK  Name = 
REMARK  7 active torsions:
REMARK  status: ('A' for Active; 'I' for Inactive)
REMARK    1  A    between atoms: C_1  and  O_2
REMARK    2  A    between atoms: O_2  and  P_3
REMARK    3  A    between atoms: P_3  and  C_5
REMARK    4  A    between atoms: P_3  and  C_24
REMARK    5  A    between atoms: C_10  and  C_11
REMARK    6  A    between atoms: C_24  and  C_25
REMARK    7  A    between atoms: C_24  and  C_26
REMARK                            x       y       z     vdW  Elec       q    Type
REMARK                         _______ _______ _______ _____ _____    ______ ____
ROOT
ATOM      1  C   UNL     1       3.787   5.681  18.466  0.00  0.00    +0.000 A 
ATOM      2  C   UNL     1       3.782   6.705  17.501  0.00  0.00    +0.000 A 
ATOM      3  C   UNL     1       3.030   7.871  17.665  0.00  0.00    +0.000 A 
ATOM      4  C   UNL     1       2.307   7.949  18.846  0.00  0.00    +0.000 A 
ATOM      5  O   UNL     1       1.536   8.988  19.261  0.00  0.00    +0.000 OA
ATOM      6  C   UNL     1       1.070   8.589  20.488  0.00  0.00    +0.000 A 
ATOM      7  N   UNL     1       1.474   7.389  20.866  0.00  0.00    +0.000 NA
ATOM      8  C   UNL     1       2.266   6.972  19.822  0.00  0.00    +0.000 A 
ATOM      9  C   UNL     1       3.009   5.801  19.638  0.00  0.00    +0.000 A 
ENDROOT
BRANCH   6  10
ATOM     10  C   UNL     1       0.218   9.555  21.187  0.00  0.00    +0.000 A 
ATOM     11  C   UNL     1      -0.048   9.394  22.550  0.00  0.00    +0.000 A 
ATOM     12  C   UNL     1      -0.841  10.321  23.232  0.00  0.00    +0.000 A 
ATOM     13  C   UNL     1      -1.386  11.428  22.564  0.00  0.00    +0.000 A 
ATOM     14  C   UNL     1      -2.177  12.375  23.236  0.00  0.00    +0.000 A 
ATOM     15  C   UNL     1      -2.708  13.471  22.552  0.00  0.00    +0.000 A 
ATOM     16  C   UNL     1      -2.461  13.634  21.193  0.00  0.00    +0.000 A 
ATOM     17  C   UNL     1      -1.675  12.703  20.514  0.00  0.00    +0.000 A 
ATOM     18  C   UNL     1      -1.132  11.597  21.186  0.00  0.00    +0.000 A 
ATOM     19  C   UNL     1      -0.331  10.656  20.516  0.00  0.00    +0.000 A 
ENDBRANCH   6  10
BRANCH   1  20
ATOM     20  P   UNL     1       4.950   4.346  18.295  0.00  0.00    +0.000 P 
ATOM     21  O   UNL     1       5.926   4.161  19.426  0.00  0.00    +0.000 OA
BRANCH  20  22
ATOM     22  C   UNL     1       3.889   2.873  18.065  0.00  0.00    +0.000 C 
ATOM     23  C   UNL     1       3.457   2.143  19.325  0.00  0.00    +0.000 C 
ATOM     24  C   UNL     1       2.670   3.246  17.222  0.00  0.00    +0.000 C 
ENDBRANCH  20  22
BRANCH  20  26
ATOM     25  C   UNL     1       7.100   4.677  16.864  0.00  0.00    +0.000 C 
ATOM     26  O   UNL     1       5.686   4.544  16.865  0.00  0.00    +0.000 OA
ENDBRANCH  20  26
ENDBRANCH   1  20
TORSDOF 4
ENDMDL
MODEL 2
REMARK VINA RESULT:      -8.2      0.870      1.915
REMARK  Name = 
REMARK  7 active torsions:
REMARK  status: ('A' for Active; 'I' for Inactive)
REMARK    1  A    between atoms: C_1  and  O_2
REMARK    2  A    between atoms: O_2  and  P_3
REMARK    3  A    between atoms: P_3  and  C_5
REMARK    4  A    between atoms: P_3  and  C_24
REMARK    5  A    between atoms: C_10  and  C_11
REMARK    6  A    between atoms: C_24  and  C_25
REMARK    7  A    between atoms: C_24  and  C_26
REMARK                            x       y       z     vdW  Elec       q    Type
REMARK                         _______ _______ _______ _____ _____    ______ ____
ROOT
ATOM      1  C   UNL     1       3.766   5.593  18.259  0.00  0.00    +0.000 A 
ATOM      2  C   UNL     1       3.820   6.675  17.360  0.00  0.00    +0.000 A 
ATOM      3  C   UNL     1       3.114   7.858  17.587  0.00  0.00    +0.000 A 
ATOM      4  C   UNL     1       2.373   7.893  18.759  0.00  0.00    +0.000 A 
ATOM      5  O   UNL     1       1.639   8.935  19.228  0.00  0.00    +0.000 OA
ATOM      6  C   UNL     1       1.134   8.480  20.420  0.00  0.00    +0.000 A 
ATOM      7  N   UNL     1       1.482   7.242  20.727  0.00  0.00    +0.000 NA
ATOM      8  C   UNL     1       2.275   6.859  19.670  0.00  0.00    +0.000 A 
ATOM      9  C   UNL     1       2.972   5.671  19.424  0.00  0.00    +0.000 A 
ENDROOT
BRANCH   6  10
ATOM     10  C   UNL     1       0.311   9.435  21.165  0.00  0.00    +0.000 A 
ATOM     11  C   UNL     1       0.094   9.251  22.534  0.00  0.00    +0.000 A 
ATOM     12  C   UNL     1      -0.672  10.168  23.260  0.00  0.00    +0.000 A 
ATOM     13  C   UNL     1      -1.238  11.287  22.632  0.00  0.00    +0.000 A 
ATOM     14  C   UNL     1      -2.002  12.224  23.348  0.00  0.00    +0.000 A 
ATOM     15  C   UNL     1      -2.555  13.333  22.702  0.00  0.00    +0.000 A 
ATOM     16  C   UNL     1      -2.357  13.519  21.339  0.00  0.00    +0.000 A 
ATOM     17  C   UNL     1      -1.598  12.598  20.616  0.00  0.00    +0.000 A 
ATOM     18  C   UNL     1      -1.033  11.479  21.249  0.00  0.00    +0.000 A 
ATOM     19  C   UNL     1      -0.259  10.549  20.534  0.00  0.00    +0.000 A 
ENDBRANCH   6  10
BRANCH   1  20
ATOM     20  P   UNL     1       4.875   4.223  18.021  0.00  0.00    +0.000 P 
ATOM     21  O   UNL     1       4.406   3.136  17.090  0.00  0.00    +0.000 OA
BRANCH  20  22
ATOM     22  C   UNL     1       6.415   5.010  17.425  0.00  0.00    +0.000 C 
ATOM     23  C   UNL     1       7.621   4.931  18.346  0.00  0.00    +0.000 C 
ATOM     24  C   UNL     1       6.767   4.464  16.041  0.00  0.00    +0.000 C 
ENDBRANCH  20  22
BRANCH  20  26
ATOM     25  C   UNL     1       4.544   2.521  19.964  0.00  0.00    +0.000 C 
ATOM     26  O   UNL     1       5.250   3.660  19.494  0.00  0.00    +0.000 OA
ENDBRANCH  20  26
ENDBRANCH   1  20
TORSDOF 4
ENDMDL
MODEL 3
REMARK VINA RESULT:      -7.9      3.152      9.420
REMARK  Name = 
REMARK  7 active torsions:
REMARK  status: ('A' for Active; 'I' for Inactive)
REMARK    1  A    between atoms: C_1  and  O_2
REMARK    2  A    between atoms: O_2  and  P_3
REMARK    3  A    between atoms: P_3  and  C_5
REMARK    4  A    between atoms: P_3  and  C_24
REMARK    5  A    between atoms: C_10  and  C_11
REMARK    6  A    between atoms: C_24  and  C_25
REMARK    7  A    between atoms: C_24  and  C_26
REMARK                            x       y       z     vdW  Elec       q    Type
REMARK                         _______ _______ _______ _____ _____    ______ ____
ROOT
ATOM      1  C   UNL     1      -0.539  11.379  21.906  0.00  0.00    +0.000 A 
ATOM      2  C   UNL     1      -0.620  10.386  22.900  0.00  0.00    +0.000 A 
ATOM      3  C   UNL     1      -0.079   9.111  22.715  0.00  0.00    +0.000 A 
ATOM      4  C   UNL     1       0.551   8.904  21.496  0.00  0.00    +0.000 A 
ATOM      5  O   UNL     1       1.189   7.776  21.091  0.00  0.00    +0.000 OA
ATOM      6  C   UNL     1       1.660   8.088  19.841  0.00  0.00    +0.000 A 
ATOM      7  N   UNL     1       1.360   9.308  19.430  0.00  0.00    +0.000 NA
ATOM      8  C   UNL     1       0.651   9.838  20.483  0.00  0.00    +0.000 A 
ATOM      9  C   UNL     1       0.089  11.105  20.672  0.00  0.00    +0.000 A 
ENDROOT
BRANCH   6  10
ATOM     10  C   UNL     1       2.428   7.036  19.172  0.00  0.00    +0.000 A 
ATOM     11  C   UNL     1       2.325   5.711  19.608  0.00  0.00    +0.000 A 
ATOM     12  C   UNL     1       3.036   4.695  18.964  0.00  0.00    +0.000 A 
ATOM     13  C   UNL     1       3.868   4.983  17.870  0.00  0.00    +0.000 A 
ATOM     14  C   UNL     1       4.582   3.972  17.205  0.00  0.00    +0.000 A 
ATOM     15  C   UNL     1       5.403   4.282  16.117  0.00  0.00    +0.000 A 
ATOM     16  C   UNL     1       5.524   5.597  15.684  0.00  0.00    +0.000 A 
ATOM     17  C   UNL     1       4.819   6.609  16.334  0.00  0.00    +0.000 A 
ATOM     18  C   UNL     1       3.987   6.317  17.427  0.00  0.00    +0.000 A 
ATOM     19  C   UNL     1       3.264   7.326  18.085  0.00  0.00    +0.000 A 
ENDBRANCH   6  10
BRANCH   1  20
ATOM     20  P   UNL     1      -1.038  13.038  22.309  0.00  0.00    +0.000 P 
ATOM     21  O   UNL     1       0.053  13.972  22.764  0.00  0.00    +0.000 OA
BRANCH  20  22
ATOM     22  C   UNL     1      -1.847  13.632  20.780  0.00  0.00    +0.000 C 
ATOM     23  C   UNL     1      -3.235  13.089  20.490  0.00  0.00    +0.000 C 
ATOM     24  C   UNL     1      -1.861  15.161  20.768  0.00  0.00    +0.000 C 
ENDBRANCH  20  22
BRANCH  20  26
ATOM     25  C   UNL     1      -2.548  14.068  24.164  0.00  0.00    +0.000 C 
ATOM     26  O   UNL     1      -2.242  12.919  23.387  0.00  0.00    +0.000 OA
ENDBRANCH  20  26
ENDBRANCH   1  20
TORSDOF 4
ENDMDL
MODEL 4
REMARK VINA RESULT:      -7.8      3.275      9.407
REMARK  Name = 
REMARK  7 active torsions:
REMARK  status: ('A' for Active; 'I' for Inactive)
REMARK    1  A    between atoms: C_1  and  O_2
REMARK    2  A    between atoms: O_2  and  P_3
REMARK    3  A    between atoms: P_3  and  C_5
REMARK    4  A    between atoms: P_3  and  C_24
REMARK    5  A    between atoms: C_10  and  C_11
REMARK    6  A    between atoms: C_24  and  C_25
REMARK    7  A    between atoms: C_24  and  C_26
REMARK                            x       y       z     vdW  Elec       q    Type
REMARK                         _______ _______ _______ _____ _____    ______ ____
ROOT
ATOM      1  C   UNL     1      -1.010  11.486  21.951  0.00  0.00    +0.000 A 
ATOM      2  C   UNL     1      -0.835  10.641  23.063  0.00  0.00    +0.000 A 
ATOM      3  C   UNL     1      -0.130   9.439  22.973  0.00  0.00    +0.000 A 
ATOM      4  C   UNL     1       0.392   9.149  21.721  0.00  0.00    +0.000 A 
ATOM      5  O   UNL     1       1.147   8.071  21.383  0.00  0.00    +0.000 OA
ATOM      6  C   UNL     1       1.432   8.265  20.055  0.00  0.00    +0.000 A 
ATOM      7  N   UNL     1       0.910   9.362  19.536  0.00  0.00    +0.000 NA
ATOM      8  C   UNL     1       0.243   9.935  20.594  0.00  0.00    +0.000 A 
ATOM      9  C   UNL     1      -0.480  11.128  20.692  0.00  0.00    +0.000 A 
ENDROOT
BRANCH   6  10
ATOM     10  C   UNL     1       2.276   7.242  19.433  0.00  0.00    +0.000 A 
ATOM     11  C   UNL     1       2.334   5.957  19.980  0.00  0.00    +0.000 A 
ATOM     12  C   UNL     1       3.119   4.966  19.382  0.00  0.00    +0.000 A 
ATOM     13  C   UNL     1       3.864   5.242  18.224  0.00  0.00    +0.000 A 
ATOM     14  C   UNL     1       4.649   4.256  17.605  0.00  0.00    +0.000 A 
ATOM     15  C   UNL     1       5.381   4.552  16.452  0.00  0.00    +0.000 A 
ATOM     16  C   UNL     1       5.341   5.830  15.907  0.00  0.00    +0.000 A 
ATOM     17  C   UNL     1       4.563   6.818  16.511  0.00  0.00    +0.000 A 
ATOM     18  C   UNL     1       3.819   6.538  17.668  0.00  0.00    +0.000 A 
ATOM     19  C   UNL     1       3.024   7.521  18.281  0.00  0.00    +0.000 A 
ENDBRANCH   6  10
BRANCH   1  20
ATOM     20  P   UNL     1      -1.708  13.103  22.203  0.00  0.00    +0.000 P 
ATOM     21  O   UNL     1      -1.989  13.909  20.963  0.00  0.00    +0.000 OA
BRANCH  20  22
ATOM     22  C   UNL     1      -3.232  12.774  23.159  0.00  0.00    +0.000 C 
ATOM     23  C   UNL     1      -3.475  13.652  24.374  0.00  0.00    +0.000 C 
ATOM     24  C   UNL     1      -4.442  12.812  22.225  0.00  0.00    +0.000 C 
ENDBRANCH  20  22
BRANCH  20  26
ATOM     25  C   UNL     1      -0.100  15.065  22.789  0.00  0.00    +0.000 C 
ATOM     26  O   UNL     1      -0.735  13.879  23.241  0.00  0.00    +0.000 OA
ENDBRANCH  20  26
ENDBRANCH   1  20
TORSDOF 4
ENDMDL
MODEL 5
REMARK VINA RESULT:      -7.8      3.084      9.325
REMARK  Name = 
REMARK  7 active torsions:
REMARK  status: ('A' for Active; 'I' for Inactive)
REMARK    1  A    between atoms: C_1  and  O_2
REMARK    2  A    between atoms: O_2  and  P_3
REMARK    3  A    between atoms: P_3  and  C_5
REMARK    4  A    between atoms: P_3  and  C_24
REMARK    5  A    between atoms: C_10  and  C_11
REMARK    6  A    between atoms: C_24  and  C_25
REMARK    7  A    between atoms: C_24  and  C_26
REMARK                            x       y       z     vdW  Elec       q    Type
REMARK                         _______ _______ _______ _____ _____    ______ ____
ROOT
ATOM      1  C   UNL     1      -0.394  11.459  21.351  0.00  0.00    +0.000 A 
ATOM      2  C   UNL     1      -0.369  10.556  22.430  0.00  0.00    +0.000 A 
ATOM      3  C   UNL     1       0.217   9.292  22.321  0.00  0.00    +0.000 A 
ATOM      4  C   UNL     1       0.780   9.003  21.087  0.00  0.00    +0.000 A 
ATOM      5  O   UNL     1       1.442   7.869  20.739  0.00  0.00    +0.000 OA
ATOM      6  C   UNL     1       1.821   8.087  19.439  0.00  0.00    +0.000 A 
ATOM      7  N   UNL     1       1.442   9.253  18.945  0.00  0.00    +0.000 NA
ATOM      8  C   UNL     1       0.775   9.846  19.992  0.00  0.00    +0.000 A 
ATOM      9  C   UNL     1       0.170  11.102  20.107  0.00  0.00    +0.000 A 
ENDROOT
BRANCH   6  10
ATOM     10  C   UNL     1       2.594   7.011  18.815  0.00  0.00    +0.000 A 
ATOM     11  C   UNL     1       2.454   5.696  19.270  0.00  0.00    +0.000 A 
ATOM     12  C   UNL     1       3.169   4.657  18.668  0.00  0.00    +0.000 A 
ATOM     13  C   UNL     1       4.042   4.912  17.599  0.00  0.00    +0.000 A 
ATOM     14  C   UNL     1       4.761   3.878  16.975  0.00  0.00    +0.000 A 
ATOM     15  C   UNL     1       5.623   4.154  15.911  0.00  0.00    +0.000 A 
ATOM     16  C   UNL     1       5.780   5.460  15.459  0.00  0.00    +0.000 A 
ATOM     17  C   UNL     1       5.070   6.495  16.067  0.00  0.00    +0.000 A 
ATOM     18  C   UNL     1       4.198   6.236  17.137  0.00  0.00    +0.000 A 
ATOM     19  C   UNL     1       3.470   7.268  17.752  0.00  0.00    +0.000 A 
ENDBRANCH   6  10
BRANCH   1  20
ATOM     20  P   UNL     1      -0.941  13.127  21.641  0.00  0.00    +0.000 P 
ATOM     21  O   UNL     1      -0.158  14.215  20.956  0.00  0.00    +0.000 OA
BRANCH  20  22
ATOM     22  C   UNL     1      -2.691  13.109  21.108  0.00  0.00    +0.000 C 
ATOM     23  C   UNL     1      -2.999  12.381  19.811  0.00  0.00    +0.000 C 
ATOM     24  C   UNL     1      -3.566  12.570  22.240  0.00  0.00    +0.000 C 
ENDBRANCH  20  22
BRANCH  20  26
ATOM     25  C   UNL     1      -0.968  14.656  23.749  0.00  0.00    +0.000 C 
ATOM     26  O   UNL     1      -1.007  13.327  23.248  0.00  0.00    +0.000 OA
ENDBRANCH  20  26
ENDBRANCH   1  20
TORSDOF 4
ENDMDL
MODEL 6
REMARK VINA RESULT:      -7.8      0.765      1.603
REMARK  Name = 
REMARK  7 active torsions:
REMARK  status: ('A' for Active; 'I' for Inactive)
REMARK    1  A    between atoms: C_1  and  O_2
REMARK    2  A    between atoms: O_2  and  P_3
REMARK    3  A    between atoms: P_3  and  C_5
REMARK    4  A    between atoms: P_3  and  C_24
REMARK    5  A    between atoms: C_10  and  C_11
REMARK    6  A    between atoms: C_24  and  C_25
REMARK    7  A    between atoms: C_24  and  C_26
REMARK                            x       y       z     vdW  Elec       q    Type
REMARK                         _______ _______ _______ _____ _____    ______ ____
ROOT
ATOM      1  C   UNL     1       4.052   5.774  18.501  0.00  0.00    +0.000 A 
ATOM      2  C   UNL     1       4.137   6.569  17.343  0.00  0.00    +0.000 A 
ATOM      3  C   UNL     1       3.368   7.724  17.182  0.00  0.00    +0.000 A 
ATOM      4  C   UNL     1       2.532   8.033  18.245  0.00  0.00    +0.000 A 
ATOM      5  O   UNL     1       1.720   9.117  18.354  0.00  0.00    +0.000 OA
ATOM      6  C   UNL     1       1.138   8.976  19.588  0.00  0.00    +0.000 A 
ATOM      7  N   UNL     1       1.508   7.894  20.250  0.00  0.00    +0.000 NA
ATOM      8  C   UNL     1       2.400   7.285  19.399  0.00  0.00    +0.000 A 
ATOM      9  C   UNL     1       3.162   6.120  19.541  0.00  0.00    +0.000 A 
ENDROOT
BRANCH   6  10
ATOM     10  C   UNL     1       0.218  10.047  19.980  0.00  0.00    +0.000 A 
ATOM     11  C   UNL     1      -0.307  10.907  19.011  0.00  0.00    +0.000 A 
ATOM     12  C   UNL     1      -1.202  11.918  19.370  0.00  0.00    +0.000 A 
ATOM     13  C   UNL     1      -1.590  12.092  20.707  0.00  0.00    +0.000 A 
ATOM     14  C   UNL     1      -2.497  13.097  21.084  0.00  0.00    +0.000 A 
ATOM     15  C   UNL     1      -2.871  13.251  22.422  0.00  0.00    +0.000 A 
ATOM     16  C   UNL     1      -2.345  12.410  23.396  0.00  0.00    +0.000 A 
ATOM     17  C   UNL     1      -1.446  11.407  23.035  0.00  0.00    +0.000 A 
ATOM     18  C   UNL     1      -1.060  11.236  21.696  0.00  0.00    +0.000 A 
ATOM     19  C   UNL     1      -0.163  10.223  21.317  0.00  0.00    +0.000 A 
ENDBRANCH   6  10
BRANCH   1  20
ATOM     20  P   UNL     1       5.232   4.462  18.730  0.00  0.00    +0.000 P 
ATOM     21  O   UNL     1       6.152   4.591  19.915  0.00  0.00    +0.000 OA
BRANCH  20  22
ATOM     22  C   UNL     1       4.195   2.959  18.836  0.00  0.00    +0.000 C 
ATOM     23  C   UNL     1       3.530   2.684  20.174  0.00  0.00    +0.000 C 
ATOM     24  C   UNL     1       3.151   2.976  17.719  0.00  0.00    +0.000 C 
ENDBRANCH  20  22
BRANCH  20  26
ATOM     25  C   UNL     1       7.422   4.615  17.330  0.00  0.00    +0.000 C 
ATOM     26  O   UNL     1       6.036   4.304  17.332  0.00  0.00    +0.000 OA
ENDBRANCH  20  26
ENDBRANCH   1  20
TORSDOF 4
ENDMDL
MODEL 7
REMARK VINA RESULT:      -7.8      2.968      9.366
REMARK  Name = 
REMARK  7 active torsions:
REMARK  status: ('A' for Active; 'I' for Inactive)
REMARK    1  A    between atoms: C_1  and  O_2
REMARK    2  A    between atoms: O_2  and  P_3
REMARK    3  A    between atoms: P_3  and  C_5
REMARK    4  A    between atoms: P_3  and  C_24
REMARK    5  A    between atoms: C_10  and  C_11
REMARK    6  A    between atoms: C_24  and  C_25
REMARK    7  A    between atoms: C_24  and  C_26
REMARK                            x       y       z     vdW  Elec       q    Type
REMARK                         _______ _______ _______ _____ _____    ______ ____
ROOT
ATOM      1  C   UNL     1      -0.043  11.156  20.864  0.00  0.00    +0.000 A 
ATOM      2  C   UNL     1       0.120  10.305  21.973  0.00  0.00    +0.000 A 
ATOM      3  C   UNL     1       0.743   9.060  21.863  0.00  0.00    +0.000 A 
ATOM      4  C   UNL     1       1.198   8.734  20.594  0.00  0.00    +0.000 A 
ATOM      5  O   UNL     1       1.870   7.609  20.234  0.00  0.00    +0.000 OA
ATOM      6  C   UNL     1       2.116   7.780  18.896  0.00  0.00    +0.000 A 
ATOM      7  N   UNL     1       1.645   8.907  18.390  0.00  0.00    +0.000 NA
ATOM      8  C   UNL     1       1.057   9.524  19.469  0.00  0.00    +0.000 A 
ATOM      9  C   UNL     1       0.415  10.761  19.588  0.00  0.00    +0.000 A 
ENDROOT
BRANCH   6  10
ATOM     10  C   UNL     1       2.869   6.704  18.247  0.00  0.00    +0.000 A 
ATOM     11  C   UNL     1       2.462   5.376  18.402  0.00  0.00    +0.000 A 
ATOM     12  C   UNL     1       3.159   4.342  17.770  0.00  0.00    +0.000 A 
ATOM     13  C   UNL     1       4.281   4.615  16.972  0.00  0.00    +0.000 A 
ATOM     14  C   UNL     1       4.988   3.590  16.322  0.00  0.00    +0.000 A 
ATOM     15  C   UNL     1       6.100   3.886  15.530  0.00  0.00    +0.000 A 
ATOM     16  C   UNL     1       6.522   5.202  15.380  0.00  0.00    +0.000 A 
ATOM     17  C   UNL     1       5.827   6.230  16.018  0.00  0.00    +0.000 A 
ATOM     18  C   UNL     1       4.706   5.952  16.816  0.00  0.00    +0.000 A 
ATOM     19  C   UNL     1       3.992   6.979  17.456  0.00  0.00    +0.000 A 
ENDBRANCH   6  10
BRANCH   1  20
ATOM     20  P   UNL     1      -0.627  12.815  21.133  0.00  0.00    +0.000 P 
ATOM     21  O   UNL     1      -0.830  13.659  19.903  0.00  0.00    +0.000 OA
BRANCH  20  22
ATOM     22  C   UNL     1      -2.185  12.581  22.062  0.00  0.00    +0.000 C 
ATOM     23  C   UNL     1      -2.274  13.255  23.421  0.00  0.00    +0.000 C 
ATOM     24  C   UNL     1      -3.370  12.991  21.187  0.00  0.00    +0.000 C 
ENDBRANCH  20  22
BRANCH  20  26
ATOM     25  C   UNL     1       0.820  14.827  21.932  0.00  0.00    +0.000 C 
ATOM     26  O   UNL     1       0.383  13.502  22.198  0.00  0.00    +0.000 OA
ENDBRANCH  20  26
ENDBRANCH   1  20
TORSDOF 4
ENDMDL
MODEL 8
REMARK VINA RESULT:      -7.7      1.593      2.353
REMARK  Name = 
REMARK  7 active torsions:
REMARK  status: ('A' for Active; 'I' for Inactive)
REMARK    1  A    between atoms: C_1  and  O_2
REMARK    2  A    between atoms: O_2  and  P_3
REMARK    3  A    between atoms: P_3  and  C_5
REMARK    4  A    between atoms: P_3  and  C_24
REMARK    5  A    between atoms: C_10  and  C_11
REMARK    6  A    between atoms: C_24  and  C_25
REMARK    7  A    between atoms: C_24  and  C_26
REMARK                            x       y       z     vdW  Elec       q    Type
REMARK                         _______ _______ _______ _____ _____    ______ ____
ROOT
ATOM      1  C   UNL     1       2.547   7.014  18.945  0.00  0.00    +0.000 A 
ATOM      2  C   UNL     1       2.342   7.862  17.841  0.00  0.00    +0.000 A 
ATOM      3  C   UNL     1       1.670   9.080  17.960  0.00  0.00    +0.000 A 
ATOM      4  C   UNL     1       1.236   9.396  19.240  0.00  0.00    +0.000 A 
ATOM      5  O   UNL     1       0.599  10.532  19.627  0.00  0.00    +0.000 OA
ATOM      6  C   UNL     1       0.417  10.370  20.976  0.00  0.00    +0.000 A 
ATOM      7  N   UNL     1       0.873   9.227  21.460  0.00  0.00    +0.000 NA
ATOM      8  C   UNL     1       1.399   8.597  20.356  0.00  0.00    +0.000 A 
ATOM      9  C   UNL     1       2.058   7.371  20.220  0.00  0.00    +0.000 A 
ENDROOT
BRANCH   6  10
ATOM     10  C   UNL     1      -0.235  11.486  21.666  0.00  0.00    +0.000 A 
ATOM     11  C   UNL     1       0.300  12.774  21.570  0.00  0.00    +0.000 A 
ATOM     12  C   UNL     1      -0.325  13.851  22.205  0.00  0.00    +0.000 A 
ATOM     13  C   UNL     1      -1.499  13.661  22.952  0.00  0.00    +0.000 A 
ATOM     14  C   UNL     1      -2.146  14.733  23.589  0.00  0.00    +0.000 A 
ATOM     15  C   UNL     1      -3.314  14.522  24.325  0.00  0.00    +0.000 A 
ATOM     16  C   UNL     1      -3.847  13.243  24.438  0.00  0.00    +0.000 A 
ATOM     17  C   UNL     1      -3.216  12.170  23.809  0.00  0.00    +0.000 A 
ATOM     18  C   UNL     1      -2.043  12.364  23.063  0.00  0.00    +0.000 A 
ATOM     19  C   UNL     1      -1.403  11.293  22.417  0.00  0.00    +0.000 A 
ENDBRANCH   6  10
BRANCH   1  20
ATOM     20  P   UNL     1       3.615   5.603  18.757  0.00  0.00    +0.000 P 
ATOM     21  O   UNL     1       4.702   5.447  19.787  0.00  0.00    +0.000 OA
BRANCH  20  22
ATOM     22  C   UNL     1       2.463   4.182  18.765  0.00  0.00    +0.000 C 
ATOM     23  C   UNL     1       1.738   3.901  20.070  0.00  0.00    +0.000 C 
ATOM     24  C   UNL     1       1.459   4.330  17.621  0.00  0.00    +0.000 C 
ENDBRANCH  20  22
BRANCH  20  26
ATOM     25  C   UNL     1       5.468   6.245  17.044  0.00  0.00    +0.000 C 
ATOM     26  O   UNL     1       4.194   5.649  17.245  0.00  0.00    +0.000 OA
ENDBRANCH  20  26
ENDBRANCH   1  20
TORSDOF 4
ENDMDL
MODEL 9
REMARK VINA RESULT:      -7.7      1.085      1.085
REMARK  Name = 
REMARK  7 active torsions:
REMARK  status: ('A' for Active; 'I' for Inactive)
REMARK    1  A    between atoms: C_1  and  O_2
REMARK    2  A    between atoms: O_2  and  P_3
REMARK    3  A    between atoms: P_3  and  C_5
REMARK    4  A    between atoms: P_3  and  C_24
REMARK    5  A    between atoms: C_10  and  C_11
REMARK    6  A    between atoms: C_24  and  C_25
REMARK    7  A    between atoms: C_24  and  C_26
REMARK                            x       y       z     vdW  Elec       q    Type
REMARK                         _______ _______ _______ _____ _____    ______ ____
ROOT
ATOM      1  C   UNL     1       3.308   5.938  18.611  0.00  0.00    +0.000 A 
ATOM      2  C   UNL     1       3.246   6.889  17.576  0.00  0.00    +0.000 A 
ATOM      3  C   UNL     1       2.584   8.108  17.732  0.00  0.00    +0.000 A 
ATOM      4  C   UNL     1       2.009   8.317  18.978  0.00  0.00    +0.000 A 
ATOM      5  O   UNL     1       1.350   9.429  19.395  0.00  0.00    +0.000 OA
ATOM      6  C   UNL     1       1.010   9.149  20.694  0.00  0.00    +0.000 A 
ATOM      7  N   UNL     1       1.389   7.955  21.116  0.00  0.00    +0.000 NA
ATOM      8  C   UNL     1       2.029   7.416  20.025  0.00  0.00    +0.000 A 
ATOM      9  C   UNL     1       2.680   6.190  19.851  0.00  0.00    +0.000 A 
ENDROOT
BRANCH   6  10
ATOM     10  C   UNL     1       0.300  10.214  21.406  0.00  0.00    +0.000 A 
ATOM     11  C   UNL     1      -0.600   9.893  22.426  0.00  0.00    +0.000 A 
ATOM     12  C   UNL     1      -1.267  10.902  23.128  0.00  0.00    +0.000 A 
ATOM     13  C   UNL     1      -1.047  12.254  22.823  0.00  0.00    +0.000 A 
ATOM     14  C   UNL     1      -1.701  13.281  23.524  0.00  0.00    +0.000 A 
ATOM     15  C   UNL     1      -1.465  14.621  23.205  0.00  0.00    +0.000 A 
ATOM     16  C   UNL     1      -0.581  14.951  22.184  0.00  0.00    +0.000 A 
ATOM     17  C   UNL     1       0.076  13.942  21.481  0.00  0.00    +0.000 A 
ATOM     18  C   UNL     1      -0.147  12.590  21.789  0.00  0.00    +0.000 A 
ATOM     19  C   UNL     1       0.516  11.564  21.095  0.00  0.00    +0.000 A 
ENDBRANCH   6  10
BRANCH   1  20
ATOM     20  P   UNL     1       4.367   4.522  18.415  0.00  0.00    +0.000 P 
ATOM     21  O   UNL     1       5.537   4.427  19.359  0.00  0.00    +0.000 OA
BRANCH  20  22
ATOM     22  C   UNL     1       3.231   3.100  18.595  0.00  0.00    +0.000 C 
ATOM     23  C   UNL     1       2.993   2.595  20.008  0.00  0.00    +0.000 C 
ATOM     24  C   UNL     1       1.900   3.418  17.913  0.00  0.00    +0.000 C 
ENDBRANCH  20  22
BRANCH  20  26
ATOM     25  C   UNL     1       6.210   4.562  16.575  0.00  0.00    +0.000 C 
ATOM     26  O   UNL     1       4.820   4.486  16.859  0.00  0.00    +0.000 OA
ENDBRANCH  20  26
ENDBRANCH   1  20
TORSDOF 4
ENDMDL
