MODEL 1
REMARK VINA RESULT:      -7.2      0.000      0.000
REMARK  Name = 
REMARK  7 active torsions:
REMARK  status: ('A' for Active; 'I' for Inactive)
REMARK    1  A    between atoms: C_1  and  C_2
REMARK    2  A    between atoms: C_3  and  C_4
REMARK    3  A    between atoms: C_4  and  N_5
REMARK    4  A    between atoms: C_6  and  C_8
REMARK    5  A    between atoms: C_9  and  N_10
REMARK    6  A    between atoms: N_15  and  C_16
REMARK    7  A    between atoms: N_19  and  C_20
REMARK                            x       y       z     vdW  Elec       q    Type
REMARK                         _______ _______ _______ _____ _____    ______ ____
ROOT
ATOM      1  N   UNL     1       4.432   4.993  19.309  0.00  0.00    +0.000 N 
ATOM      2  C   UNL     1       4.186   3.642  19.436  0.00  0.00    +0.000 C 
ATOM      3  O   UNL     1       5.101   2.846  19.628  0.00  0.00    +0.000 OA
ATOM      4  H   UNL     1       3.712   5.579  18.905  0.00  0.00    +0.000 HD
ENDROOT
BRANCH   2   5
ATOM      5  C   UNL     1       2.797   3.197  19.366  0.00  0.00    +0.000 A 
ATOM      6  C   UNL     1       1.884   2.718  20.310  0.00  0.00    +0.000 A 
ATOM      7  C   UNL     1       0.687   2.479  19.612  0.00  0.00    +0.000 A 
ATOM      8  N   UNL     1       0.786   2.785  18.325  0.00  0.00    +0.000 NA
ATOM      9  N   UNL     1       2.054   3.225  18.191  0.00  0.00    +0.000 N 
ATOM     10  C   UNL     1       2.465   3.618  16.857  0.00  0.00    +0.000 C 
BRANCH   6  11
ATOM     11  N   UNL     1       2.024   2.514  21.719  0.00  0.00    +0.000 N 
ATOM     12  O   UNL     1       1.031   2.667  22.429  0.00  0.00    +0.000 OA
ATOM     13  O   UNL     1       3.149   2.200  22.127  0.00  0.00    +0.000 OA
ENDBRANCH   6  11
ENDBRANCH   2   5
BRANCH   1  14
ATOM     14  C   UNL     1       5.769   5.561  19.294  0.00  0.00    +0.000 C 
BRANCH  14  17
ATOM     15  C   UNL     1       4.946   6.344  16.151  0.00  0.00    +0.000 C 
ATOM     16  C   UNL     1       6.101   5.590  16.697  0.00  0.00    +0.000 A 
ATOM     17  C   UNL     1       6.463   5.267  18.001  0.00  0.00    +0.000 A 
ATOM     18  C   UNL     1       7.620   4.465  17.835  0.00  0.00    +0.000 A 
ATOM     19  N   UNL     1       7.978   4.319  16.561  0.00  0.00    +0.000 NA
ATOM     20  N   UNL     1       7.054   5.021  15.883  0.00  0.00    +0.000 N 
ATOM     21  C   UNL     1       7.130   5.082  14.440  0.00  0.00    +0.000 C 
ENDBRANCH  14  17
ENDBRANCH   1  14
TORSDOF 4
ENDMDL
MODEL 2
REMARK VINA RESULT:      -6.9      2.819      3.828
REMARK  Name = 
REMARK  7 active torsions:
REMARK  status: ('A' for Active; 'I' for Inactive)
REMARK    1  A    between atoms: C_1  and  C_2
REMARK    2  A    between atoms: C_3  and  C_4
REMARK    3  A    between atoms: C_4  and  N_5
REMARK    4  A    between atoms: C_6  and  C_8
REMARK    5  A    between atoms: C_9  and  N_10
REMARK    6  A    between atoms: N_15  and  C_16
REMARK    7  A    between atoms: N_19  and  C_20
REMARK                            x       y       z     vdW  Elec       q    Type
REMARK                         _______ _______ _______ _____ _____    ______ ____
ROOT
ATOM      1  N   UNL     1       4.363   3.948  17.223  0.00  0.00    +0.000 N 
ATOM      2  C   UNL     1       3.020   3.945  17.537  0.00  0.00    +0.000 C 
ATOM      3  O   UNL     1       2.223   3.259  16.902  0.00  0.00    +0.000 OA
ATOM      4  H   UNL     1       4.942   4.697  17.584  0.00  0.00    +0.000 HD
ENDROOT
BRANCH   2   5
ATOM      5  C   UNL     1       2.587   4.759  18.668  0.00  0.00    +0.000 A 
ATOM      6  C   UNL     1       2.569   6.134  18.922  0.00  0.00    +0.000 A 
ATOM      7  C   UNL     1       2.006   6.290  20.201  0.00  0.00    +0.000 A 
ATOM      8  N   UNL     1       1.664   5.128  20.744  0.00  0.00    +0.000 NA
ATOM      9  N   UNL     1       2.009   4.217  19.811  0.00  0.00    +0.000 N 
ATOM     10  C   UNL     1       1.767   2.827  20.144  0.00  0.00    +0.000 C 
BRANCH   6  11
ATOM     11  N   UNL     1       2.978   7.236  18.106  0.00  0.00    +0.000 N 
ATOM     12  O   UNL     1       2.230   8.210  18.030  0.00  0.00    +0.000 OA
ATOM     13  O   UNL     1       4.064   7.125  17.524  0.00  0.00    +0.000 OA
ENDBRANCH   6  11
ENDBRANCH   2   5
BRANCH   1  14
ATOM     14  C   UNL     1       4.917   3.237  16.084  0.00  0.00    +0.000 C 
BRANCH  14  17
ATOM     15  C   UNL     1       5.694   3.370  12.837  0.00  0.00    +0.000 C 
ATOM     16  C   UNL     1       6.232   4.119  14.000  0.00  0.00    +0.000 A 
ATOM     17  C   UNL     1       5.912   4.083  15.353  0.00  0.00    +0.000 A 
ATOM     18  C   UNL     1       6.846   4.973  15.939  0.00  0.00    +0.000 A 
ATOM     19  N   UNL     1       7.656   5.543  15.049  0.00  0.00    +0.000 NA
ATOM     20  N   UNL     1       7.260   5.025  13.874  0.00  0.00    +0.000 N 
ATOM     21  C   UNL     1       7.937   5.427  12.661  0.00  0.00    +0.000 C 
ENDBRANCH  14  17
ENDBRANCH   1  14
TORSDOF 4
ENDMDL
MODEL 3
REMARK VINA RESULT:      -6.8      1.961      2.736
REMARK  Name = 
REMARK  7 active torsions:
REMARK  status: ('A' for Active; 'I' for Inactive)
REMARK    1  A    between atoms: C_1  and  C_2
REMARK    2  A    between atoms: C_3  and  C_4
REMARK    3  A    between atoms: C_4  and  N_5
REMARK    4  A    between atoms: C_6  and  C_8
REMARK    5  A    between atoms: C_9  and  N_10
REMARK    6  A    between atoms: N_15  and  C_16
REMARK    7  A    between atoms: N_19  and  C_20
REMARK                            x       y       z     vdW  Elec       q    Type
REMARK                         _______ _______ _______ _____ _____    ______ ____
ROOT
ATOM      1  N   UNL     1       4.138   4.025  17.065  0.00  0.00    +0.000 N 
ATOM      2  C   UNL     1       4.272   4.053  18.438  0.00  0.00    +0.000 C 
ATOM      3  O   UNL     1       5.189   3.459  18.997  0.00  0.00    +0.000 OA
ATOM      4  H   UNL     1       3.251   4.300  16.661  0.00  0.00    +0.000 HD
ENDROOT
BRANCH   2   5
ATOM      5  C   UNL     1       3.304   4.840  19.196  0.00  0.00    +0.000 A 
ATOM      6  C   UNL     1       2.430   4.550  20.248  0.00  0.00    +0.000 A 
ATOM      7  C   UNL     1       1.769   5.753  20.553  0.00  0.00    +0.000 A 
ATOM      8  N   UNL     1       2.177   6.758  19.788  0.00  0.00    +0.000 NA
ATOM      9  N   UNL     1       3.105   6.200  18.984  0.00  0.00    +0.000 N 
ATOM     10  C   UNL     1       3.722   7.075  18.006  0.00  0.00    +0.000 C 
BRANCH   6  11
ATOM     11  N   UNL     1       2.206   3.329  20.960  0.00  0.00    +0.000 N 
ATOM     12  O   UNL     1       1.923   2.323  20.311  0.00  0.00    +0.000 OA
ATOM     13  O   UNL     1       2.309   3.377  22.192  0.00  0.00    +0.000 OA
ENDBRANCH   6  11
ENDBRANCH   2   5
BRANCH   1  14
ATOM     14  C   UNL     1       4.990   3.230  16.197  0.00  0.00    +0.000 C 
BRANCH  14  17
ATOM     15  C   UNL     1       5.744   3.343  12.944  0.00  0.00    +0.000 C 
ATOM     16  C   UNL     1       6.264   4.124  14.093  0.00  0.00    +0.000 A 
ATOM     17  C   UNL     1       5.952   4.097  15.449  0.00  0.00    +0.000 A 
ATOM     18  C   UNL     1       6.860   5.025  16.017  0.00  0.00    +0.000 A 
ATOM     19  N   UNL     1       7.647   5.609  15.114  0.00  0.00    +0.000 NA
ATOM     20  N   UNL     1       7.261   5.062  13.949  0.00  0.00    +0.000 N 
ATOM     21  C   UNL     1       7.918   5.468  12.726  0.00  0.00    +0.000 C 
ENDBRANCH  14  17
ENDBRANCH   1  14
TORSDOF 4
ENDMDL
MODEL 4
REMARK VINA RESULT:      -6.8      2.213      5.923
REMARK  Name = 
REMARK  7 active torsions:
REMARK  status: ('A' for Active; 'I' for Inactive)
REMARK    1  A    between atoms: C_1  and  C_2
REMARK    2  A    between atoms: C_3  and  C_4
REMARK    3  A    between atoms: C_4  and  N_5
REMARK    4  A    between atoms: C_6  and  C_8
REMARK    5  A    between atoms: C_9  and  N_10
REMARK    6  A    between atoms: N_15  and  C_16
REMARK    7  A    between atoms: N_19  and  C_20
REMARK                            x       y       z     vdW  Elec       q    Type
REMARK                         _______ _______ _______ _____ _____    ______ ____
ROOT
ATOM      1  N   UNL     1       3.328   5.126  17.516  0.00  0.00    +0.000 N 
ATOM      2  C   UNL     1       4.198   4.166  17.041  0.00  0.00    +0.000 C 
ATOM      3  O   UNL     1       3.783   3.092  16.613  0.00  0.00    +0.000 OA
ATOM      4  H   UNL     1       3.701   5.876  18.085  0.00  0.00    +0.000 HD
ENDROOT
BRANCH   2   5
ATOM      5  C   UNL     1       5.622   4.485  17.037  0.00  0.00    +0.000 A 
ATOM      6  C   UNL     1       6.516   4.942  18.009  0.00  0.00    +0.000 A 
ATOM      7  C   UNL     1       7.769   5.036  17.378  0.00  0.00    +0.000 A 
ATOM      8  N   UNL     1       7.721   4.661  16.107  0.00  0.00    +0.000 NA
ATOM      9  N   UNL     1       6.429   4.323  15.915  0.00  0.00    +0.000 N 
ATOM     10  C   UNL     1       6.066   3.885  14.582  0.00  0.00    +0.000 C 
BRANCH   6  11
ATOM     11  N   UNL     1       6.310   5.244  19.393  0.00  0.00    +0.000 N 
ATOM     12  O   UNL     1       5.154   5.374  19.792  0.00  0.00    +0.000 OA
ATOM     13  O   UNL     1       7.323   5.358  20.094  0.00  0.00    +0.000 OA
ENDBRANCH   6  11
ENDBRANCH   2   5
BRANCH   1  14
ATOM     14  C   UNL     1       1.896   4.914  17.637  0.00  0.00    +0.000 C 
BRANCH  14  17
ATOM     15  C   UNL     1       2.008   5.283  20.956  0.00  0.00    +0.000 C 
ATOM     16  C   UNL     1       1.650   4.113  20.116  0.00  0.00    +0.000 A 
ATOM     17  C   UNL     1       1.587   3.948  18.736  0.00  0.00    +0.000 A 
ATOM     18  C   UNL     1       1.267   2.576  18.581  0.00  0.00    +0.000 A 
ATOM     19  N   UNL     1       1.108   1.940  19.740  0.00  0.00    +0.000 NA
ATOM     20  N   UNL     1       1.329   2.891  20.663  0.00  0.00    +0.000 N 
ATOM     21  C   UNL     1       1.242   2.549  22.066  0.00  0.00    +0.000 C 
ENDBRANCH  14  17
ENDBRANCH   1  14
TORSDOF 4
ENDMDL
MODEL 5
REMARK VINA RESULT:      -6.7      1.900      2.326
REMARK  Name = 
REMARK  7 active torsions:
REMARK  status: ('A' for Active; 'I' for Inactive)
REMARK    1  A    between atoms: C_1  and  C_2
REMARK    2  A    between atoms: C_3  and  C_4
REMARK    3  A    between atoms: C_4  and  N_5
REMARK    4  A    between atoms: C_6  and  C_8
REMARK    5  A    between atoms: C_9  and  N_10
REMARK    6  A    between atoms: N_15  and  C_16
REMARK    7  A    between atoms: N_19  and  C_20
REMARK                            x       y       z     vdW  Elec       q    Type
REMARK                         _______ _______ _______ _____ _____    ______ ____
ROOT
ATOM      1  N   UNL     1       5.097   5.347  19.395  0.00  0.00    +0.000 N 
ATOM      2  C   UNL     1       3.795   5.042  19.052  0.00  0.00    +0.000 C 
ATOM      3  O   UNL     1       3.285   5.503  18.035  0.00  0.00    +0.000 OA
ATOM      4  H   UNL     1       5.400   5.167  20.344  0.00  0.00    +0.000 HD
ENDROOT
BRANCH   2   5
ATOM      5  C   UNL     1       3.061   4.130  19.923  0.00  0.00    +0.000 A 
ATOM      6  C   UNL     1       3.169   2.767  20.210  0.00  0.00    +0.000 A 
ATOM      7  C   UNL     1       2.170   2.484  21.159  0.00  0.00    +0.000 A 
ATOM      8  N   UNL     1       1.470   3.563  21.487  0.00  0.00    +0.000 NA
ATOM      9  N   UNL     1       2.020   4.547  20.746  0.00  0.00    +0.000 N 
ATOM     10  C   UNL     1       1.432   5.865  20.883  0.00  0.00    +0.000 C 
BRANCH   6  11
ATOM     11  N   UNL     1       4.091   1.785  19.727  0.00  0.00    +0.000 N 
ATOM     12  O   UNL     1       3.819   1.201  18.678  0.00  0.00    +0.000 OA
ATOM     13  O   UNL     1       5.104   1.589  20.409  0.00  0.00    +0.000 OA
ENDBRANCH   6  11
ENDBRANCH   2   5
BRANCH   1  14
ATOM     14  C   UNL     1       5.917   6.289  18.654  0.00  0.00    +0.000 C 
BRANCH  14  17
ATOM     15  C   UNL     1       5.145   6.573  15.415  0.00  0.00    +0.000 C 
ATOM     16  C   UNL     1       6.180   5.763  16.103  0.00  0.00    +0.000 A 
ATOM     17  C   UNL     1       6.521   5.643  17.447  0.00  0.00    +0.000 A 
ATOM     18  C   UNL     1       7.530   4.649  17.446  0.00  0.00    +0.000 A 
ATOM     19  N   UNL     1       7.827   4.204  16.226  0.00  0.00    +0.000 NA
ATOM     20  N   UNL     1       7.009   4.902  15.420  0.00  0.00    +0.000 N 
ATOM     21  C   UNL     1       7.055   4.670  13.993  0.00  0.00    +0.000 C 
ENDBRANCH  14  17
ENDBRANCH   1  14
TORSDOF 4
ENDMDL
MODEL 6
REMARK VINA RESULT:      -6.6      4.618      6.168
REMARK  Name = 
REMARK  7 active torsions:
REMARK  status: ('A' for Active; 'I' for Inactive)
REMARK    1  A    between atoms: C_1  and  C_2
REMARK    2  A    between atoms: C_3  and  C_4
REMARK    3  A    between atoms: C_4  and  N_5
REMARK    4  A    between atoms: C_6  and  C_8
REMARK    5  A    between atoms: C_9  and  N_10
REMARK    6  A    between atoms: N_15  and  C_16
REMARK    7  A    between atoms: N_19  and  C_20
REMARK                            x       y       z     vdW  Elec       q    Type
REMARK                         _______ _______ _______ _____ _____    ______ ____
ROOT
ATOM      1  N   UNL     1       2.520   6.845  19.870  0.00  0.00    +0.000 N 
ATOM      2  C   UNL     1       2.594   5.746  19.038  0.00  0.00    +0.000 C 
ATOM      3  O   UNL     1       2.167   5.792  17.889  0.00  0.00    +0.000 OA
ATOM      4  H   UNL     1       2.640   6.706  20.865  0.00  0.00    +0.000 HD
ENDROOT
BRANCH   2   5
ATOM      5  C   UNL     1       3.226   4.540  19.565  0.00  0.00    +0.000 A 
ATOM      6  C   UNL     1       2.781   3.481  20.362  0.00  0.00    +0.000 A 
ATOM      7  C   UNL     1       3.875   2.610  20.504  0.00  0.00    +0.000 A 
ATOM      8  N   UNL     1       4.947   3.039  19.850  0.00  0.00    +0.000 NA
ATOM      9  N   UNL     1       4.543   4.194  19.282  0.00  0.00    +0.000 N 
ATOM     10  C   UNL     1       5.533   4.913  18.505  0.00  0.00    +0.000 C 
BRANCH   6  11
ATOM     11  N   UNL     1       1.493   3.223  20.930  0.00  0.00    +0.000 N 
ATOM     12  O   UNL     1       0.498   3.534  20.277  0.00  0.00    +0.000 OA
ATOM     13  O   UNL     1       1.475   2.705  22.054  0.00  0.00    +0.000 OA
ENDBRANCH   6  11
ENDBRANCH   2   5
BRANCH   1  14
ATOM     14  C   UNL     1       1.859   8.084  19.496  0.00  0.00    +0.000 C 
BRANCH  14  17
ATOM     15  C   UNL     1      -0.696  10.227  19.700  0.00  0.00    +0.000 C 
ATOM     16  C   UNL     1       0.166   9.635  20.752  0.00  0.00    +0.000 A 
ATOM     17  C   UNL     1       1.224   8.734  20.684  0.00  0.00    +0.000 A 
ATOM     18  C   UNL     1       1.670   8.644  22.026  0.00  0.00    +0.000 A 
ATOM     19  N   UNL     1       0.951   9.385  22.868  0.00  0.00    +0.000 NA
ATOM     20  N   UNL     1       0.032   9.968  22.081  0.00  0.00    +0.000 N 
ATOM     21  C   UNL     1      -0.938  10.865  22.671  0.00  0.00    +0.000 C 
ENDBRANCH  14  17
ENDBRANCH   1  14
TORSDOF 4
ENDMDL
MODEL 7
REMARK VINA RESULT:      -6.6      2.746      3.908
REMARK  Name = 
REMARK  7 active torsions:
REMARK  status: ('A' for Active; 'I' for Inactive)
REMARK    1  A    between atoms: C_1  and  C_2
REMARK    2  A    between atoms: C_3  and  C_4
REMARK    3  A    between atoms: C_4  and  N_5
REMARK    4  A    between atoms: C_6  and  C_8
REMARK    5  A    between atoms: C_9  and  N_10
REMARK    6  A    between atoms: N_15  and  C_16
REMARK    7  A    between atoms: N_19  and  C_20
REMARK                            x       y       z     vdW  Elec       q    Type
REMARK                         _______ _______ _______ _____ _____    ______ ____
ROOT
ATOM      1  N   UNL     1       4.221   4.044  17.011  0.00  0.00    +0.000 N 
ATOM      2  C   UNL     1       4.461   4.254  18.354  0.00  0.00    +0.000 C 
ATOM      3  O   UNL     1       5.475   3.819  18.891  0.00  0.00    +0.000 OA
ATOM      4  H   UNL     1       3.282   4.185  16.660  0.00  0.00    +0.000 HD
ENDROOT
BRANCH   2   5
ATOM      5  C   UNL     1       3.481   5.036  19.102  0.00  0.00    +0.000 A 
ATOM      6  C   UNL     1       2.997   6.342  18.993  0.00  0.00    +0.000 A 
ATOM      7  C   UNL     1       2.038   6.492  20.011  0.00  0.00    +0.000 A 
ATOM      8  N   UNL     1       1.884   5.383  20.722  0.00  0.00    +0.000 NA
ATOM      9  N   UNL     1       2.748   4.512  20.162  0.00  0.00    +0.000 N 
ATOM     10  C   UNL     1       2.815   3.193  20.759  0.00  0.00    +0.000 C 
BRANCH   6  11
ATOM     11  N   UNL     1       3.315   7.377  18.056  0.00  0.00    +0.000 N 
ATOM     12  O   UNL     1       4.230   7.176  17.260  0.00  0.00    +0.000 OA
ATOM     13  O   UNL     1       2.640   8.412  18.120  0.00  0.00    +0.000 OA
ENDBRANCH   6  11
ENDBRANCH   2   5
BRANCH   1  14
ATOM     14  C   UNL     1       5.079   3.230  16.167  0.00  0.00    +0.000 C 
BRANCH  14  17
ATOM     15  C   UNL     1       5.624   3.340  12.872  0.00  0.00    +0.000 C 
ATOM     16  C   UNL     1       6.229   4.110  13.986  0.00  0.00    +0.000 A 
ATOM     17  C   UNL     1       6.005   4.084  15.359  0.00  0.00    +0.000 A 
ATOM     18  C   UNL     1       6.962   4.995  15.869  0.00  0.00    +0.000 A 
ATOM     19  N   UNL     1       7.698   5.569  14.919  0.00  0.00    +0.000 NA
ATOM     20  N   UNL     1       7.230   5.031  13.780  0.00  0.00    +0.000 N 
ATOM     21  C   UNL     1       7.814   5.431  12.518  0.00  0.00    +0.000 C 
ENDBRANCH  14  17
ENDBRANCH   1  14
TORSDOF 4
ENDMDL
MODEL 8
REMARK VINA RESULT:      -6.6      3.319      4.355
REMARK  Name = 
REMARK  7 active torsions:
REMARK  status: ('A' for Active; 'I' for Inactive)
REMARK    1  A    between atoms: C_1  and  C_2
REMARK    2  A    between atoms: C_3  and  C_4
REMARK    3  A    between atoms: C_4  and  N_5
REMARK    4  A    between atoms: C_6  and  C_8
REMARK    5  A    between atoms: C_9  and  N_10
REMARK    6  A    between atoms: N_15  and  C_16
REMARK    7  A    between atoms: N_19  and  C_20
REMARK                            x       y       z     vdW  Elec       q    Type
REMARK                         _______ _______ _______ _____ _____    ______ ____
ROOT
ATOM      1  N   UNL     1       4.066   4.760  17.442  0.00  0.00    +0.000 N 
ATOM      2  C   UNL     1       2.737   4.882  17.791  0.00  0.00    +0.000 C 
ATOM      3  O   UNL     1       1.888   4.128  17.324  0.00  0.00    +0.000 OA
ATOM      4  H   UNL     1       4.689   5.534  17.635  0.00  0.00    +0.000 HD
ENDROOT
BRANCH   2   5
ATOM      5  C   UNL     1       2.384   5.917  18.758  0.00  0.00    +0.000 A 
ATOM      6  C   UNL     1       2.368   7.315  18.719  0.00  0.00    +0.000 A 
ATOM      7  C   UNL     1       1.905   7.737  19.978  0.00  0.00    +0.000 A 
ATOM      8  N   UNL     1       1.622   6.717  20.777  0.00  0.00    +0.000 NA
ATOM      9  N   UNL     1       1.904   5.629  20.031  0.00  0.00    +0.000 N 
ATOM     10  C   UNL     1       1.708   4.341  20.666  0.00  0.00    +0.000 C 
BRANCH   6  11
ATOM     11  N   UNL     1       2.696   8.219  17.660  0.00  0.00    +0.000 N 
ATOM     12  O   UNL     1       3.654   7.945  16.939  0.00  0.00    +0.000 OA
ATOM     13  O   UNL     1       1.985   9.226  17.547  0.00  0.00    +0.000 OA
ENDBRANCH   6  11
ENDBRANCH   2   5
BRANCH   1  14
ATOM     14  C   UNL     1       4.545   3.818  16.445  0.00  0.00    +0.000 C 
BRANCH  14  17
ATOM     15  C   UNL     1       5.233   3.563  13.185  0.00  0.00    +0.000 C 
ATOM     16  C   UNL     1       5.932   4.286  14.276  0.00  0.00    +0.000 A 
ATOM     17  C   UNL     1       5.652   4.411  15.633  0.00  0.00    +0.000 A 
ATOM     18  C   UNL     1       6.749   5.158  16.130  0.00  0.00    +0.000 A 
ATOM     19  N   UNL     1       7.621   5.502  15.185  0.00  0.00    +0.000 NA
ATOM     20  N   UNL     1       7.102   4.978  14.061  0.00  0.00    +0.000 N 
ATOM     21  C   UNL     1       7.803   5.158  12.809  0.00  0.00    +0.000 C 
ENDBRANCH  14  17
ENDBRANCH   1  14
TORSDOF 4
ENDMDL
MODEL 9
REMARK VINA RESULT:      -6.6      4.863      6.465
REMARK  Name = 
REMARK  7 active torsions:
REMARK  status: ('A' for Active; 'I' for Inactive)
REMARK    1  A    between atoms: C_1  and  C_2
REMARK    2  A    between atoms: C_3  and  C_4
REMARK    3  A    between atoms: C_4  and  N_5
REMARK    4  A    between atoms: C_6  and  C_8
REMARK    5  A    between atoms: C_9  and  N_10
REMARK    6  A    between atoms: N_15  and  C_16
REMARK    7  A    between atoms: N_19  and  C_20
REMARK                            x       y       z     vdW  Elec       q    Type
REMARK                         _______ _______ _______ _____ _____    ______ ____
ROOT
ATOM      1  N   UNL     1       2.274   7.118  19.664  0.00  0.00    +0.000 N 
ATOM      2  C   UNL     1       3.056   6.437  18.754  0.00  0.00    +0.000 C 
ATOM      3  O   UNL     1       3.420   6.970  17.710  0.00  0.00    +0.000 OA
ATOM      4  H   UNL     1       1.786   6.587  20.375  0.00  0.00    +0.000 HD
ENDROOT
BRANCH   2   5
ATOM      5  C   UNL     1       3.458   5.076  19.092  0.00  0.00    +0.000 A 
ATOM      6  C   UNL     1       2.761   3.879  19.287  0.00  0.00    +0.000 A 
ATOM      7  C   UNL     1       3.730   2.902  19.574  0.00  0.00    +0.000 A 
ATOM      8  N   UNL     1       4.962   3.396  19.556  0.00  0.00    +0.000 NA
ATOM      9  N   UNL     1       4.787   4.699  19.256  0.00  0.00    +0.000 N 
ATOM     10  C   UNL     1       5.984   5.514  19.187  0.00  0.00    +0.000 C 
BRANCH   6  11
ATOM     11  N   UNL     1       1.362   3.594  19.199  0.00  0.00    +0.000 N 
ATOM     12  O   UNL     1       0.661   3.815  20.186  0.00  0.00    +0.000 OA
ATOM     13  O   UNL     1       0.954   3.134  18.125  0.00  0.00    +0.000 OA
ENDBRANCH   6  11
ENDBRANCH   2   5
BRANCH   1  14
ATOM     14  C   UNL     1       1.750   8.452  19.425  0.00  0.00    +0.000 C 
BRANCH  14  17
ATOM     15  C   UNL     1      -0.760  10.630  19.774  0.00  0.00    +0.000 C 
ATOM     16  C   UNL     1       0.063   9.920  20.784  0.00  0.00    +0.000 A 
ATOM     17  C   UNL     1       1.102   9.004  20.655  0.00  0.00    +0.000 A 
ATOM     18  C   UNL     1       1.514   8.778  21.992  0.00  0.00    +0.000 A 
ATOM     19  N   UNL     1       0.792   9.454  22.884  0.00  0.00    +0.000 NA
ATOM     20  N   UNL     1      -0.095  10.131  22.135  0.00  0.00    +0.000 N 
ATOM     21  C   UNL     1      -1.058  10.993  22.786  0.00  0.00    +0.000 C 
ENDBRANCH  14  17
ENDBRANCH   1  14
TORSDOF 4
ENDMDL
