MODEL 1
REMARK VINA RESULT:      -7.0      0.000      0.000
REMARK  Name = 
REMARK  11 active torsions:
REMARK  status: ('A' for Active; 'I' for Inactive)
REMARK    1  A    between atoms: C_1  and  C_2
REMARK    2  A    between atoms: C_2  and  C_3
REMARK    3  A    between atoms: C_3  and  C_4
REMARK    4  A    between atoms: C_4  and  N_5
REMARK    5  A    between atoms: C_6  and  S_16
REMARK    6  A    between atoms: N_7  and  C_8
REMARK    7  A    between atoms: C_8  and  C_9
REMARK    8  A    between atoms: S_16  and  C_17
REMARK    9  A    between atoms: C_17  and  C_18
REMARK   10  A    between atoms: C_18  and  C_19
REMARK   11  A    between atoms: C_19  and  C_20
REMARK                            x       y       z     vdW  Elec       q    Type
REMARK                         _______ _______ _______ _____ _____    ______ ____
ROOT
ATOM      1  N   UNL     1       3.122   5.202  20.150  0.00  0.00    +0.000 N 
ATOM      2  C   UNL     1       2.854   6.385  19.406  0.00  0.00    +0.000 C 
ATOM      3  N   UNL     1       2.072   7.275  19.930  0.00  0.00    +0.000 NA
ATOM      4  H   UNL     1       3.938   4.628  19.909  0.00  0.00    +0.000 HD
ENDROOT
BRANCH   1   5
ATOM      5  C   UNL     1       2.227   4.745  21.191  0.00  0.00    +0.000 C 
BRANCH   5   6
ATOM      6  C   UNL     1       1.086   3.922  20.585  0.00  0.00    +0.000 C 
BRANCH   6   8
ATOM      7  C   UNL     1       0.825   2.345  18.651  0.00  0.00    +0.000 C 
ATOM      8  C   UNL     1       1.617   2.655  19.918  0.00  0.00    +0.000 C 
ENDBRANCH   6   8
ENDBRANCH   5   6
ENDBRANCH   1   5
BRANCH   3   9
ATOM      9  C   UNL     1       1.706   8.551  19.356  0.00  0.00    +0.000 C 
BRANCH   9  10
ATOM     10  C   UNL     1       0.807   9.277  20.334  0.00  0.00    +0.000 A 
ATOM     11  C   UNL     1       0.089  10.427  19.947  0.00  0.00    +0.000 A 
ATOM     12  C   UNL     1      -0.722  11.100  20.868  0.00  0.00    +0.000 A 
ATOM     13  C   UNL     1      -0.822  10.641  22.184  0.00  0.00    +0.000 A 
ATOM     14 CL   UNL     1      -1.831  11.494  23.341  0.00  0.00    +0.000 Cl
ATOM     15  C   UNL     1      -0.114   9.502  22.579  0.00  0.00    +0.000 A 
ATOM     16  C   UNL     1       0.692   8.822  21.660  0.00  0.00    +0.000 A 
ENDBRANCH   9  10
ENDBRANCH   3   9
BRANCH   2  17
ATOM     17  S   UNL     1       3.681   6.650  17.807  0.00  0.00    +0.000 S 
BRANCH  17  18
ATOM     18  C   UNL     1       4.206   4.901  17.492  0.00  0.00    +0.000 C 
BRANCH  18  19
ATOM     19  C   UNL     1       5.163   4.783  16.297  0.00  0.00    +0.000 C 
BRANCH  19  20
ATOM     20  C   UNL     1       6.598   4.485  16.749  0.00  0.00    +0.000 C 
BRANCH  20  21
ATOM     21  C   UNL     1       7.213   5.657  17.448  0.00  0.00    +0.000 A 
ATOM     22  C   UNL     1       7.747   5.650  18.716  0.00  0.00    +0.000 A 
ATOM     23  N   UNL     1       8.218   6.880  18.973  0.00  0.00    +0.000 N 
ATOM     24  C   UNL     1       7.967   7.607  17.867  0.00  0.00    +0.000 A 
ATOM     25  N   UNL     1       7.347   6.886  16.909  0.00  0.00    +0.000 NA
ATOM     26  H   UNL     1       8.684   7.204  19.848  0.00  0.00    +0.000 HD
ENDBRANCH  20  21
ENDBRANCH  19  20
ENDBRANCH  18  19
ENDBRANCH  17  18
ENDBRANCH   2  17
TORSDOF 10
ENDMDL
MODEL 2
REMARK VINA RESULT:      -6.9      4.493      6.877
REMARK  Name = 
REMARK  11 active torsions:
REMARK  status: ('A' for Active; 'I' for Inactive)
REMARK    1  A    between atoms: C_1  and  C_2
REMARK    2  A    between atoms: C_2  and  C_3
REMARK    3  A    between atoms: C_3  and  C_4
REMARK    4  A    between atoms: C_4  and  N_5
REMARK    5  A    between atoms: C_6  and  S_16
REMARK    6  A    between atoms: N_7  and  C_8
REMARK    7  A    between atoms: C_8  and  C_9
REMARK    8  A    between atoms: S_16  and  C_17
REMARK    9  A    between atoms: C_17  and  C_18
REMARK   10  A    between atoms: C_18  and  C_19
REMARK   11  A    between atoms: C_19  and  C_20
REMARK                            x       y       z     vdW  Elec       q    Type
REMARK                         _______ _______ _______ _____ _____    ______ ____
ROOT
ATOM      1  N   UNL     1       7.399   5.289  15.551  0.00  0.00    +0.000 N 
ATOM      2  C   UNL     1       6.687   5.865  16.641  0.00  0.00    +0.000 C 
ATOM      3  N   UNL     1       5.395   5.916  16.572  0.00  0.00    +0.000 NA
ATOM      4  H   UNL     1       8.365   4.973  15.689  0.00  0.00    +0.000 HD
ENDROOT
BRANCH   1   5
ATOM      5  C   UNL     1       6.817   5.206  14.229  0.00  0.00    +0.000 C 
BRANCH   5   6
ATOM      6  C   UNL     1       6.290   3.792  13.969  0.00  0.00    +0.000 C 
BRANCH   6   8
ATOM      7  C   UNL     1       4.899   3.364  11.925  0.00  0.00    +0.000 C 
ATOM      8  C   UNL     1       6.318   3.460  12.479  0.00  0.00    +0.000 C 
ENDBRANCH   6   8
ENDBRANCH   5   6
ENDBRANCH   1   5
BRANCH   3   9
ATOM      9  C   UNL     1       4.494   6.426  17.581  0.00  0.00    +0.000 C 
BRANCH   9  10
ATOM     10  C   UNL     1       3.565   5.309  18.004  0.00  0.00    +0.000 A 
ATOM     11  C   UNL     1       4.046   4.193  18.718  0.00  0.00    +0.000 A 
ATOM     12  C   UNL     1       3.178   3.157  19.084  0.00  0.00    +0.000 A 
ATOM     13  C   UNL     1       1.825   3.217  18.739  0.00  0.00    +0.000 A 
ATOM     14 CL   UNL     1       0.740   1.912  19.189  0.00  0.00    +0.000 Cl
ATOM     15  C   UNL     1       1.337   4.319  18.030  0.00  0.00    +0.000 A 
ATOM     16  C   UNL     1       2.199   5.361  17.669  0.00  0.00    +0.000 A 
ENDBRANCH   9  10
ENDBRANCH   3   9
BRANCH   2  17
ATOM     17  S   UNL     1       7.597   6.418  18.117  0.00  0.00    +0.000 S 
BRANCH  17  18
ATOM     18  C   UNL     1       7.804   8.198  17.645  0.00  0.00    +0.000 C 
BRANCH  18  19
ATOM     19  C   UNL     1       8.828   8.923  18.529  0.00  0.00    +0.000 C 
BRANCH  19  20
ATOM     20  C   UNL     1       8.737  10.446  18.368  0.00  0.00    +0.000 C 
BRANCH  20  21
ATOM     21  C   UNL     1       9.609  11.160  19.353  0.00  0.00    +0.000 A 
ATOM     22  C   UNL     1      10.960  11.387  19.218  0.00  0.00    +0.000 A 
ATOM     23  N   UNL     1      11.372  12.075  20.293  0.00  0.00    +0.000 N 
ATOM     24  C   UNL     1      10.277  12.255  21.056  0.00  0.00    +0.000 A 
ATOM     25  N   UNL     1       9.174  11.702  20.508  0.00  0.00    +0.000 NA
ATOM     26  H   UNL     1      12.342  12.403  20.495  0.00  0.00    +0.000 HD
ENDBRANCH  20  21
ENDBRANCH  19  20
ENDBRANCH  18  19
ENDBRANCH  17  18
ENDBRANCH   2  17
TORSDOF 10
ENDMDL
MODEL 3
REMARK VINA RESULT:      -6.7      3.124      4.361
REMARK  Name = 
REMARK  11 active torsions:
REMARK  status: ('A' for Active; 'I' for Inactive)
REMARK    1  A    between atoms: C_1  and  C_2
REMARK    2  A    between atoms: C_2  and  C_3
REMARK    3  A    between atoms: C_3  and  C_4
REMARK    4  A    between atoms: C_4  and  N_5
REMARK    5  A    between atoms: C_6  and  S_16
REMARK    6  A    between atoms: N_7  and  C_8
REMARK    7  A    between atoms: C_8  and  C_9
REMARK    8  A    between atoms: S_16  and  C_17
REMARK    9  A    between atoms: C_17  and  C_18
REMARK   10  A    between atoms: C_18  and  C_19
REMARK   11  A    between atoms: C_19  and  C_20
REMARK                            x       y       z     vdW  Elec       q    Type
REMARK                         _______ _______ _______ _____ _____    ______ ____
ROOT
ATOM      1  N   UNL     1       3.661   3.157  17.980  0.00  0.00    +0.000 N 
ATOM      2  C   UNL     1       4.172   4.468  17.766  0.00  0.00    +0.000 C 
ATOM      3  N   UNL     1       3.332   5.450  17.696  0.00  0.00    +0.000 NA
ATOM      4  H   UNL     1       4.287   2.420  18.323  0.00  0.00    +0.000 HD
ENDROOT
BRANCH   1   5
ATOM      5  C   UNL     1       2.293   2.817  17.653  0.00  0.00    +0.000 C 
BRANCH   5   6
ATOM      6  C   UNL     1       1.568   2.285  18.893  0.00  0.00    +0.000 C 
BRANCH   6   8
ATOM      7  C   UNL     1       1.485   3.277  21.196  0.00  0.00    +0.000 C 
ATOM      8  C   UNL     1       1.029   3.429  19.748  0.00  0.00    +0.000 C 
ENDBRANCH   6   8
ENDBRANCH   5   6
ENDBRANCH   1   5
BRANCH   3   9
ATOM      9  C   UNL     1       3.649   6.850  17.520  0.00  0.00    +0.000 C 
BRANCH   9  10
ATOM     10  C   UNL     1       2.681   7.669  18.346  0.00  0.00    +0.000 A 
ATOM     11  C   UNL     1       2.091   8.840  17.827  0.00  0.00    +0.000 A 
ATOM     12  C   UNL     1       1.213   9.599  18.609  0.00  0.00    +0.000 A 
ATOM     13  C   UNL     1       0.918   9.206  19.918  0.00  0.00    +0.000 A 
ATOM     14 CL   UNL     1      -0.175  10.166  20.902  0.00  0.00    +0.000 Cl
ATOM     15  C   UNL     1       1.497   8.047  20.443  0.00  0.00    +0.000 A 
ATOM     16  C   UNL     1       2.370   7.281  19.662  0.00  0.00    +0.000 A 
ENDBRANCH   9  10
ENDBRANCH   3   9
BRANCH   2  17
ATOM     17  S   UNL     1       5.971   4.731  17.693  0.00  0.00    +0.000 S 
BRANCH  17  18
ATOM     18  C   UNL     1       6.289   3.908  16.063  0.00  0.00    +0.000 C 
BRANCH  18  19
ATOM     19  C   UNL     1       5.852   4.775  14.874  0.00  0.00    +0.000 C 
BRANCH  19  20
ATOM     20  C   UNL     1       6.733   4.532  13.642  0.00  0.00    +0.000 C 
BRANCH  20  21
ATOM     21  C   UNL     1       6.083   3.597  12.671  0.00  0.00    +0.000 A 
ATOM     22  C   UNL     1       6.685   2.520  12.062  0.00  0.00    +0.000 A 
ATOM     23  N   UNL     1       5.771   1.921  11.284  0.00  0.00    +0.000 N 
ATOM     24  C   UNL     1       4.637   2.635  11.433  0.00  0.00    +0.000 A 
ATOM     25  N   UNL     1       4.795   3.676  12.278  0.00  0.00    +0.000 NA
ATOM     26  H   UNL     1       5.909   1.076  10.689  0.00  0.00    +0.000 HD
ENDBRANCH  20  21
ENDBRANCH  19  20
ENDBRANCH  18  19
ENDBRANCH  17  18
ENDBRANCH   2  17
TORSDOF 10
ENDMDL
MODEL 4
REMARK VINA RESULT:      -6.7      4.296      6.802
REMARK  Name = 
REMARK  11 active torsions:
REMARK  status: ('A' for Active; 'I' for Inactive)
REMARK    1  A    between atoms: C_1  and  C_2
REMARK    2  A    between atoms: C_2  and  C_3
REMARK    3  A    between atoms: C_3  and  C_4
REMARK    4  A    between atoms: C_4  and  N_5
REMARK    5  A    between atoms: C_6  and  S_16
REMARK    6  A    between atoms: N_7  and  C_8
REMARK    7  A    between atoms: C_8  and  C_9
REMARK    8  A    between atoms: S_16  and  C_17
REMARK    9  A    between atoms: C_17  and  C_18
REMARK   10  A    between atoms: C_18  and  C_19
REMARK   11  A    between atoms: C_19  and  C_20
REMARK                            x       y       z     vdW  Elec       q    Type
REMARK                         _______ _______ _______ _____ _____    ______ ____
ROOT
ATOM      1  N   UNL     1       7.543   5.299  15.448  0.00  0.00    +0.000 N 
ATOM      2  C   UNL     1       6.756   5.922  16.457  0.00  0.00    +0.000 C 
ATOM      3  N   UNL     1       5.470   5.939  16.308  0.00  0.00    +0.000 NA
ATOM      4  H   UNL     1       8.505   5.014  15.662  0.00  0.00    +0.000 HD
ENDROOT
BRANCH   1   5
ATOM      5  C   UNL     1       7.045   5.126  14.101  0.00  0.00    +0.000 C 
BRANCH   5   6
ATOM      6  C   UNL     1       6.350   3.768  13.964  0.00  0.00    +0.000 C 
BRANCH   6   8
ATOM      7  C   UNL     1       5.747   2.595  11.829  0.00  0.00    +0.000 C 
ATOM      8  C   UNL     1       5.406   3.752  12.762  0.00  0.00    +0.000 C 
ENDBRANCH   6   8
ENDBRANCH   5   6
ENDBRANCH   1   5
BRANCH   3   9
ATOM      9  C   UNL     1       4.499   6.487  17.230  0.00  0.00    +0.000 C 
BRANCH   9  10
ATOM     10  C   UNL     1       3.545   5.383  17.635  0.00  0.00    +0.000 A 
ATOM     11  C   UNL     1       3.671   4.082  17.107  0.00  0.00    +0.000 A 
ATOM     12  C   UNL     1       2.769   3.077  17.475  0.00  0.00    +0.000 A 
ATOM     13  C   UNL     1       1.729   3.357  18.365  0.00  0.00    +0.000 A 
ATOM     14 CL   UNL     1       0.591   2.098  18.816  0.00  0.00    +0.000 Cl
ATOM     15  C   UNL     1       1.594   4.644  18.894  0.00  0.00    +0.000 A 
ATOM     16  C   UNL     1       2.498   5.650  18.535  0.00  0.00    +0.000 A 
ENDBRANCH   9  10
ENDBRANCH   3   9
BRANCH   2  17
ATOM     17  S   UNL     1       7.563   6.581  17.949  0.00  0.00    +0.000 S 
BRANCH  17  18
ATOM     18  C   UNL     1       7.236   8.381  17.649  0.00  0.00    +0.000 C 
BRANCH  18  19
ATOM     19  C   UNL     1       8.518   9.225  17.697  0.00  0.00    +0.000 C 
BRANCH  19  20
ATOM     20  C   UNL     1       8.961   9.498  19.140  0.00  0.00    +0.000 C 
BRANCH  20  21
ATOM     21  C   UNL     1       9.711  10.788  19.254  0.00  0.00    +0.000 A 
ATOM     22  C   UNL     1       9.882  11.523  20.405  0.00  0.00    +0.000 A 
ATOM     23  N   UNL     1      10.628  12.596  20.103  0.00  0.00    +0.000 N 
ATOM     24  C   UNL     1      10.899  12.497  18.786  0.00  0.00    +0.000 A 
ATOM     25  N   UNL     1      10.348  11.397  18.232  0.00  0.00    +0.000 NA
ATOM     26  H   UNL     1      10.936  13.350  20.754  0.00  0.00    +0.000 HD
ENDBRANCH  20  21
ENDBRANCH  19  20
ENDBRANCH  18  19
ENDBRANCH  17  18
ENDBRANCH   2  17
TORSDOF 10
ENDMDL
MODEL 5
REMARK VINA RESULT:      -6.6      1.968      2.748
REMARK  Name = 
REMARK  11 active torsions:
REMARK  status: ('A' for Active; 'I' for Inactive)
REMARK    1  A    between atoms: C_1  and  C_2
REMARK    2  A    between atoms: C_2  and  C_3
REMARK    3  A    between atoms: C_3  and  C_4
REMARK    4  A    between atoms: C_4  and  N_5
REMARK    5  A    between atoms: C_6  and  S_16
REMARK    6  A    between atoms: N_7  and  C_8
REMARK    7  A    between atoms: C_8  and  C_9
REMARK    8  A    between atoms: S_16  and  C_17
REMARK    9  A    between atoms: C_17  and  C_18
REMARK   10  A    between atoms: C_18  and  C_19
REMARK   11  A    between atoms: C_19  and  C_20
REMARK                            x       y       z     vdW  Elec       q    Type
REMARK                         _______ _______ _______ _____ _____    ______ ____
ROOT
ATOM      1  N   UNL     1       3.287   4.570  20.073  0.00  0.00    +0.000 N 
ATOM      2  C   UNL     1       3.276   5.488  18.985  0.00  0.00    +0.000 C 
ATOM      3  N   UNL     1       2.616   6.593  19.122  0.00  0.00    +0.000 NA
ATOM      4  H   UNL     1       4.012   3.845  20.115  0.00  0.00    +0.000 HD
ENDROOT
BRANCH   1   5
ATOM      5  C   UNL     1       2.253   4.586  21.085  0.00  0.00    +0.000 C 
BRANCH   5   6
ATOM      6  C   UNL     1       1.078   3.702  20.655  0.00  0.00    +0.000 C 
BRANCH   6   8
ATOM      7  C   UNL     1       1.010   2.254  18.606  0.00  0.00    +0.000 C 
ATOM      8  C   UNL     1       1.571   2.404  20.017  0.00  0.00    +0.000 C 
ENDBRANCH   6   8
ENDBRANCH   5   6
ENDBRANCH   1   5
BRANCH   3   9
ATOM      9  C   UNL     1       2.511   7.664  18.155  0.00  0.00    +0.000 C 
BRANCH   9  10
ATOM     10  C   UNL     1       1.802   8.831  18.806  0.00  0.00    +0.000 A 
ATOM     11  C   UNL     1       1.669  10.067  18.140  0.00  0.00    +0.000 A 
ATOM     12  C   UNL     1       1.028  11.144  18.764  0.00  0.00    +0.000 A 
ATOM     13  C   UNL     1       0.519  11.006  20.058  0.00  0.00    +0.000 A 
ATOM     14 CL   UNL     1      -0.275  12.362  20.842  0.00  0.00    +0.000 Cl
ATOM     15  C   UNL     1       0.645   9.786  20.728  0.00  0.00    +0.000 A 
ATOM     16  C   UNL     1       1.278   8.704  20.106  0.00  0.00    +0.000 A 
ENDBRANCH   9  10
ENDBRANCH   3   9
BRANCH   2  17
ATOM     17  S   UNL     1       4.254   5.127  17.494  0.00  0.00    +0.000 S 
BRANCH  17  18
ATOM     18  C   UNL     1       5.814   4.581  18.331  0.00  0.00    +0.000 C 
BRANCH  18  19
ATOM     19  C   UNL     1       7.019   4.578  17.379  0.00  0.00    +0.000 C 
BRANCH  19  20
ATOM     20  C   UNL     1       6.857   5.613  16.258  0.00  0.00    +0.000 C 
BRANCH  20  21
ATOM     21  C   UNL     1       6.902   4.975  14.905  0.00  0.00    +0.000 A 
ATOM     22  C   UNL     1       6.182   3.871  14.510  0.00  0.00    +0.000 A 
ATOM     23  N   UNL     1       6.479   3.623  13.225  0.00  0.00    +0.000 N 
ATOM     24  C   UNL     1       7.364   4.572  12.863  0.00  0.00    +0.000 A 
ATOM     25  N   UNL     1       7.649   5.420  13.873  0.00  0.00    +0.000 NA
ATOM     26  H   UNL     1       6.099   2.855  12.630  0.00  0.00    +0.000 HD
ENDBRANCH  20  21
ENDBRANCH  19  20
ENDBRANCH  18  19
ENDBRANCH  17  18
ENDBRANCH   2  17
TORSDOF 10
ENDMDL
MODEL 6
REMARK VINA RESULT:      -6.6      2.350      3.811
REMARK  Name = 
REMARK  11 active torsions:
REMARK  status: ('A' for Active; 'I' for Inactive)
REMARK    1  A    between atoms: C_1  and  C_2
REMARK    2  A    between atoms: C_2  and  C_3
REMARK    3  A    between atoms: C_3  and  C_4
REMARK    4  A    between atoms: C_4  and  N_5
REMARK    5  A    between atoms: C_6  and  S_16
REMARK    6  A    between atoms: N_7  and  C_8
REMARK    7  A    between atoms: C_8  and  C_9
REMARK    8  A    between atoms: S_16  and  C_17
REMARK    9  A    between atoms: C_17  and  C_18
REMARK   10  A    between atoms: C_18  and  C_19
REMARK   11  A    between atoms: C_19  and  C_20
REMARK                            x       y       z     vdW  Elec       q    Type
REMARK                         _______ _______ _______ _____ _____    ______ ____
ROOT
ATOM      1  N   UNL     1       5.015   3.174  19.299  0.00  0.00    +0.000 N 
ATOM      2  C   UNL     1       5.059   4.310  18.441  0.00  0.00    +0.000 C 
ATOM      3  N   UNL     1       3.976   5.001  18.283  0.00  0.00    +0.000 NA
ATOM      4  H   UNL     1       5.890   2.787  19.669  0.00  0.00    +0.000 HD
ENDROOT
BRANCH   1   5
ATOM      5  C   UNL     1       3.769   2.504  19.601  0.00  0.00    +0.000 C 
BRANCH   5   6
ATOM      6  C   UNL     1       3.454   2.622  21.096  0.00  0.00    +0.000 C 
BRANCH   6   8
ATOM      7  C   UNL     1       1.266   3.366  20.116  0.00  0.00    +0.000 C 
ATOM      8  C   UNL     1       2.190   3.449  21.327  0.00  0.00    +0.000 C 
ENDBRANCH   6   8
ENDBRANCH   5   6
ENDBRANCH   1   5
BRANCH   3   9
ATOM      9  C   UNL     1       3.823   6.200  17.489  0.00  0.00    +0.000 C 
BRANCH   9  10
ATOM     10  C   UNL     1       2.952   7.174  18.253  0.00  0.00    +0.000 A 
ATOM     11  C   UNL     1       2.603   6.938  19.599  0.00  0.00    +0.000 A 
ATOM     12  C   UNL     1       1.780   7.838  20.287  0.00  0.00    +0.000 A 
ATOM     13  C   UNL     1       1.290   8.977  19.642  0.00  0.00    +0.000 A 
ATOM     14 CL   UNL     1       0.248  10.098  20.502  0.00  0.00    +0.000 Cl
ATOM     15  C   UNL     1       1.628   9.221  18.307  0.00  0.00    +0.000 A 
ATOM     16  C   UNL     1       2.457   8.328  17.618  0.00  0.00    +0.000 A 
ENDBRANCH   9  10
ENDBRANCH   3   9
BRANCH   2  17
ATOM     17  S   UNL     1       6.637   4.801  17.680  0.00  0.00    +0.000 S 
BRANCH  17  18
ATOM     18  C   UNL     1       7.009   6.256  18.765  0.00  0.00    +0.000 C 
BRANCH  18  19
ATOM     19  C   UNL     1       8.103   7.160  18.178  0.00  0.00    +0.000 C 
BRANCH  19  20
ATOM     20  C   UNL     1       7.536   8.511  17.724  0.00  0.00    +0.000 C 
BRANCH  20  21
ATOM     21  C   UNL     1       8.380   9.652  18.200  0.00  0.00    +0.000 A 
ATOM     22  C   UNL     1       8.394  10.921  17.667  0.00  0.00    +0.000 A 
ATOM     23  N   UNL     1       9.259  11.659  18.380  0.00  0.00    +0.000 N 
ATOM     24  C   UNL     1       9.749  10.836  19.327  0.00  0.00    +0.000 A 
ATOM     25  N   UNL     1       9.232   9.592  19.244  0.00  0.00    +0.000 NA
ATOM     26  H   UNL     1       9.498  12.663  18.232  0.00  0.00    +0.000 HD
ENDBRANCH  20  21
ENDBRANCH  19  20
ENDBRANCH  18  19
ENDBRANCH  17  18
ENDBRANCH   2  17
TORSDOF 10
ENDMDL
MODEL 7
REMARK VINA RESULT:      -6.6      4.554      7.004
REMARK  Name = 
REMARK  11 active torsions:
REMARK  status: ('A' for Active; 'I' for Inactive)
REMARK    1  A    between atoms: C_1  and  C_2
REMARK    2  A    between atoms: C_2  and  C_3
REMARK    3  A    between atoms: C_3  and  C_4
REMARK    4  A    between atoms: C_4  and  N_5
REMARK    5  A    between atoms: C_6  and  S_16
REMARK    6  A    between atoms: N_7  and  C_8
REMARK    7  A    between atoms: C_8  and  C_9
REMARK    8  A    between atoms: S_16  and  C_17
REMARK    9  A    between atoms: C_17  and  C_18
REMARK   10  A    between atoms: C_18  and  C_19
REMARK   11  A    between atoms: C_19  and  C_20
REMARK                            x       y       z     vdW  Elec       q    Type
REMARK                         _______ _______ _______ _____ _____    ______ ____
ROOT
ATOM      1  N   UNL     1       7.368   5.737  15.750  0.00  0.00    +0.000 N 
ATOM      2  C   UNL     1       6.733   5.974  17.001  0.00  0.00    +0.000 C 
ATOM      3  N   UNL     1       6.463   4.957  17.754  0.00  0.00    +0.000 NA
ATOM      4  H   UNL     1       7.848   6.508  15.272  0.00  0.00    +0.000 HD
ENDROOT
BRANCH   1   5
ATOM      5  C   UNL     1       7.288   4.450  15.094  0.00  0.00    +0.000 C 
BRANCH   5   6
ATOM      6  C   UNL     1       6.804   4.619  13.651  0.00  0.00    +0.000 C 
BRANCH   6   8
ATOM      7  C   UNL     1       5.738   3.058  12.001  0.00  0.00    +0.000 C 
ATOM      8  C   UNL     1       5.600   3.724  13.366  0.00  0.00    +0.000 C 
ENDBRANCH   6   8
ENDBRANCH   5   6
ENDBRANCH   1   5
BRANCH   3   9
ATOM      9  C   UNL     1       5.857   4.988  19.067  0.00  0.00    +0.000 C 
BRANCH   9  10
ATOM     10  C   UNL     1       4.500   4.322  18.986  0.00  0.00    +0.000 A 
ATOM     11  C   UNL     1       3.388   4.999  18.445  0.00  0.00    +0.000 A 
ATOM     12  C   UNL     1       2.134   4.377  18.395  0.00  0.00    +0.000 A 
ATOM     13  C   UNL     1       1.973   3.080  18.889  0.00  0.00    +0.000 A 
ATOM     14 CL   UNL     1       0.397   2.306  18.837  0.00  0.00    +0.000 Cl
ATOM     15  C   UNL     1       3.068   2.399  19.428  0.00  0.00    +0.000 A 
ATOM     16  C   UNL     1       4.325   3.014  19.473  0.00  0.00    +0.000 A 
ENDBRANCH   9  10
ENDBRANCH   3   9
BRANCH   2  17
ATOM     17  S   UNL     1       6.411   7.683  17.537  0.00  0.00    +0.000 S 
BRANCH  17  18
ATOM     18  C   UNL     1       8.127   8.110  18.092  0.00  0.00    +0.000 C 
BRANCH  18  19
ATOM     19  C   UNL     1       8.414   9.616  18.002  0.00  0.00    +0.000 C 
BRANCH  19  20
ATOM     20  C   UNL     1       9.313  10.090  19.151  0.00  0.00    +0.000 C 
BRANCH  20  21
ATOM     21  C   UNL     1       9.855  11.462  18.900  0.00  0.00    +0.000 A 
ATOM     22  C   UNL     1       9.501  12.606  19.579  0.00  0.00    +0.000 A 
ATOM     23  N   UNL     1      10.220  13.622  19.079  0.00  0.00    +0.000 N 
ATOM     24  C   UNL     1      10.994  13.085  18.115  0.00  0.00    +0.000 A 
ATOM     25  N   UNL     1      10.793  11.758  17.976  0.00  0.00    +0.000 NA
ATOM     26  H   UNL     1      10.187  14.621  19.377  0.00  0.00    +0.000 HD
ENDBRANCH  20  21
ENDBRANCH  19  20
ENDBRANCH  18  19
ENDBRANCH  17  18
ENDBRANCH   2  17
TORSDOF 10
ENDMDL
MODEL 8
REMARK VINA RESULT:      -6.6      1.511      1.937
REMARK  Name = 
REMARK  11 active torsions:
REMARK  status: ('A' for Active; 'I' for Inactive)
REMARK    1  A    between atoms: C_1  and  C_2
REMARK    2  A    between atoms: C_2  and  C_3
REMARK    3  A    between atoms: C_3  and  C_4
REMARK    4  A    between atoms: C_4  and  N_5
REMARK    5  A    between atoms: C_6  and  S_16
REMARK    6  A    between atoms: N_7  and  C_8
REMARK    7  A    between atoms: C_8  and  C_9
REMARK    8  A    between atoms: S_16  and  C_17
REMARK    9  A    between atoms: C_17  and  C_18
REMARK   10  A    between atoms: C_18  and  C_19
REMARK   11  A    between atoms: C_19  and  C_20
REMARK                            x       y       z     vdW  Elec       q    Type
REMARK                         _______ _______ _______ _____ _____    ______ ____
ROOT
ATOM      1  N   UNL     1       3.052   5.049  20.241  0.00  0.00    +0.000 N 
ATOM      2  C   UNL     1       2.837   6.238  19.488  0.00  0.00    +0.000 C 
ATOM      3  N   UNL     1       2.059   7.146  19.984  0.00  0.00    +0.000 NA
ATOM      4  H   UNL     1       3.861   4.456  20.030  0.00  0.00    +0.000 HD
ENDROOT
BRANCH   1   5
ATOM      5  C   UNL     1       2.110   4.614  21.250  0.00  0.00    +0.000 C 
BRANCH   5   6
ATOM      6  C   UNL     1       1.025   3.736  20.619  0.00  0.00    +0.000 C 
BRANCH   6   8
ATOM      7  C   UNL     1       1.388   2.281  18.607  0.00  0.00    +0.000 C 
ATOM      8  C   UNL     1       1.610   2.420  20.110  0.00  0.00    +0.000 C 
ENDBRANCH   6   8
ENDBRANCH   5   6
ENDBRANCH   1   5
BRANCH   3   9
ATOM      9  C   UNL     1       1.743   8.429  19.397  0.00  0.00    +0.000 C 
BRANCH   9  10
ATOM     10  C   UNL     1       0.873   9.200  20.367  0.00  0.00    +0.000 A 
ATOM     11  C   UNL     1       0.159  10.343  19.954  0.00  0.00    +0.000 A 
ATOM     12  C   UNL     1      -0.626  11.057  20.867  0.00  0.00    +0.000 A 
ATOM     13  C   UNL     1      -0.703  10.646  22.201  0.00  0.00    +0.000 A 
ATOM     14 CL   UNL     1      -1.678  11.550  23.348  0.00  0.00    +0.000 Cl
ATOM     15  C   UNL     1       0.001   9.514  22.622  0.00  0.00    +0.000 A 
ATOM     16  C   UNL     1       0.781   8.792  21.710  0.00  0.00    +0.000 A 
ENDBRANCH   9  10
ENDBRANCH   3   9
BRANCH   2  17
ATOM     17  S   UNL     1       3.726   6.481  17.919  0.00  0.00    +0.000 S 
BRANCH  17  18
ATOM     18  C   UNL     1       5.330   5.688  18.402  0.00  0.00    +0.000 C 
BRANCH  18  19
ATOM     19  C   UNL     1       5.343   4.178  18.125  0.00  0.00    +0.000 C 
BRANCH  19  20
ATOM     20  C   UNL     1       4.861   3.859  16.704  0.00  0.00    +0.000 C 
BRANCH  20  21
ATOM     21  C   UNL     1       5.840   4.320  15.670  0.00  0.00    +0.000 A 
ATOM     22  C   UNL     1       7.123   4.758  15.913  0.00  0.00    +0.000 A 
ATOM     23  N   UNL     1       7.686   5.059  14.733  0.00  0.00    +0.000 N 
ATOM     24  C   UNL     1       6.748   4.800  13.801  0.00  0.00    +0.000 A 
ATOM     25  N   UNL     1       5.599   4.346  14.343  0.00  0.00    +0.000 NA
ATOM     26  H   UNL     1       8.653   5.417  14.573  0.00  0.00    +0.000 HD
ENDBRANCH  20  21
ENDBRANCH  19  20
ENDBRANCH  18  19
ENDBRANCH  17  18
ENDBRANCH   2  17
TORSDOF 10
ENDMDL
MODEL 9
REMARK VINA RESULT:      -6.5      2.340      3.210
REMARK  Name = 
REMARK  11 active torsions:
REMARK  status: ('A' for Active; 'I' for Inactive)
REMARK    1  A    between atoms: C_1  and  C_2
REMARK    2  A    between atoms: C_2  and  C_3
REMARK    3  A    between atoms: C_3  and  C_4
REMARK    4  A    between atoms: C_4  and  N_5
REMARK    5  A    between atoms: C_6  and  S_16
REMARK    6  A    between atoms: N_7  and  C_8
REMARK    7  A    between atoms: C_8  and  C_9
REMARK    8  A    between atoms: S_16  and  C_17
REMARK    9  A    between atoms: C_17  and  C_18
REMARK   10  A    between atoms: C_18  and  C_19
REMARK   11  A    between atoms: C_19  and  C_20
REMARK                            x       y       z     vdW  Elec       q    Type
REMARK                         _______ _______ _______ _____ _____    ______ ____
ROOT
ATOM      1  N   UNL     1       3.194   4.447  17.929  0.00  0.00    +0.000 N 
ATOM      2  C   UNL     1       3.430   5.846  17.818  0.00  0.00    +0.000 C 
ATOM      3  N   UNL     1       2.447   6.655  18.053  0.00  0.00    +0.000 NA
ATOM      4  H   UNL     1       3.988   3.806  18.036  0.00  0.00    +0.000 HD
ENDROOT
BRANCH   1   5
ATOM      5  C   UNL     1       1.861   3.895  17.816  0.00  0.00    +0.000 C 
BRANCH   5   6
ATOM      6  C   UNL     1       1.487   3.147  19.099  0.00  0.00    +0.000 C 
BRANCH   6   8
ATOM      7  C   UNL     1       1.810   2.996  21.583  0.00  0.00    +0.000 C 
ATOM      8  C   UNL     1       2.200   3.743  20.311  0.00  0.00    +0.000 C 
ENDBRANCH   6   8
ENDBRANCH   5   6
ENDBRANCH   1   5
BRANCH   3   9
ATOM      9  C   UNL     1       2.491   8.100  18.029  0.00  0.00    +0.000 C 
BRANCH   9  10
ATOM     10  C   UNL     1       1.713   8.624  19.217  0.00  0.00    +0.000 A 
ATOM     11  C   UNL     1       1.036   9.859  19.157  0.00  0.00    +0.000 A 
ATOM     12  C   UNL     1       0.337  10.340  20.270  0.00  0.00    +0.000 A 
ATOM     13  C   UNL     1       0.311   9.602  21.457  0.00  0.00    +0.000 A 
ATOM     14 CL   UNL     1      -0.555  10.212  22.857  0.00  0.00    +0.000 Cl
ATOM     15  C   UNL     1       0.980   8.376  21.529  0.00  0.00    +0.000 A 
ATOM     16  C   UNL     1       1.673   7.888  20.415  0.00  0.00    +0.000 A 
ENDBRANCH   9  10
ENDBRANCH   3   9
BRANCH   2  17
ATOM     17  S   UNL     1       5.108   6.447  17.450  0.00  0.00    +0.000 S 
BRANCH  17  18
ATOM     18  C   UNL     1       6.032   4.881  17.806  0.00  0.00    +0.000 C 
BRANCH  18  19
ATOM     19  C   UNL     1       6.592   4.230  16.534  0.00  0.00    +0.000 C 
BRANCH  19  20
ATOM     20  C   UNL     1       6.885   5.271  15.447  0.00  0.00    +0.000 C 
BRANCH  20  21
ATOM     21  C   UNL     1       6.811   4.676  14.076  0.00  0.00    +0.000 A 
ATOM     22  C   UNL     1       7.579   5.045  12.994  0.00  0.00    +0.000 A 
ATOM     23  N   UNL     1       7.233   4.266  11.958  0.00  0.00    +0.000 N 
ATOM     24  C   UNL     1       6.272   3.443  12.421  0.00  0.00    +0.000 A 
ATOM     25  N   UNL     1       5.986   3.670  13.720  0.00  0.00    +0.000 NA
ATOM     26  H   UNL     1       7.629   4.292  10.993  0.00  0.00    +0.000 HD
ENDBRANCH  20  21
ENDBRANCH  19  20
ENDBRANCH  18  19
ENDBRANCH  17  18
ENDBRANCH   2  17
TORSDOF 10
ENDMDL
