MODEL 1
REMARK VINA RESULT:      -6.2      0.000      0.000
REMARK  Name = 
REMARK  7 active torsions:
REMARK  status: ('A' for Active; 'I' for Inactive)
REMARK    1  A    between atoms: N_1  and  C_2
REMARK    2  A    between atoms: C_2  and  C_3
REMARK    3  A    between atoms: C_2  and  C_13
REMARK    4  A    between atoms: C_3  and  S_4
REMARK    5  A    between atoms: S_4  and  C_5
REMARK    6  A    between atoms: C_5  and  C_6
REMARK    7  A    between atoms: C_13  and  O_15
REMARK                            x       y       z     vdW  Elec       q    Type
REMARK                         _______ _______ _______ _____ _____    ______ ____
ROOT
ATOM      1  C   UNK     1       5.833   5.503  18.920  0.00  0.00    +0.000 C 
ENDROOT
BRANCH   1   2
ATOM      2  C   UNK     1       7.369   5.588  18.883  0.00  0.00    +0.000 C 
BRANCH   2   3
ATOM      3  N   UNK     1       8.007   5.585  20.239  0.00  0.00    +0.000 NA
ATOM      4  H   UNK     1       8.587   4.740  20.275  0.00  0.00    +0.000 HD
ATOM      5  H   UNK     1       7.278   5.401  20.935  0.00  0.00    +0.000 HD
ENDBRANCH   2   3
BRANCH   2   6
ATOM      6  C   UNK     1       7.817   6.862  18.153  0.00  0.00    +0.000 C 
ATOM      7  O   UNK     1       7.525   7.160  17.004  0.00  0.00    +0.000 OA
BRANCH   6   8
ATOM      8  O   UNK     1       8.610   7.629  18.942  0.00  0.00    +0.000 OA
ATOM      9  H   UNK     1       9.358   7.056  19.239  0.00  0.00    +0.000 HD
ENDBRANCH   6   8
ENDBRANCH   2   6
ENDBRANCH   1   2
BRANCH   1  10
ATOM     10  S   UNK     1       5.200   4.347  17.646  0.00  0.00    +0.000 S 
BRANCH  10  11
ATOM     11  C   UNK     1       3.510   5.020  17.466  0.00  0.00    +0.000 C 
BRANCH  11  12
ATOM     12  C   UNK     1       2.524   4.292  18.349  0.00  0.00    +0.000 A 
ATOM     13  C   UNK     1       2.088   3.007  17.966  0.00  0.00    +0.000 A 
ATOM     14  C   UNK     1       1.161   2.301  18.736  0.00  0.00    +0.000 A 
ATOM     15  C   UNK     1       0.647   2.865  19.901  0.00  0.00    +0.000 A 
ATOM     16  C   UNK     1       1.064   4.135  20.295  0.00  0.00    +0.000 A 
ATOM     17  C   UNK     1       1.995   4.845  19.527  0.00  0.00    +0.000 A 
ATOM     18 CL   UNK     1       2.468   6.409  20.097  0.00  0.00    +0.000 Cl
ENDBRANCH  11  12
ENDBRANCH  10  11
ENDBRANCH   1  10
TORSDOF 7
ENDMDL
MODEL 2
REMARK VINA RESULT:      -6.1      2.388      2.717
REMARK  Name = 
REMARK  7 active torsions:
REMARK  status: ('A' for Active; 'I' for Inactive)
REMARK    1  A    between atoms: N_1  and  C_2
REMARK    2  A    between atoms: C_2  and  C_3
REMARK    3  A    between atoms: C_2  and  C_13
REMARK    4  A    between atoms: C_3  and  S_4
REMARK    5  A    between atoms: S_4  and  C_5
REMARK    6  A    between atoms: C_5  and  C_6
REMARK    7  A    between atoms: C_13  and  O_15
REMARK                            x       y       z     vdW  Elec       q    Type
REMARK                         _______ _______ _______ _____ _____    ______ ____
ROOT
ATOM      1  C   UNK     1       5.304   6.482  16.563  0.00  0.00    +0.000 C 
ENDROOT
BRANCH   1   2
ATOM      2  C   UNK     1       6.636   6.316  17.315  0.00  0.00    +0.000 C 
BRANCH   2   3
ATOM      3  N   UNK     1       7.614   7.424  17.063  0.00  0.00    +0.000 NA
ATOM      4  H   UNK     1       7.795   7.852  17.977  0.00  0.00    +0.000 HD
ATOM      5  H   UNK     1       7.130   8.166  16.548  0.00  0.00    +0.000 HD
ENDBRANCH   2   3
BRANCH   2   6
ATOM      6  C   UNK     1       7.311   4.994  16.924  0.00  0.00    +0.000 C 
ATOM      7  O   UNK     1       7.571   4.642  15.783  0.00  0.00    +0.000 OA
BRANCH   6   8
ATOM      8  O   UNK     1       7.573   4.233  18.016  0.00  0.00    +0.000 OA
ATOM      9  H   UNK     1       7.920   3.369  17.686  0.00  0.00    +0.000 HD
ENDBRANCH   6   8
ENDBRANCH   2   6
ENDBRANCH   1   2
BRANCH   1  10
ATOM     10  S   UNK     1       3.876   6.371  17.708  0.00  0.00    +0.000 S 
BRANCH  10  11
ATOM     11  C   UNK     1       3.491   4.595  17.510  0.00  0.00    +0.000 C 
BRANCH  11  12
ATOM     12  C   UNK     1       2.682   4.068  18.671  0.00  0.00    +0.000 A 
ATOM     13  C   UNK     1       1.930   4.975  19.443  0.00  0.00    +0.000 A 
ATOM     14  C   UNK     1       1.182   4.542  20.541  0.00  0.00    +0.000 A 
ATOM     15  C   UNK     1       1.174   3.195  20.892  0.00  0.00    +0.000 A 
ATOM     16  C   UNK     1       1.913   2.282  20.142  0.00  0.00    +0.000 A 
ATOM     17  C   UNK     1       2.662   2.713  19.039  0.00  0.00    +0.000 A 
ATOM     18 CL   UNK     1       3.539   1.510  18.156  0.00  0.00    +0.000 Cl
ENDBRANCH  11  12
ENDBRANCH  10  11
ENDBRANCH   1  10
TORSDOF 7
ENDMDL
MODEL 3
REMARK VINA RESULT:      -6.1      1.801      1.929
REMARK  Name = 
REMARK  7 active torsions:
REMARK  status: ('A' for Active; 'I' for Inactive)
REMARK    1  A    between atoms: N_1  and  C_2
REMARK    2  A    between atoms: C_2  and  C_3
REMARK    3  A    between atoms: C_2  and  C_13
REMARK    4  A    between atoms: C_3  and  S_4
REMARK    5  A    between atoms: S_4  and  C_5
REMARK    6  A    between atoms: C_5  and  C_6
REMARK    7  A    between atoms: C_13  and  O_15
REMARK                            x       y       z     vdW  Elec       q    Type
REMARK                         _______ _______ _______ _____ _____    ______ ____
ROOT
ATOM      1  C   UNK     1       5.814   4.797  18.220  0.00  0.00    +0.000 C 
ENDROOT
BRANCH   1   2
ATOM      2  C   UNK     1       7.120   5.117  17.472  0.00  0.00    +0.000 C 
BRANCH   2   3
ATOM      3  N   UNK     1       8.230   4.150  17.754  0.00  0.00    +0.000 NA
ATOM      4  H   UNK     1       9.029   4.470  17.197  0.00  0.00    +0.000 HD
ATOM      5  H   UNK     1       7.988   3.252  17.325  0.00  0.00    +0.000 HD
ENDBRANCH   2   3
BRANCH   2   6
ATOM      6  C   UNK     1       7.615   6.523  17.837  0.00  0.00    +0.000 C 
ATOM      7  O   UNK     1       7.510   7.516  17.133  0.00  0.00    +0.000 OA
BRANCH   6   8
ATOM      8  O   UNK     1       8.217   6.534  19.054  0.00  0.00    +0.000 OA
ATOM      9  H   UNK     1       8.223   7.473  19.362  0.00  0.00    +0.000 HD
ENDBRANCH   6   8
ENDBRANCH   2   6
ENDBRANCH   1   2
BRANCH   1  10
ATOM     10  S   UNK     1       4.453   4.425  17.050  0.00  0.00    +0.000 S 
BRANCH  10  11
ATOM     11  C   UNK     1       3.891   2.839  17.765  0.00  0.00    +0.000 C 
BRANCH  11  12
ATOM     12  C   UNK     1       3.022   3.053  18.982  0.00  0.00    +0.000 A 
ATOM     13  C   UNK     1       3.465   2.565  20.228  0.00  0.00    +0.000 A 
ATOM     14  C   UNK     1       2.690   2.719  21.380  0.00  0.00    +0.000 A 
ATOM     15  C   UNK     1       1.455   3.358  21.310  0.00  0.00    +0.000 A 
ATOM     16  C   UNK     1       0.998   3.846  20.087  0.00  0.00    +0.000 A 
ATOM     17  C   UNK     1       1.774   3.696  18.931  0.00  0.00    +0.000 A 
ATOM     18 CL   UNK     1       1.137   4.344  17.458  0.00  0.00    +0.000 Cl
ENDBRANCH  11  12
ENDBRANCH  10  11
ENDBRANCH   1  10
TORSDOF 7
ENDMDL
MODEL 4
REMARK VINA RESULT:      -6.1      2.817      3.321
REMARK  Name = 
REMARK  7 active torsions:
REMARK  status: ('A' for Active; 'I' for Inactive)
REMARK    1  A    between atoms: N_1  and  C_2
REMARK    2  A    between atoms: C_2  and  C_3
REMARK    3  A    between atoms: C_2  and  C_13
REMARK    4  A    between atoms: C_3  and  S_4
REMARK    5  A    between atoms: S_4  and  C_5
REMARK    6  A    between atoms: C_5  and  C_6
REMARK    7  A    between atoms: C_13  and  O_15
REMARK                            x       y       z     vdW  Elec       q    Type
REMARK                         _______ _______ _______ _____ _____    ______ ____
ROOT
ATOM      1  C   UNK     1       5.143   4.897  16.532  0.00  0.00    +0.000 C 
ENDROOT
BRANCH   1   2
ATOM      2  C   UNK     1       6.456   4.210  16.117  0.00  0.00    +0.000 C 
BRANCH   2   3
ATOM      3  N   UNK     1       7.652   4.672  16.894  0.00  0.00    +0.000 NA
ATOM      4  H   UNK     1       7.911   5.581  16.496  0.00  0.00    +0.000 HD
ATOM      5  H   UNK     1       8.445   4.072  16.646  0.00  0.00    +0.000 HD
ENDBRANCH   2   3
BRANCH   2   6
ATOM      6  C   UNK     1       6.739   4.450  14.628  0.00  0.00    +0.000 C 
ATOM      7  O   UNK     1       6.238   3.829  13.703  0.00  0.00    +0.000 OA
BRANCH   6   8
ATOM      8  O   UNK     1       7.648   5.443  14.452  0.00  0.00    +0.000 OA
ATOM      9  H   UNK     1       8.025   5.328  13.546  0.00  0.00    +0.000 HD
ENDBRANCH   6   8
ENDBRANCH   2   6
ENDBRANCH   1   2
BRANCH   1  10
ATOM     10  S   UNK     1       5.268   5.606  18.218  0.00  0.00    +0.000 S 
BRANCH  10  11
ATOM     11  C   UNK     1       4.984   4.083  19.187  0.00  0.00    +0.000 C 
BRANCH  11  12
ATOM     12  C   UNK     1       3.522   3.896  19.517  0.00  0.00    +0.000 A 
ATOM     13  C   UNK     1       2.843   4.922  20.204  0.00  0.00    +0.000 A 
ATOM     14  C   UNK     1       1.496   4.790  20.551  0.00  0.00    +0.000 A 
ATOM     15  C   UNK     1       0.802   3.629  20.223  0.00  0.00    +0.000 A 
ATOM     16  C   UNK     1       1.456   2.602  19.544  0.00  0.00    +0.000 A 
ATOM     17  C   UNK     1       2.805   2.733  19.193  0.00  0.00    +0.000 A 
ATOM     18 CL   UNK     1       3.535   1.415  18.340  0.00  0.00    +0.000 Cl
ENDBRANCH  11  12
ENDBRANCH  10  11
ENDBRANCH   1  10
TORSDOF 7
ENDMDL
MODEL 5
REMARK VINA RESULT:      -6.1      2.662      3.142
REMARK  Name = 
REMARK  7 active torsions:
REMARK  status: ('A' for Active; 'I' for Inactive)
REMARK    1  A    between atoms: N_1  and  C_2
REMARK    2  A    between atoms: C_2  and  C_3
REMARK    3  A    between atoms: C_2  and  C_13
REMARK    4  A    between atoms: C_3  and  S_4
REMARK    5  A    between atoms: S_4  and  C_5
REMARK    6  A    between atoms: C_5  and  C_6
REMARK    7  A    between atoms: C_13  and  O_15
REMARK                            x       y       z     vdW  Elec       q    Type
REMARK                         _______ _______ _______ _____ _____    ______ ____
ROOT
ATOM      1  C   UNK     1       5.908   6.227  16.758  0.00  0.00    +0.000 C 
ENDROOT
BRANCH   1   2
ATOM      2  C   UNK     1       6.377   4.779  16.531  0.00  0.00    +0.000 C 
BRANCH   2   3
ATOM      3  N   UNK     1       7.479   4.350  17.452  0.00  0.00    +0.000 NA
ATOM      4  H   UNK     1       8.322   4.831  17.124  0.00  0.00    +0.000 HD
ATOM      5  H   UNK     1       7.684   3.363  17.267  0.00  0.00    +0.000 HD
ENDBRANCH   2   3
BRANCH   2   6
ATOM      6  C   UNK     1       6.867   4.594  15.089  0.00  0.00    +0.000 C 
ATOM      7  O   UNK     1       7.636   5.340  14.502  0.00  0.00    +0.000 OA
BRANCH   6   8
ATOM      8  O   UNK     1       6.320   3.491  14.519  0.00  0.00    +0.000 OA
ATOM      9  H   UNK     1       5.738   3.075  15.202  0.00  0.00    +0.000 HD
ENDBRANCH   6   8
ENDBRANCH   2   6
ENDBRANCH   1   2
BRANCH   1  10
ATOM     10  S   UNK     1       4.359   6.279  17.737  0.00  0.00    +0.000 S 
BRANCH  10  11
ATOM     11  C   UNK     1       3.817   4.549  17.503  0.00  0.00    +0.000 C 
BRANCH  11  12
ATOM     12  C   UNK     1       2.892   4.100  18.610  0.00  0.00    +0.000 A 
ATOM     13  C   UNK     1       2.176   5.075  19.334  0.00  0.00    +0.000 A 
ATOM     14  C   UNK     1       1.323   4.715  20.380  0.00  0.00    +0.000 A 
ATOM     15  C   UNK     1       1.172   3.375  20.727  0.00  0.00    +0.000 A 
ATOM     16  C   UNK     1       1.872   2.396  20.024  0.00  0.00    +0.000 A 
ATOM     17  C   UNK     1       2.726   2.754  18.973  0.00  0.00    +0.000 A 
ATOM     18 CL   UNK     1       3.546   1.474  18.145  0.00  0.00    +0.000 Cl
ENDBRANCH  11  12
ENDBRANCH  10  11
ENDBRANCH   1  10
TORSDOF 7
ENDMDL
MODEL 6
REMARK VINA RESULT:      -6.1      1.848      2.118
REMARK  Name = 
REMARK  7 active torsions:
REMARK  status: ('A' for Active; 'I' for Inactive)
REMARK    1  A    between atoms: N_1  and  C_2
REMARK    2  A    between atoms: C_2  and  C_3
REMARK    3  A    between atoms: C_2  and  C_13
REMARK    4  A    between atoms: C_3  and  S_4
REMARK    5  A    between atoms: S_4  and  C_5
REMARK    6  A    between atoms: C_5  and  C_6
REMARK    7  A    between atoms: C_13  and  O_15
REMARK                            x       y       z     vdW  Elec       q    Type
REMARK                         _______ _______ _______ _____ _____    ______ ____
ROOT
ATOM      1  C   UNK     1       5.968   6.981  17.367  0.00  0.00    +0.000 C 
ENDROOT
BRANCH   1   2
ATOM      2  C   UNK     1       7.351   6.333  17.177  0.00  0.00    +0.000 C 
BRANCH   2   3
ATOM      3  N   UNK     1       7.544   5.704  15.831  0.00  0.00    +0.000 NA
ATOM      4  H   UNK     1       8.101   4.858  15.993  0.00  0.00    +0.000 HD
ATOM      5  H   UNK     1       8.174   6.300  15.286  0.00  0.00    +0.000 HD
ENDBRANCH   2   3
BRANCH   2   6
ATOM      6  C   UNK     1       7.586   5.252  18.241  0.00  0.00    +0.000 C 
ATOM      7  O   UNK     1       7.590   5.437  19.449  0.00  0.00    +0.000 OA
BRANCH   6   8
ATOM      8  O   UNK     1       7.814   4.042  17.672  0.00  0.00    +0.000 OA
ATOM      9  H   UNK     1       7.549   3.359  18.336  0.00  0.00    +0.000 HD
ENDBRANCH   6   8
ENDBRANCH   2   6
ENDBRANCH   1   2
BRANCH   1  10
ATOM     10  S   UNK     1       4.621   5.802  16.975  0.00  0.00    +0.000 S 
BRANCH  10  11
ATOM     11  C   UNK     1       3.832   5.715  18.621  0.00  0.00    +0.000 C 
BRANCH  11  12
ATOM     12  C   UNK     1       2.893   4.537  18.728  0.00  0.00    +0.000 A 
ATOM     13  C   UNK     1       3.061   3.451  17.845  0.00  0.00    +0.000 A 
ATOM     14  C   UNK     1       2.207   2.347  17.887  0.00  0.00    +0.000 A 
ATOM     15  C   UNK     1       1.164   2.307  18.809  0.00  0.00    +0.000 A 
ATOM     16  C   UNK     1       0.980   3.371  19.690  0.00  0.00    +0.000 A 
ATOM     17  C   UNK     1       1.837   4.478  19.651  0.00  0.00    +0.000 A 
ATOM     18 CL   UNK     1       1.544   5.749  20.790  0.00  0.00    +0.000 Cl
ENDBRANCH  11  12
ENDBRANCH  10  11
ENDBRANCH   1  10
TORSDOF 7
ENDMDL
MODEL 7
REMARK VINA RESULT:      -6.1      2.607      3.064
REMARK  Name = 
REMARK  7 active torsions:
REMARK  status: ('A' for Active; 'I' for Inactive)
REMARK    1  A    between atoms: N_1  and  C_2
REMARK    2  A    between atoms: C_2  and  C_3
REMARK    3  A    between atoms: C_2  and  C_13
REMARK    4  A    between atoms: C_3  and  S_4
REMARK    5  A    between atoms: S_4  and  C_5
REMARK    6  A    between atoms: C_5  and  C_6
REMARK    7  A    between atoms: C_13  and  O_15
REMARK                            x       y       z     vdW  Elec       q    Type
REMARK                         _______ _______ _______ _____ _____    ______ ____
ROOT
ATOM      1  C   UNK     1       5.824   5.686  16.779  0.00  0.00    +0.000 C 
ENDROOT
BRANCH   1   2
ATOM      2  C   UNK     1       6.584   4.432  16.311  0.00  0.00    +0.000 C 
BRANCH   2   3
ATOM      3  N   UNK     1       7.900   4.231  16.998  0.00  0.00    +0.000 NA
ATOM      4  H   UNK     1       7.992   5.007  17.662  0.00  0.00    +0.000 HD
ATOM      5  H   UNK     1       8.646   4.413  16.320  0.00  0.00    +0.000 HD
ENDBRANCH   2   3
BRANCH   2   6
ATOM      6  C   UNK     1       6.845   4.498  14.800  0.00  0.00    +0.000 C 
ATOM      7  O   UNK     1       6.328   3.777  13.960  0.00  0.00    +0.000 OA
BRANCH   6   8
ATOM      8  O   UNK     1       7.755   5.458  14.498  0.00  0.00    +0.000 OA
ATOM      9  H   UNK     1       8.060   5.843  15.356  0.00  0.00    +0.000 HD
ENDBRANCH   6   8
ENDBRANCH   2   6
ENDBRANCH   1   2
BRANCH   1  10
ATOM     10  S   UNK     1       5.244   5.505  18.508  0.00  0.00    +0.000 S 
BRANCH  10  11
ATOM     11  C   UNK     1       3.494   5.975  18.270  0.00  0.00    +0.000 C 
BRANCH  11  12
ATOM     12  C   UNK     1       2.556   4.940  18.846  0.00  0.00    +0.000 A 
ATOM     13  C   UNK     1       1.959   5.186  20.099  0.00  0.00    +0.000 A 
ATOM     14  C   UNK     1       1.100   4.252  20.686  0.00  0.00    +0.000 A 
ATOM     15  C   UNK     1       0.825   3.053  20.034  0.00  0.00    +0.000 A 
ATOM     16  C   UNK     1       1.407   2.790  18.796  0.00  0.00    +0.000 A 
ATOM     17  C   UNK     1       2.265   3.725  18.204  0.00  0.00    +0.000 A 
ATOM     18 CL   UNK     1       2.933   3.324  16.659  0.00  0.00    +0.000 Cl
ENDBRANCH  11  12
ENDBRANCH  10  11
ENDBRANCH   1  10
TORSDOF 7
ENDMDL
MODEL 8
REMARK VINA RESULT:      -6.0      2.478      2.839
REMARK  Name = 
REMARK  7 active torsions:
REMARK  status: ('A' for Active; 'I' for Inactive)
REMARK    1  A    between atoms: N_1  and  C_2
REMARK    2  A    between atoms: C_2  and  C_3
REMARK    3  A    between atoms: C_2  and  C_13
REMARK    4  A    between atoms: C_3  and  S_4
REMARK    5  A    between atoms: S_4  and  C_5
REMARK    6  A    between atoms: C_5  and  C_6
REMARK    7  A    between atoms: C_13  and  O_15
REMARK                            x       y       z     vdW  Elec       q    Type
REMARK                         _______ _______ _______ _____ _____    ______ ____
ROOT
ATOM      1  C   UNK     1       5.095   5.742  16.155  0.00  0.00    +0.000 C 
ENDROOT
BRANCH   1   2
ATOM      2  C   UNK     1       5.857   4.422  15.941  0.00  0.00    +0.000 C 
BRANCH   2   3
ATOM      3  N   UNK     1       6.758   4.052  17.080  0.00  0.00    +0.000 NA
ATOM      4  H   UNK     1       7.701   3.989  16.683  0.00  0.00    +0.000 HD
ATOM      5  H   UNK     1       6.551   3.086  17.351  0.00  0.00    +0.000 HD
ENDBRANCH   2   3
BRANCH   2   6
ATOM      6  C   UNK     1       6.711   4.499  14.669  0.00  0.00    +0.000 C 
ATOM      7  O   UNK     1       7.552   5.353  14.430  0.00  0.00    +0.000 OA
BRANCH   6   8
ATOM      8  O   UNK     1       6.405   3.495  13.808  0.00  0.00    +0.000 OA
ATOM      9  H   UNK     1       6.548   2.647  14.294  0.00  0.00    +0.000 HD
ENDBRANCH   6   8
ENDBRANCH   2   6
ENDBRANCH   1   2
BRANCH   1  10
ATOM     10  S   UNK     1       4.796   6.055  17.937  0.00  0.00    +0.000 S 
BRANCH  10  11
ATOM     11  C   UNK     1       2.969   6.104  17.913  0.00  0.00    +0.000 C 
BRANCH  11  12
ATOM     12  C   UNK     1       2.370   4.829  18.458  0.00  0.00    +0.000 A 
ATOM     13  C   UNK     1       2.424   3.662  17.670  0.00  0.00    +0.000 A 
ATOM     14  C   UNK     1       1.867   2.461  18.118  0.00  0.00    +0.000 A 
ATOM     15  C   UNK     1       1.240   2.405  19.360  0.00  0.00    +0.000 A 
ATOM     16  C   UNK     1       1.174   3.548  20.154  0.00  0.00    +0.000 A 
ATOM     17  C   UNK     1       1.735   4.752  19.708  0.00  0.00    +0.000 A 
ATOM     18 CL   UNK     1       1.620   6.120  20.763  0.00  0.00    +0.000 Cl
ENDBRANCH  11  12
ENDBRANCH  10  11
ENDBRANCH   1  10
TORSDOF 7
ENDMDL
MODEL 9
REMARK VINA RESULT:      -6.0      1.783      1.902
REMARK  Name = 
REMARK  7 active torsions:
REMARK  status: ('A' for Active; 'I' for Inactive)
REMARK    1  A    between atoms: N_1  and  C_2
REMARK    2  A    between atoms: C_2  and  C_3
REMARK    3  A    between atoms: C_2  and  C_13
REMARK    4  A    between atoms: C_3  and  S_4
REMARK    5  A    between atoms: S_4  and  C_5
REMARK    6  A    between atoms: C_5  and  C_6
REMARK    7  A    between atoms: C_13  and  O_15
REMARK                            x       y       z     vdW  Elec       q    Type
REMARK                         _______ _______ _______ _____ _____    ______ ____
ROOT
ATOM      1  C   UNK     1       5.301   5.858  18.499  0.00  0.00    +0.000 C 
ENDROOT
BRANCH   1   2
ATOM      2  C   UNK     1       5.915   4.496  18.130  0.00  0.00    +0.000 C 
BRANCH   2   3
ATOM      3  N   UNK     1       5.600   3.406  19.109  0.00  0.00    +0.000 NA
ATOM      4  H   UNK     1       4.912   3.801  19.758  0.00  0.00    +0.000 HD
ATOM      5  H   UNK     1       6.424   3.259  19.700  0.00  0.00    +0.000 HD
ENDBRANCH   2   3
BRANCH   2   6
ATOM      6  C   UNK     1       7.442   4.608  18.023  0.00  0.00    +0.000 C 
ATOM      7  O   UNK     1       8.113   4.253  17.066  0.00  0.00    +0.000 OA
BRANCH   6   8
ATOM      8  O   UNK     1       7.977   5.142  19.150  0.00  0.00    +0.000 OA
ATOM      9  H   UNK     1       7.265   5.137  19.835  0.00  0.00    +0.000 HD
ENDBRANCH   6   8
ENDBRANCH   2   6
ENDBRANCH   1   2
BRANCH   1  10
ATOM     10  S   UNK     1       4.204   6.476  17.167  0.00  0.00    +0.000 S 
BRANCH  10  11
ATOM     11  C   UNK     1       2.609   6.400  18.055  0.00  0.00    +0.000 C 
BRANCH  11  12
ATOM     12  C   UNK     1       2.254   4.984  18.444  0.00  0.00    +0.000 A 
ATOM     13  C   UNK     1       2.399   3.960  17.486  0.00  0.00    +0.000 A 
ATOM     14  C   UNK     1       2.065   2.637  17.787  0.00  0.00    +0.000 A 
ATOM     15  C   UNK     1       1.576   2.312  19.049  0.00  0.00    +0.000 A 
ATOM     16  C   UNK     1       1.424   3.310  20.010  0.00  0.00    +0.000 A 
ATOM     17  C   UNK     1       1.760   4.636  19.711  0.00  0.00    +0.000 A 
ATOM     18 CL   UNK     1       1.554   5.810  20.967  0.00  0.00    +0.000 Cl
ENDBRANCH  11  12
ENDBRANCH  10  11
ENDBRANCH   1  10
TORSDOF 7
ENDMDL
