MODEL 1
REMARK VINA RESULT:      -7.5      0.000      0.000
REMARK  Name = 
REMARK  3 active torsions:
REMARK  status: ('A' for Active; 'I' for Inactive)
REMARK    1  A    between atoms: C_1  and  C_2
REMARK    2  A    between atoms: C_2  and  N_3
REMARK    3  A    between atoms: C_14  and  C_15
REMARK                            x       y       z     vdW  Elec       q    Type
REMARK                         _______ _______ _______ _____ _____    ______ ____
ROOT
ATOM      1  N   UNL     1       2.787   6.328  18.136  0.00  0.00    +0.000 N 
ATOM      2  C   UNL     1       2.203   5.245  18.845  0.00  0.00    +0.000 A 
ATOM      3  C   UNL     1       1.866   4.078  18.136  0.00  0.00    +0.000 A 
ATOM      4  C   UNL     1       1.245   2.995  18.766  0.00  0.00    +0.000 A 
ATOM      5  C   UNL     1       0.993   3.036  20.132  0.00  0.00    +0.000 A 
ATOM      6  C   UNL     1       1.342   4.169  20.862  0.00  0.00    +0.000 A 
ATOM      7  C   UNL     1       1.900   5.284  20.217  0.00  0.00    +0.000 A 
ATOM      8  N   UNL     1       2.032   6.464  20.998  0.00  0.00    +0.000 N 
ATOM      9  C   UNL     1       1.297   7.560  20.582  0.00  0.00    +0.000 C 
ATOM     10  S   UNL     1      -0.019   7.991  21.511  0.00  0.00    +0.000 S 
ATOM     11  C   UNL     1       1.666   8.241  19.348  0.00  0.00    +0.000 A 
ATOM     12  C   UNL     1       1.470   9.590  18.850  0.00  0.00    +0.000 A 
ATOM     13  N   UNL     1       2.028   9.744  17.636  0.00  0.00    +0.000 NA
ATOM     14  N   UNL     1       2.547   8.544  17.352  0.00  0.00    +0.000 N 
ATOM     15  C   UNL     1       2.374   7.614  18.332  0.00  0.00    +0.000 A 
ATOM     16  H   UNL     1       1.815   6.283  21.972  0.00  0.00    +0.000 HD
ATOM     17  H   UNL     1       2.966   8.410  16.446  0.00  0.00    +0.000 HD
ENDROOT
BRANCH  12  18
ATOM     18  C   UNL     1       0.751  10.730  19.437  0.00  0.00    +0.000 A 
ATOM     19  C   UNL     1       1.352  11.582  20.369  0.00  0.00    +0.000 A 
ATOM     20  C   UNL     1       0.587  12.514  21.076  0.00  0.00    +0.000 A 
ATOM     21  C   UNL     1      -0.764  12.676  20.782  0.00  0.00    +0.000 A 
ATOM     22  C   UNL     1      -1.344  11.926  19.763  0.00  0.00    +0.000 A 
ATOM     23  C   UNL     1      -0.592  10.954  19.098  0.00  0.00    +0.000 A 
ENDBRANCH  12  18
BRANCH   1  25
ATOM     24  C   UNL     1       5.014   5.602  19.010  0.00  0.00    +0.000 C 
ATOM     25  C   UNL     1       4.211   6.083  17.803  0.00  0.00    +0.000 C 
ENDBRANCH   1  25
TORSDOF 2
ENDMDL
MODEL 2
REMARK VINA RESULT:      -7.4      0.205      1.021
REMARK  Name = 
REMARK  3 active torsions:
REMARK  status: ('A' for Active; 'I' for Inactive)
REMARK    1  A    between atoms: C_1  and  C_2
REMARK    2  A    between atoms: C_2  and  N_3
REMARK    3  A    between atoms: C_14  and  C_15
REMARK                            x       y       z     vdW  Elec       q    Type
REMARK                         _______ _______ _______ _____ _____    ______ ____
ROOT
ATOM      1  N   UNL     1       2.749   6.419  18.126  0.00  0.00    +0.000 N 
ATOM      2  C   UNL     1       2.172   5.321  18.821  0.00  0.00    +0.000 A 
ATOM      3  C   UNL     1       1.828   4.169  18.092  0.00  0.00    +0.000 A 
ATOM      4  C   UNL     1       1.216   3.073  18.708  0.00  0.00    +0.000 A 
ATOM      5  C   UNL     1       0.978   3.087  20.077  0.00  0.00    +0.000 A 
ATOM      6  C   UNL     1       1.334   4.205  20.825  0.00  0.00    +0.000 A 
ATOM      7  C   UNL     1       1.884   5.333  20.197  0.00  0.00    +0.000 A 
ATOM      8  N   UNL     1       2.024   6.499  20.998  0.00  0.00    +0.000 N 
ATOM      9  C   UNL     1       1.284   7.602  20.612  0.00  0.00    +0.000 C 
ATOM     10  S   UNL     1      -0.022   8.013  21.564  0.00  0.00    +0.000 S 
ATOM     11  C   UNL     1       1.639   8.307  19.388  0.00  0.00    +0.000 A 
ATOM     12  C   UNL     1       1.437   9.665  18.919  0.00  0.00    +0.000 A 
ATOM     13  N   UNL     1       1.982   9.844  17.702  0.00  0.00    +0.000 NA
ATOM     14  N   UNL     1       2.498   8.650  17.389  0.00  0.00    +0.000 N 
ATOM     15  C   UNL     1       2.336   7.700  18.352  0.00  0.00    +0.000 A 
ATOM     16  H   UNL     1       1.818   6.298  21.972  0.00  0.00    +0.000 HD
ATOM     17  H   UNL     1       2.908   8.534  16.475  0.00  0.00    +0.000 HD
ENDROOT
BRANCH  12  18
ATOM     18  C   UNL     1       0.724  10.793  19.536  0.00  0.00    +0.000 A 
ATOM     19  C   UNL     1      -0.638  11.018  19.309  0.00  0.00    +0.000 A 
ATOM     20  C   UNL     1      -1.239  12.212  19.719  0.00  0.00    +0.000 A 
ATOM     21  C   UNL     1      -0.509  13.144  20.452  0.00  0.00    +0.000 A 
ATOM     22  C   UNL     1       0.811  12.872  20.799  0.00  0.00    +0.000 A 
ATOM     23  C   UNL     1       1.426  11.704  20.337  0.00  0.00    +0.000 A 
ENDBRANCH  12  18
BRANCH   1  25
ATOM     24  C   UNL     1       4.967   5.601  18.940  0.00  0.00    +0.000 C 
ATOM     25  C   UNL     1       4.168   6.181  17.774  0.00  0.00    +0.000 C 
ENDBRANCH   1  25
TORSDOF 2
ENDMDL
MODEL 3
REMARK VINA RESULT:      -6.6      3.452      7.879
REMARK  Name = 
REMARK  3 active torsions:
REMARK  status: ('A' for Active; 'I' for Inactive)
REMARK    1  A    between atoms: C_1  and  C_2
REMARK    2  A    between atoms: C_2  and  N_3
REMARK    3  A    between atoms: C_14  and  C_15
REMARK                            x       y       z     vdW  Elec       q    Type
REMARK                         _______ _______ _______ _____ _____    ______ ____
ROOT
ATOM      1  N   UNL     1      -2.558  12.950  21.499  0.00  0.00    +0.000 N 
ATOM      2  C   UNL     1      -3.816  12.713  20.883  0.00  0.00    +0.000 A 
ATOM      3  C   UNL     1      -4.965  12.671  21.693  0.00  0.00    +0.000 A 
ATOM      4  C   UNL     1      -6.226  12.396  21.155  0.00  0.00    +0.000 A 
ATOM      5  C   UNL     1      -6.373  12.205  19.787  0.00  0.00    +0.000 A 
ATOM      6  C   UNL     1      -5.255  12.269  18.960  0.00  0.00    +0.000 A 
ATOM      7  C   UNL     1      -3.979  12.474  19.508  0.00  0.00    +0.000 A 
ATOM      8  N   UNL     1      -2.878  12.319  18.622  0.00  0.00    +0.000 N 
ATOM      9  C   UNL     1      -1.993  11.297  18.917  0.00  0.00    +0.000 C 
ATOM     10  S   UNL     1      -2.019   9.957  17.924  0.00  0.00    +0.000 S 
ATOM     11  C   UNL     1      -1.135  11.411  20.088  0.00  0.00    +0.000 A 
ATOM     12  C   UNL     1       0.147  10.836  20.452  0.00  0.00    +0.000 A 
ATOM     13  N   UNL     1       0.551  11.275  21.657  0.00  0.00    +0.000 NA
ATOM     14  N   UNL     1      -0.433  12.085  22.065  0.00  0.00    +0.000 N 
ATOM     15  C   UNL     1      -1.455  12.214  21.174  0.00  0.00    +0.000 A 
ATOM     16  H   UNL     1      -3.194  12.204  17.665  0.00  0.00    +0.000 HD
ATOM     17  H   UNL     1      -0.370  12.483  22.988  0.00  0.00    +0.000 HD
ENDROOT
BRANCH  12  18
ATOM     18  C   UNL     1       0.993   9.863  19.745  0.00  0.00    +0.000 A 
ATOM     19  C   UNL     1       1.428  10.079  18.433  0.00  0.00    +0.000 A 
ATOM     20  C   UNL     1       2.037   9.050  17.708  0.00  0.00    +0.000 A 
ATOM     21  C   UNL     1       2.312   7.831  18.323  0.00  0.00    +0.000 A 
ATOM     22  C   UNL     1       2.003   7.650  19.669  0.00  0.00    +0.000 A 
ATOM     23  C   UNL     1       1.342   8.659  20.374  0.00  0.00    +0.000 A 
ENDBRANCH  12  18
BRANCH   1  25
ATOM     24  C   UNL     1      -1.807  15.212  20.742  0.00  0.00    +0.000 C 
ATOM     25  C   UNL     1      -2.376  14.370  21.883  0.00  0.00    +0.000 C 
ENDBRANCH   1  25
TORSDOF 2
ENDMDL
MODEL 4
REMARK VINA RESULT:      -6.5      3.369      7.823
REMARK  Name = 
REMARK  3 active torsions:
REMARK  status: ('A' for Active; 'I' for Inactive)
REMARK    1  A    between atoms: C_1  and  C_2
REMARK    2  A    between atoms: C_2  and  N_3
REMARK    3  A    between atoms: C_14  and  C_15
REMARK                            x       y       z     vdW  Elec       q    Type
REMARK                         _______ _______ _______ _____ _____    ______ ____
ROOT
ATOM      1  N   UNL     1      -2.351  12.876  21.542  0.00  0.00    +0.000 N 
ATOM      2  C   UNL     1      -3.640  12.734  20.962  0.00  0.00    +0.000 A 
ATOM      3  C   UNL     1      -4.765  12.769  21.805  0.00  0.00    +0.000 A 
ATOM      4  C   UNL     1      -6.058  12.589  21.302  0.00  0.00    +0.000 A 
ATOM      5  C   UNL     1      -6.257  12.419  19.938  0.00  0.00    +0.000 A 
ATOM      6  C   UNL     1      -5.161  12.409  19.079  0.00  0.00    +0.000 A 
ATOM      7  C   UNL     1      -3.859  12.518  19.590  0.00  0.00    +0.000 A 
ATOM      8  N   UNL     1      -2.798  12.291  18.672  0.00  0.00    +0.000 N 
ATOM      9  C   UNL     1      -1.981  11.206  18.935  0.00  0.00    +0.000 C 
ATOM     10  S   UNL     1      -2.132   9.879  17.936  0.00  0.00    +0.000 S 
ATOM     11  C   UNL     1      -1.083  11.249  20.082  0.00  0.00    +0.000 A 
ATOM     12  C   UNL     1       0.164  10.581  20.404  0.00  0.00    +0.000 A 
ATOM     13  N   UNL     1       0.633  10.980  21.600  0.00  0.00    +0.000 NA
ATOM     14  N   UNL     1      -0.279  11.856  22.041  0.00  0.00    +0.000 N 
ATOM     15  C   UNL     1      -1.314  12.065  21.181  0.00  0.00    +0.000 A 
ATOM     16  H   UNL     1      -3.149  12.206  17.724  0.00  0.00    +0.000 HD
ATOM     17  H   UNL     1      -0.160  12.241  22.964  0.00  0.00    +0.000 HD
ENDROOT
BRANCH  12  18
ATOM     18  C   UNL     1       0.917   9.555  19.667  0.00  0.00    +0.000 A 
ATOM     19  C   UNL     1       1.279   8.340  20.257  0.00  0.00    +0.000 A 
ATOM     20  C   UNL     1       2.180   7.482  19.618  0.00  0.00    +0.000 A 
ATOM     21  C   UNL     1       2.644   7.782  18.340  0.00  0.00    +0.000 A 
ATOM     22  C   UNL     1       2.187   8.925  17.690  0.00  0.00    +0.000 A 
ATOM     23  C   UNL     1       1.332   9.810  18.352  0.00  0.00    +0.000 A 
ENDBRANCH  12  18
BRANCH   1  25
ATOM     24  C   UNL     1      -1.469  15.086  20.774  0.00  0.00    +0.000 C 
ATOM     25  C   UNL     1      -2.056  14.276  21.928  0.00  0.00    +0.000 C 
ENDBRANCH   1  25
TORSDOF 2
ENDMDL
MODEL 5
REMARK VINA RESULT:      -6.5      1.557      1.859
REMARK  Name = 
REMARK  3 active torsions:
REMARK  status: ('A' for Active; 'I' for Inactive)
REMARK    1  A    between atoms: C_1  and  C_2
REMARK    2  A    between atoms: C_2  and  N_3
REMARK    3  A    between atoms: C_14  and  C_15
REMARK                            x       y       z     vdW  Elec       q    Type
REMARK                         _______ _______ _______ _____ _____    ______ ____
ROOT
ATOM      1  N   UNL     1       4.241   5.513  17.671  0.00  0.00    +0.000 N 
ATOM      2  C   UNL     1       3.823   4.291  18.263  0.00  0.00    +0.000 A 
ATOM      3  C   UNL     1       3.809   3.129  17.470  0.00  0.00    +0.000 A 
ATOM      4  C   UNL     1       3.364   1.905  17.979  0.00  0.00    +0.000 A 
ATOM      5  C   UNL     1       2.969   1.806  19.307  0.00  0.00    +0.000 A 
ATOM      6  C   UNL     1       2.999   2.935  20.120  0.00  0.00    +0.000 A 
ATOM      7  C   UNL     1       3.377   4.179  19.591  0.00  0.00    +0.000 A 
ATOM      8  N   UNL     1       3.182   5.309  20.431  0.00  0.00    +0.000 N 
ATOM      9  C   UNL     1       2.283   6.260  19.980  0.00  0.00    +0.000 C 
ATOM     10  S   UNL     1       0.817   6.356  20.770  0.00  0.00    +0.000 S 
ATOM     11  C   UNL     1       2.630   7.080  18.827  0.00  0.00    +0.000 A 
ATOM     12  C   UNL     1       2.212   8.391  18.368  0.00  0.00    +0.000 A 
ATOM     13  N   UNL     1       2.848   8.733  17.234  0.00  0.00    +0.000 NA
ATOM     14  N   UNL     1       3.631   7.682  16.960  0.00  0.00    +0.000 N 
ATOM     15  C   UNL     1       3.553   6.675  17.873  0.00  0.00    +0.000 A 
ATOM     16  H   UNL     1       2.907   5.025  21.366  0.00  0.00    +0.000 HD
ATOM     17  H   UNL     1       4.161   7.694  16.103  0.00  0.00    +0.000 HD
ENDROOT
BRANCH  12  18
ATOM     18  C   UNL     1       1.216   9.323  18.916  0.00  0.00    +0.000 A 
ATOM     19  C   UNL     1       1.276   9.774  20.238  0.00  0.00    +0.000 A 
ATOM     20  C   UNL     1       0.204  10.475  20.800  0.00  0.00    +0.000 A 
ATOM     21  C   UNL     1      -0.891  10.822  20.013  0.00  0.00    +0.000 A 
ATOM     22  C   UNL     1      -0.903  10.493  18.660  0.00  0.00    +0.000 A 
ATOM     23  C   UNL     1       0.143   9.742  18.116  0.00  0.00    +0.000 A 
ENDBRANCH  12  18
BRANCH   1  25
ATOM     24  C   UNL     1       6.459   5.530  18.825  0.00  0.00    +0.000 C 
ATOM     25  C   UNL     1       5.711   5.581  17.494  0.00  0.00    +0.000 C 
ENDBRANCH   1  25
TORSDOF 2
ENDMDL
MODEL 6
REMARK VINA RESULT:      -6.5      1.022      1.145
REMARK  Name = 
REMARK  3 active torsions:
REMARK  status: ('A' for Active; 'I' for Inactive)
REMARK    1  A    between atoms: C_1  and  C_2
REMARK    2  A    between atoms: C_2  and  N_3
REMARK    3  A    between atoms: C_14  and  C_15
REMARK                            x       y       z     vdW  Elec       q    Type
REMARK                         _______ _______ _______ _____ _____    ______ ____
ROOT
ATOM      1  N   UNL     1       3.504   6.259  17.736  0.00  0.00    +0.000 N 
ATOM      2  C   UNL     1       3.106   5.040  18.346  0.00  0.00    +0.000 A 
ATOM      3  C   UNL     1       2.970   3.895  17.540  0.00  0.00    +0.000 A 
ATOM      4  C   UNL     1       2.536   2.677  18.071  0.00  0.00    +0.000 A 
ATOM      5  C   UNL     1       2.275   2.564  19.431  0.00  0.00    +0.000 A 
ATOM      6  C   UNL     1       2.428   3.675  20.256  0.00  0.00    +0.000 A 
ATOM      7  C   UNL     1       2.795   4.916  19.712  0.00  0.00    +0.000 A 
ATOM      8  N   UNL     1       2.726   6.035  20.586  0.00  0.00    +0.000 N 
ATOM      9  C   UNL     1       1.821   7.024  20.246  0.00  0.00    +0.000 C 
ATOM     10  S   UNL     1       0.447   7.153  21.184  0.00  0.00    +0.000 S 
ATOM     11  C   UNL     1       2.076   7.855  19.077  0.00  0.00    +0.000 A 
ATOM     12  C   UNL     1       1.660   9.189  18.686  0.00  0.00    +0.000 A 
ATOM     13  N   UNL     1       2.189   9.532  17.498  0.00  0.00    +0.000 NA
ATOM     14  N   UNL     1       2.902   8.461  17.127  0.00  0.00    +0.000 N 
ATOM     15  C   UNL     1       2.882   7.439  18.027  0.00  0.00    +0.000 A 
ATOM     16  H   UNL     1       2.539   5.741  21.539  0.00  0.00    +0.000 HD
ATOM     17  H   UNL     1       3.341   8.473  16.221  0.00  0.00    +0.000 HD
ENDROOT
BRANCH  12  18
ATOM     18  C   UNL     1       0.759  10.143  19.349  0.00  0.00    +0.000 A 
ATOM     19  C   UNL     1       1.092  10.750  20.564  0.00  0.00    +0.000 A 
ATOM     20  C   UNL     1       0.135  11.473  21.282  0.00  0.00    +0.000 A 
ATOM     21  C   UNL     1      -1.132  11.683  20.743  0.00  0.00    +0.000 A 
ATOM     22  C   UNL     1      -1.432  11.195  19.474  0.00  0.00    +0.000 A 
ATOM     23  C   UNL     1      -0.493  10.423  18.783  0.00  0.00    +0.000 A 
ENDBRANCH  12  18
BRANCH   1  25
ATOM     24  C   UNL     1       5.207   6.188  15.906  0.00  0.00    +0.000 C 
ATOM     25  C   UNL     1       4.950   6.281  17.409  0.00  0.00    +0.000 C 
ENDBRANCH   1  25
TORSDOF 2
ENDMDL
MODEL 7
REMARK VINA RESULT:      -6.4      1.643      3.561
REMARK  Name = 
REMARK  3 active torsions:
REMARK  status: ('A' for Active; 'I' for Inactive)
REMARK    1  A    between atoms: C_1  and  C_2
REMARK    2  A    between atoms: C_2  and  N_3
REMARK    3  A    between atoms: C_14  and  C_15
REMARK                            x       y       z     vdW  Elec       q    Type
REMARK                         _______ _______ _______ _____ _____    ______ ____
ROOT
ATOM      1  N   UNL     1       3.204   5.688  19.616  0.00  0.00    +0.000 N 
ATOM      2  C   UNL     1       4.263   5.944  18.704  0.00  0.00    +0.000 A 
ATOM      3  C   UNL     1       5.545   5.448  19.003  0.00  0.00    +0.000 A 
ATOM      4  C   UNL     1       6.638   5.706  18.170  0.00  0.00    +0.000 A 
ATOM      5  C   UNL     1       6.463   6.424  16.994  0.00  0.00    +0.000 A 
ATOM      6  C   UNL     1       5.199   6.903  16.662  0.00  0.00    +0.000 A 
ATOM      7  C   UNL     1       4.116   6.706  17.532  0.00  0.00    +0.000 A 
ATOM      8  N   UNL     1       2.917   7.402  17.217  0.00  0.00    +0.000 N 
ATOM      9  C   UNL     1       2.491   8.340  18.140  0.00  0.00    +0.000 C 
ATOM     10  S   UNL     1       2.651   9.947  17.722  0.00  0.00    +0.000 S 
ATOM     11  C   UNL     1       1.984   7.893  19.431  0.00  0.00    +0.000 A 
ATOM     12  C   UNL     1       1.080   8.471  20.407  0.00  0.00    +0.000 A 
ATOM     13  N   UNL     1       0.901   7.643  21.452  0.00  0.00    +0.000 NA
ATOM     14  N   UNL     1       1.669   6.583  21.173  0.00  0.00    +0.000 N 
ATOM     15  C   UNL     1       2.328   6.667  19.984  0.00  0.00    +0.000 A 
ATOM     16  H   UNL     1       2.985   7.852  16.310  0.00  0.00    +0.000 HD
ATOM     17  H   UNL     1       1.738   5.851  21.863  0.00  0.00    +0.000 HD
ENDROOT
BRANCH  12  18
ATOM     18  C   UNL     1       0.407   9.778  20.431  0.00  0.00    +0.000 A 
ATOM     19  C   UNL     1       0.664  10.723  21.429  0.00  0.00    +0.000 A 
ATOM     20  C   UNL     1      -0.143  11.857  21.560  0.00  0.00    +0.000 A 
ATOM     21  C   UNL     1      -1.148  12.109  20.629  0.00  0.00    +0.000 A 
ATOM     22  C   UNL     1      -1.327  11.243  19.553  0.00  0.00    +0.000 A 
ATOM     23  C   UNL     1      -0.557  10.080  19.458  0.00  0.00    +0.000 A 
ENDBRANCH  12  18
BRANCH   1  25
ATOM     24  C   UNL     1       1.709   4.093  18.403  0.00  0.00    +0.000 C 
ATOM     25  C   UNL     1       2.715   4.291  19.535  0.00  0.00    +0.000 C 
ENDBRANCH   1  25
TORSDOF 2
ENDMDL
MODEL 8
REMARK VINA RESULT:      -6.4      5.008      7.792
REMARK  Name = 
REMARK  3 active torsions:
REMARK  status: ('A' for Active; 'I' for Inactive)
REMARK    1  A    between atoms: C_1  and  C_2
REMARK    2  A    between atoms: C_2  and  N_3
REMARK    3  A    between atoms: C_14  and  C_15
REMARK                            x       y       z     vdW  Elec       q    Type
REMARK                         _______ _______ _______ _____ _____    ______ ____
ROOT
ATOM      1  N   UNL     1      -3.035  11.096  17.615  0.00  0.00    +0.000 N 
ATOM      2  C   UNL     1      -1.745  11.120  18.210  0.00  0.00    +0.000 A 
ATOM      3  C   UNL     1      -0.879  10.036  17.983  0.00  0.00    +0.000 A 
ATOM      4  C   UNL     1       0.386   9.977  18.577  0.00  0.00    +0.000 A 
ATOM      5  C   UNL     1       0.830  11.026  19.373  0.00  0.00    +0.000 A 
ATOM      6  C   UNL     1       0.002  12.123  19.591  0.00  0.00    +0.000 A 
ATOM      7  C   UNL     1      -1.294  12.150  19.053  0.00  0.00    +0.000 A 
ATOM      8  N   UNL     1      -2.140  13.205  19.494  0.00  0.00    +0.000 N 
ATOM      9  C   UNL     1      -3.272  12.830  20.195  0.00  0.00    +0.000 C 
ATOM     10  S   UNL     1      -3.288  13.137  21.835  0.00  0.00    +0.000 S 
ATOM     11  C   UNL     1      -4.354  12.151  19.495  0.00  0.00    +0.000 A 
ATOM     12  C   UNL     1      -5.780  12.026  19.734  0.00  0.00    +0.000 A 
ATOM     13  N   UNL     1      -6.371  11.300  18.769  0.00  0.00    +0.000 NA
ATOM     14  N   UNL     1      -5.370  10.955  17.949  0.00  0.00    +0.000 N 
ATOM     15  C   UNL     1      -4.152  11.438  18.321  0.00  0.00    +0.000 A 
ATOM     16  H   UNL     1      -1.623  13.876  20.052  0.00  0.00    +0.000 HD
ATOM     17  H   UNL     1      -5.578  10.344  17.176  0.00  0.00    +0.000 HD
ENDROOT
BRANCH  12  18
ATOM     18  C   UNL     1      -6.610  12.517  20.844  0.00  0.00    +0.000 A 
ATOM     19  C   UNL     1      -6.771  13.883  21.096  0.00  0.00    +0.000 A 
ATOM     20  C   UNL     1      -7.374  14.321  22.279  0.00  0.00    +0.000 A 
ATOM     21  C   UNL     1      -7.916  13.397  23.169  0.00  0.00    +0.000 A 
ATOM     22  C   UNL     1      -7.879  12.039  22.864  0.00  0.00    +0.000 A 
ATOM     23  C   UNL     1      -7.224  11.601  21.710  0.00  0.00    +0.000 A 
ENDBRANCH  12  18
BRANCH   1  25
ATOM     24  C   UNL     1      -3.184  10.143  15.308  0.00  0.00    +0.000 C 
ATOM     25  C   UNL     1      -2.993  11.394  16.164  0.00  0.00    +0.000 C 
ENDBRANCH   1  25
TORSDOF 2
ENDMDL
MODEL 9
REMARK VINA RESULT:      -6.4      1.585      2.080
REMARK  Name = 
REMARK  3 active torsions:
REMARK  status: ('A' for Active; 'I' for Inactive)
REMARK    1  A    between atoms: C_1  and  C_2
REMARK    2  A    between atoms: C_2  and  N_3
REMARK    3  A    between atoms: C_14  and  C_15
REMARK                            x       y       z     vdW  Elec       q    Type
REMARK                         _______ _______ _______ _____ _____    ______ ____
ROOT
ATOM      1  N   UNL     1       4.274   5.640  17.605  0.00  0.00    +0.000 N 
ATOM      2  C   UNL     1       3.910   4.384  18.161  0.00  0.00    +0.000 A 
ATOM      3  C   UNL     1       3.934   3.248  17.332  0.00  0.00    +0.000 A 
ATOM      4  C   UNL     1       3.543   1.992  17.807  0.00  0.00    +0.000 A 
ATOM      5  C   UNL     1       3.166   1.835  19.134  0.00  0.00    +0.000 A 
ATOM      6  C   UNL     1       3.160   2.939  19.982  0.00  0.00    +0.000 A 
ATOM      7  C   UNL     1       3.484   4.213  19.490  0.00  0.00    +0.000 A 
ATOM      8  N   UNL     1       3.253   5.308  20.367  0.00  0.00    +0.000 N 
ATOM      9  C   UNL     1       2.313   6.236  19.955  0.00  0.00    +0.000 C 
ATOM     10  S   UNL     1       0.853   6.249  20.761  0.00  0.00    +0.000 S 
ATOM     11  C   UNL     1       2.615   7.104  18.825  0.00  0.00    +0.000 A 
ATOM     12  C   UNL     1       2.141   8.412  18.411  0.00  0.00    +0.000 A 
ATOM     13  N   UNL     1       2.751   8.814  17.282  0.00  0.00    +0.000 NA
ATOM     14  N   UNL     1       3.571   7.804  16.968  0.00  0.00    +0.000 N 
ATOM     15  C   UNL     1       3.543   6.766  17.850  0.00  0.00    +0.000 A 
ATOM     16  H   UNL     1       3.000   4.984  21.294  0.00  0.00    +0.000 HD
ATOM     17  H   UNL     1       4.091   7.864  16.107  0.00  0.00    +0.000 HD
ENDROOT
BRANCH  12  18
ATOM     18  C   UNL     1       1.115   9.286  18.998  0.00  0.00    +0.000 A 
ATOM     19  C   UNL     1       0.054   9.792  18.240  0.00  0.00    +0.000 A 
ATOM     20  C   UNL     1      -0.775  10.792  18.756  0.00  0.00    +0.000 A 
ATOM     21  C   UNL     1      -0.617  11.220  20.072  0.00  0.00    +0.000 A 
ATOM     22  C   UNL     1       0.352  10.628  20.879  0.00  0.00    +0.000 A 
ATOM     23  C   UNL     1       1.216   9.671  20.343  0.00  0.00    +0.000 A 
ENDBRANCH  12  18
BRANCH   1  25
ATOM     24  C   UNL     1       6.509   5.617  18.726  0.00  0.00    +0.000 C 
ATOM     25  C   UNL     1       5.738   5.771  17.416  0.00  0.00    +0.000 C 
ENDBRANCH   1  25
TORSDOF 2
ENDMDL
