MODEL 1
REMARK VINA RESULT:      -5.0      0.000      0.000
REMARK  Name = 
REMARK  6 active torsions:
REMARK  status: ('A' for Active; 'I' for Inactive)
REMARK    1  A    between atoms: C_2  and  C_3
REMARK    2  A    between atoms: C_3  and  N_4
REMARK    3  A    between atoms: N_4  and  C_5
REMARK    4  A    between atoms: N_4  and  C_6
REMARK    5  A    between atoms: C_6  and  C_7
REMARK    6  A    between atoms: C_7  and  C_9
REMARK                            x       y       z     vdW  Elec       q    Type
REMARK                         _______ _______ _______ _____ _____    ______ ____
ROOT
ATOM      1  C   UNL     1       3.781   4.317  17.834  0.00  0.00    +0.000 C 
ATOM      2  C   UNL     1       2.791   3.559  17.328  0.00  0.00    +0.000 C 
ENDROOT
BRANCH   1   3
ATOM      3  C   UNL     1       5.050   4.422  17.167  0.00  0.00    +0.000 A 
ATOM      4  C   UNL     1       6.311   4.527  17.830  0.00  0.00    +0.000 A 
ATOM      5  C   UNL     1       7.362   4.629  16.941  0.00  0.00    +0.000 A 
ATOM      6  S   UNL     1       6.828   4.611  15.316  0.00  0.00    +0.000 S 
ATOM      7  C   UNL     1       5.186   4.468  15.796  0.00  0.00    +0.000 A 
ENDBRANCH   1   3
BRANCH   1   8
ATOM      8  C   UNL     1       3.647   5.224  19.063  0.00  0.00    +0.000 C 
BRANCH   8   9
ATOM      9  N   UNL     1       2.313   5.873  19.255  0.00  0.00    +0.000 NA
ATOM     10  C   UNL     1       2.422   7.324  18.992  0.00  0.00    +0.000 C 
BRANCH   9  11
ATOM     11  C   UNL     1       1.797   5.603  20.637  0.00  0.00    +0.000 C 
BRANCH  11  13
ATOM     12  C   UNL     1       1.273   2.852  21.001  0.00  0.00    +0.000 C 
ATOM     13  C   UNL     1       1.515   4.122  20.833  0.00  0.00    +0.000 C 
ENDBRANCH  11  13
ENDBRANCH   9  11
ENDBRANCH   8   9
ENDBRANCH   1   8
TORSDOF 5
ENDMDL
MODEL 2
REMARK VINA RESULT:      -5.0      2.965      5.186
REMARK  Name = 
REMARK  6 active torsions:
REMARK  status: ('A' for Active; 'I' for Inactive)
REMARK    1  A    between atoms: C_2  and  C_3
REMARK    2  A    between atoms: C_3  and  N_4
REMARK    3  A    between atoms: N_4  and  C_5
REMARK    4  A    between atoms: N_4  and  C_6
REMARK    5  A    between atoms: C_6  and  C_7
REMARK    6  A    between atoms: C_7  and  C_9
REMARK                            x       y       z     vdW  Elec       q    Type
REMARK                         _______ _______ _______ _____ _____    ______ ____
ROOT
ATOM      1  C   UNL     1       4.070   4.906  17.186  0.00  0.00    +0.000 C 
ATOM      2  C   UNL     1       3.949   6.218  17.460  0.00  0.00    +0.000 C 
ENDROOT
BRANCH   1   3
ATOM      3  C   UNL     1       3.217   3.935  17.815  0.00  0.00    +0.000 A 
ATOM      4  C   UNL     1       3.661   2.687  18.350  0.00  0.00    +0.000 A 
ATOM      5  C   UNL     1       2.625   1.947  18.881  0.00  0.00    +0.000 A 
ATOM      6  S   UNL     1       1.122   2.748  18.724  0.00  0.00    +0.000 S 
ATOM      7  C   UNL     1       1.853   4.090  17.942  0.00  0.00    +0.000 A 
ENDBRANCH   1   3
BRANCH   1   8
ATOM      8  C   UNL     1       5.004   4.318  16.122  0.00  0.00    +0.000 C 
BRANCH   8   9
ATOM      9  N   UNL     1       6.319   5.010  15.950  0.00  0.00    +0.000 NA
ATOM     10  C   UNL     1       6.726   4.960  14.529  0.00  0.00    +0.000 C 
BRANCH   9  11
ATOM     11  C   UNL     1       7.354   4.389  16.840  0.00  0.00    +0.000 C 
BRANCH  11  13
ATOM     12  C   UNL     1       7.706   5.908  19.194  0.00  0.00    +0.000 C 
ATOM     13  C   UNL     1       7.543   5.206  18.107  0.00  0.00    +0.000 C 
ENDBRANCH  11  13
ENDBRANCH   9  11
ENDBRANCH   8   9
ENDBRANCH   1   8
TORSDOF 5
ENDMDL
MODEL 3
REMARK VINA RESULT:      -4.9      2.595      5.110
REMARK  Name = 
REMARK  6 active torsions:
REMARK  status: ('A' for Active; 'I' for Inactive)
REMARK    1  A    between atoms: C_2  and  C_3
REMARK    2  A    between atoms: C_3  and  N_4
REMARK    3  A    between atoms: N_4  and  C_5
REMARK    4  A    between atoms: N_4  and  C_6
REMARK    5  A    between atoms: C_6  and  C_7
REMARK    6  A    between atoms: C_7  and  C_9
REMARK                            x       y       z     vdW  Elec       q    Type
REMARK                         _______ _______ _______ _____ _____    ______ ____
ROOT
ATOM      1  C   UNL     1       3.471   5.765  17.892  0.00  0.00    +0.000 C 
ATOM      2  C   UNL     1       2.883   6.921  18.252  0.00  0.00    +0.000 C 
ENDROOT
BRANCH   1   3
ATOM      3  C   UNL     1       2.807   4.505  18.083  0.00  0.00    +0.000 A 
ATOM      4  C   UNL     1       3.088   3.317  17.341  0.00  0.00    +0.000 A 
ATOM      5  C   UNL     1       2.288   2.259  17.723  0.00  0.00    +0.000 A 
ATOM      6  S   UNL     1       1.194   2.702  18.963  0.00  0.00    +0.000 S 
ATOM      7  C   UNL     1       1.787   4.312  18.990  0.00  0.00    +0.000 A 
ENDBRANCH   1   3
BRANCH   1   8
ATOM      8  C   UNL     1       4.809   5.658  17.151  0.00  0.00    +0.000 C 
BRANCH   8   9
ATOM      9  N   UNL     1       5.862   4.832  17.818  0.00  0.00    +0.000 NA
ATOM     10  C   UNL     1       6.306   5.500  19.060  0.00  0.00    +0.000 C 
BRANCH   9  11
ATOM     11  C   UNL     1       7.009   4.596  16.882  0.00  0.00    +0.000 C 
BRANCH  11  13
ATOM     12  C   UNL     1       6.084   3.980  14.285  0.00  0.00    +0.000 C 
ATOM     13  C   UNL     1       6.511   4.264  15.485  0.00  0.00    +0.000 C 
ENDBRANCH  11  13
ENDBRANCH   9  11
ENDBRANCH   8   9
ENDBRANCH   1   8
TORSDOF 5
ENDMDL
MODEL 4
REMARK VINA RESULT:      -4.9      1.514      2.731
REMARK  Name = 
REMARK  6 active torsions:
REMARK  status: ('A' for Active; 'I' for Inactive)
REMARK    1  A    between atoms: C_2  and  C_3
REMARK    2  A    between atoms: C_3  and  N_4
REMARK    3  A    between atoms: N_4  and  C_5
REMARK    4  A    between atoms: N_4  and  C_6
REMARK    5  A    between atoms: C_6  and  C_7
REMARK    6  A    between atoms: C_7  and  C_9
REMARK                            x       y       z     vdW  Elec       q    Type
REMARK                         _______ _______ _______ _____ _____    ______ ____
ROOT
ATOM      1  C   UNL     1       3.399   6.116  18.483  0.00  0.00    +0.000 C 
ATOM      2  C   UNL     1       2.748   7.249  18.162  0.00  0.00    +0.000 C 
ENDROOT
BRANCH   1   3
ATOM      3  C   UNL     1       4.691   5.820  17.929  0.00  0.00    +0.000 A 
ATOM      4  C   UNL     1       5.140   6.244  16.640  0.00  0.00    +0.000 A 
ATOM      5  C   UNL     1       6.418   5.804  16.360  0.00  0.00    +0.000 A 
ATOM      6  S   UNL     1       7.068   4.873  17.641  0.00  0.00    +0.000 S 
ATOM      7  C   UNL     1       5.639   5.055  18.574  0.00  0.00    +0.000 A 
ENDBRANCH   1   3
BRANCH   1   8
ATOM      8  C   UNL     1       2.923   5.101  19.530  0.00  0.00    +0.000 C 
BRANCH   8   9
ATOM      9  N   UNL     1       1.541   4.564  19.339  0.00  0.00    +0.000 NA
ATOM     10  C   UNL     1       1.129   3.811  20.544  0.00  0.00    +0.000 C 
BRANCH   9  11
ATOM     11  C   UNL     1       1.480   3.707  18.110  0.00  0.00    +0.000 C 
BRANCH  11  13
ATOM     12  C   UNL     1       3.446   1.681  18.193  0.00  0.00    +0.000 C 
ATOM     13  C   UNL     1       2.538   2.617  18.154  0.00  0.00    +0.000 C 
ENDBRANCH  11  13
ENDBRANCH   9  11
ENDBRANCH   8   9
ENDBRANCH   1   8
TORSDOF 5
ENDMDL
MODEL 5
REMARK VINA RESULT:      -4.8      2.849      5.474
REMARK  Name = 
REMARK  6 active torsions:
REMARK  status: ('A' for Active; 'I' for Inactive)
REMARK    1  A    between atoms: C_2  and  C_3
REMARK    2  A    between atoms: C_3  and  N_4
REMARK    3  A    between atoms: N_4  and  C_5
REMARK    4  A    between atoms: N_4  and  C_6
REMARK    5  A    between atoms: C_6  and  C_7
REMARK    6  A    between atoms: C_7  and  C_9
REMARK                            x       y       z     vdW  Elec       q    Type
REMARK                         _______ _______ _______ _____ _____    ______ ____
ROOT
ATOM      1  C   UNL     1       3.028   5.960  19.082  0.00  0.00    +0.000 C 
ATOM      2  C   UNL     1       2.432   7.166  19.040  0.00  0.00    +0.000 C 
ENDROOT
BRANCH   1   3
ATOM      3  C   UNL     1       2.325   4.801  19.559  0.00  0.00    +0.000 A 
ATOM      4  C   UNL     1       1.512   3.951  18.748  0.00  0.00    +0.000 A 
ATOM      5  C   UNL     1       0.945   2.922  19.472  0.00  0.00    +0.000 A 
ATOM      6  S   UNL     1       1.379   2.990  21.126  0.00  0.00    +0.000 S 
ATOM      7  C   UNL     1       2.329   4.399  20.878  0.00  0.00    +0.000 A 
ENDBRANCH   1   3
BRANCH   1   8
ATOM      8  C   UNL     1       4.428   5.657  18.533  0.00  0.00    +0.000 C 
BRANCH   8   9
ATOM      9  N   UNL     1       4.518   5.435  17.057  0.00  0.00    +0.000 NA
ATOM     10  C   UNL     1       5.205   4.154  16.787  0.00  0.00    +0.000 C 
BRANCH   9  11
ATOM     11  C   UNL     1       5.223   6.584  16.400  0.00  0.00    +0.000 C 
BRANCH  11  13
ATOM     12  C   UNL     1       7.619   7.210  17.757  0.00  0.00    +0.000 C 
ATOM     13  C   UNL     1       6.512   6.921  17.130  0.00  0.00    +0.000 C 
ENDBRANCH  11  13
ENDBRANCH   9  11
ENDBRANCH   8   9
ENDBRANCH   1   8
TORSDOF 5
ENDMDL
MODEL 6
REMARK VINA RESULT:      -4.8      2.968      5.365
REMARK  Name = 
REMARK  6 active torsions:
REMARK  status: ('A' for Active; 'I' for Inactive)
REMARK    1  A    between atoms: C_2  and  C_3
REMARK    2  A    between atoms: C_3  and  N_4
REMARK    3  A    between atoms: N_4  and  C_5
REMARK    4  A    between atoms: N_4  and  C_6
REMARK    5  A    between atoms: C_6  and  C_7
REMARK    6  A    between atoms: C_7  and  C_9
REMARK                            x       y       z     vdW  Elec       q    Type
REMARK                         _______ _______ _______ _____ _____    ______ ____
ROOT
ATOM      1  C   UNL     1       5.796   4.841  16.227  0.00  0.00    +0.000 C 
ATOM      2  C   UNL     1       5.723   5.120  14.913  0.00  0.00    +0.000 C 
ENDROOT
BRANCH   1   3
ATOM      3  C   UNL     1       4.607   4.646  17.010  0.00  0.00    +0.000 A 
ATOM      4  C   UNL     1       3.785   5.698  17.519  0.00  0.00    +0.000 A 
ATOM      5  C   UNL     1       2.717   5.221  18.250  0.00  0.00    +0.000 A 
ATOM      6  S   UNL     1       2.712   3.512  18.334  0.00  0.00    +0.000 S 
ATOM      7  C   UNL     1       4.143   3.405  17.392  0.00  0.00    +0.000 A 
ENDBRANCH   1   3
BRANCH   1   8
ATOM      8  C   UNL     1       7.097   4.585  16.996  0.00  0.00    +0.000 C 
BRANCH   8   9
ATOM      9  N   UNL     1       7.693   5.770  17.688  0.00  0.00    +0.000 NA
ATOM     10  C   UNL     1       7.411   5.693  19.137  0.00  0.00    +0.000 C 
BRANCH   9  11
ATOM     11  C   UNL     1       7.164   7.040  17.092  0.00  0.00    +0.000 C 
BRANCH  11  13
ATOM     12  C   UNL     1       8.442   9.293  18.218  0.00  0.00    +0.000 C 
ATOM     13  C   UNL     1       7.852   8.252  17.698  0.00  0.00    +0.000 C 
ENDBRANCH  11  13
ENDBRANCH   9  11
ENDBRANCH   8   9
ENDBRANCH   1   8
TORSDOF 5
ENDMDL
MODEL 7
REMARK VINA RESULT:      -4.8      2.421      4.841
REMARK  Name = 
REMARK  6 active torsions:
REMARK  status: ('A' for Active; 'I' for Inactive)
REMARK    1  A    between atoms: C_2  and  C_3
REMARK    2  A    between atoms: C_3  and  N_4
REMARK    3  A    between atoms: N_4  and  C_5
REMARK    4  A    between atoms: N_4  and  C_6
REMARK    5  A    between atoms: C_6  and  C_7
REMARK    6  A    between atoms: C_7  and  C_9
REMARK                            x       y       z     vdW  Elec       q    Type
REMARK                         _______ _______ _______ _____ _____    ______ ____
ROOT
ATOM      1  C   UNL     1       4.061   6.017  17.969  0.00  0.00    +0.000 C 
ATOM      2  C   UNL     1       3.183   7.036  17.970  0.00  0.00    +0.000 C 
ENDROOT
BRANCH   1   3
ATOM      3  C   UNL     1       3.639   4.674  18.262  0.00  0.00    +0.000 A 
ATOM      4  C   UNL     1       3.595   4.102  19.570  0.00  0.00    +0.000 A 
ATOM      5  C   UNL     1       3.165   2.791  19.554  0.00  0.00    +0.000 A 
ATOM      6  S   UNL     1       2.828   2.249  17.966  0.00  0.00    +0.000 S 
ATOM      7  C   UNL     1       3.259   3.769  17.294  0.00  0.00    +0.000 A 
ENDBRANCH   1   3
BRANCH   1   8
ATOM      8  C   UNL     1       5.533   6.130  17.553  0.00  0.00    +0.000 C 
BRANCH   8   9
ATOM      9  N   UNL     1       6.451   5.086  18.104  0.00  0.00    +0.000 NA
ATOM     10  C   UNL     1       7.205   5.640  19.248  0.00  0.00    +0.000 C 
BRANCH   9  11
ATOM     11  C   UNL     1       7.371   4.584  17.031  0.00  0.00    +0.000 C 
BRANCH  11  13
ATOM     12  C   UNL     1       5.954   4.078  14.641  0.00  0.00    +0.000 C 
ATOM     13  C   UNL     1       6.609   4.311  15.745  0.00  0.00    +0.000 C 
ENDBRANCH  11  13
ENDBRANCH   9  11
ENDBRANCH   8   9
ENDBRANCH   1   8
TORSDOF 5
ENDMDL
MODEL 8
REMARK VINA RESULT:      -4.8      1.135      2.305
REMARK  Name = 
REMARK  6 active torsions:
REMARK  status: ('A' for Active; 'I' for Inactive)
REMARK    1  A    between atoms: C_2  and  C_3
REMARK    2  A    between atoms: C_3  and  N_4
REMARK    3  A    between atoms: N_4  and  C_5
REMARK    4  A    between atoms: N_4  and  C_6
REMARK    5  A    between atoms: C_6  and  C_7
REMARK    6  A    between atoms: C_7  and  C_9
REMARK                            x       y       z     vdW  Elec       q    Type
REMARK                         _______ _______ _______ _____ _____    ______ ____
ROOT
ATOM      1  C   UNL     1       3.992   6.228  17.981  0.00  0.00    +0.000 C 
ATOM      2  C   UNL     1       3.519   7.431  17.607  0.00  0.00    +0.000 C 
ENDROOT
BRANCH   1   3
ATOM      3  C   UNL     1       5.141   5.651  17.339  0.00  0.00    +0.000 A 
ATOM      4  C   UNL     1       6.226   5.022  18.023  0.00  0.00    +0.000 A 
ATOM      5  C   UNL     1       7.201   4.571  17.157  0.00  0.00    +0.000 A 
ATOM      6  S   UNL     1       6.815   4.918  15.526  0.00  0.00    +0.000 S 
ATOM      7  C   UNL     1       5.341   5.674  15.975  0.00  0.00    +0.000 A 
ENDBRANCH   1   3
BRANCH   1   8
ATOM      8  C   UNL     1       3.468   5.413  19.169  0.00  0.00    +0.000 C 
BRANCH   8   9
ATOM      9  N   UNL     1       2.020   5.042  19.120  0.00  0.00    +0.000 NA
ATOM     10  C   UNL     1       1.629   4.397  20.392  0.00  0.00    +0.000 C 
BRANCH   9  11
ATOM     11  C   UNL     1       1.752   4.148  17.946  0.00  0.00    +0.000 C 
BRANCH  11  13
ATOM     12  C   UNL     1       3.356   1.826  18.056  0.00  0.00    +0.000 C 
ATOM     13  C   UNL     1       2.615   2.899  18.005  0.00  0.00    +0.000 C 
ENDBRANCH  11  13
ENDBRANCH   9  11
ENDBRANCH   8   9
ENDBRANCH   1   8
TORSDOF 5
ENDMDL
MODEL 9
REMARK VINA RESULT:      -4.8      2.619      5.308
REMARK  Name = 
REMARK  6 active torsions:
REMARK  status: ('A' for Active; 'I' for Inactive)
REMARK    1  A    between atoms: C_2  and  C_3
REMARK    2  A    between atoms: C_3  and  N_4
REMARK    3  A    between atoms: N_4  and  C_5
REMARK    4  A    between atoms: N_4  and  C_6
REMARK    5  A    between atoms: C_6  and  C_7
REMARK    6  A    between atoms: C_7  and  C_9
REMARK                            x       y       z     vdW  Elec       q    Type
REMARK                         _______ _______ _______ _____ _____    ______ ____
ROOT
ATOM      1  C   UNL     1       2.967   6.381  18.043  0.00  0.00    +0.000 C 
ATOM      2  C   UNL     1       2.480   7.629  18.171  0.00  0.00    +0.000 C 
ENDROOT
BRANCH   1   3
ATOM      3  C   UNL     1       2.285   5.256  18.621  0.00  0.00    +0.000 A 
ATOM      4  C   UNL     1       1.626   4.232  17.874  0.00  0.00    +0.000 A 
ATOM      5  C   UNL     1       1.042   3.283  18.689  0.00  0.00    +0.000 A 
ATOM      6  S   UNL     1       1.277   3.634  20.347  0.00  0.00    +0.000 S 
ATOM      7  C   UNL     1       2.161   5.058  19.980  0.00  0.00    +0.000 A 
ENDBRANCH   1   3
BRANCH   1   8
ATOM      8  C   UNL     1       4.188   6.001  17.196  0.00  0.00    +0.000 C 
BRANCH   8   9
ATOM      9  N   UNL     1       5.069   4.933  17.760  0.00  0.00    +0.000 NA
ATOM     10  C   UNL     1       6.418   5.483  18.014  0.00  0.00    +0.000 C 
BRANCH   9  11
ATOM     11  C   UNL     1       5.122   3.757  16.831  0.00  0.00    +0.000 C 
BRANCH  11  13
ATOM     12  C   UNL     1       6.287   4.473  14.360  0.00  0.00    +0.000 C 
ATOM     13  C   UNL     1       5.749   4.142  15.501  0.00  0.00    +0.000 C 
ENDBRANCH  11  13
ENDBRANCH   9  11
ENDBRANCH   8   9
ENDBRANCH   1   8
TORSDOF 5
ENDMDL
