MODEL 1
REMARK VINA RESULT:      -7.7      0.000      0.000
REMARK  Name = 
REMARK  5 active torsions:
REMARK  status: ('A' for Active; 'I' for Inactive)
REMARK    1  A    between atoms: C_1  and  C_2
REMARK    2  A    between atoms: C_6  and  N_7
REMARK    3  A    between atoms: N_13  and  C_14
REMARK    4  A    between atoms: C_17  and  N_18
REMARK    5  A    between atoms: C_26  and  C_27
REMARK                            x       y       z     vdW  Elec       q    Type
REMARK                         _______ _______ _______ _____ _____    ______ ____
ROOT
ATOM      1  N   UNL     1      -2.545  13.392  22.627  0.00  0.00    +0.000 N 
ATOM      2  C   UNL     1      -3.303  12.627  21.634  0.00  0.00    +0.000 C 
ATOM      3  C   UNL     1      -2.401  12.269  20.438  0.00  0.00    +0.000 C 
ATOM      4  N   UNL     1      -1.107  11.692  20.840  0.00  0.00    +0.000 N 
ATOM      5  C   UNL     1      -0.571  10.728  20.000  0.00  0.00    +0.000 C 
ATOM      6  O   UNL     1      -1.155  10.411  18.966  0.00  0.00    +0.000 OA
ATOM      7  N   UNL     1       0.585  10.127  20.444  0.00  0.00    +0.000 N 
ATOM      8  C   UNL     1      -0.389  12.449  21.899  0.00  0.00    +0.000 C 
ATOM      9  C   UNL     1       0.186  13.762  21.349  0.00  0.00    +0.000 C 
ATOM     10  C   UNL     1      -1.329  12.716  23.104  0.00  0.00    +0.000 C 
ATOM     11  H   UNL     1       0.793  10.222  21.424  0.00  0.00    +0.000 HD
ENDROOT
BRANCH   1  17
ATOM     12  C   UNL     1      -6.265  16.284  23.431  0.00  0.00    +0.000 C 
ATOM     13  C   UNL     1      -4.875  15.863  23.804  0.00  0.00    +0.000 A 
ATOM     14  C   UNL     1      -4.224  16.459  24.871  0.00  0.00    +0.000 A 
ATOM     15  C   UNL     1      -2.947  16.028  25.180  0.00  0.00    +0.000 A 
ATOM     16  C   UNL     1      -2.363  15.021  24.416  0.00  0.00    +0.000 A 
ATOM     17  C   UNL     1      -3.054  14.448  23.349  0.00  0.00    +0.000 A 
ATOM     18  N   UNL     1      -4.309  14.881  23.061  0.00  0.00    +0.000 NA
ENDBRANCH   1  17
BRANCH   7  19
ATOM     19  C   UNL     1       1.277   9.081  19.786  0.00  0.00    +0.000 A 
ATOM     20  C   UNL     1       1.661   9.137  18.450  0.00  0.00    +0.000 A 
ATOM     21  C   UNL     1       2.233   8.024  17.820  0.00  0.00    +0.000 A 
ATOM     22  C   UNL     1       2.460   6.812  18.490  0.00  0.00    +0.000 A 
ATOM     23  C   UNL     1       2.166   6.826  19.867  0.00  0.00    +0.000 A 
ATOM     24  F   UNL     1       2.397   5.745  20.632  0.00  0.00    +0.000 F 
ATOM     25  C   UNL     1       1.579   7.928  20.507  0.00  0.00    +0.000 A 
BRANCH  22  26
ATOM     26  N   UNL     1       2.954   5.721  17.796  0.00  0.00    +0.000 N 
ATOM     27  C   UNL     1       2.209   4.459  17.745  0.00  0.00    +0.000 C 
ATOM     28  C   UNL     1       3.287   3.390  17.874  0.00  0.00    +0.000 C 
ATOM     29  C   UNL     1       4.478   4.018  17.173  0.00  0.00    +0.000 C 
ATOM     30  C   UNL     1       4.378   5.497  17.549  0.00  0.00    +0.000 C 
ENDBRANCH  22  26
ENDBRANCH   7  19
TORSDOF 3
ENDMDL
MODEL 2
REMARK VINA RESULT:      -7.6      2.286      3.749
REMARK  Name = 
REMARK  5 active torsions:
REMARK  status: ('A' for Active; 'I' for Inactive)
REMARK    1  A    between atoms: C_1  and  C_2
REMARK    2  A    between atoms: C_6  and  N_7
REMARK    3  A    between atoms: N_13  and  C_14
REMARK    4  A    between atoms: C_17  and  N_18
REMARK    5  A    between atoms: C_26  and  C_27
REMARK                            x       y       z     vdW  Elec       q    Type
REMARK                         _______ _______ _______ _____ _____    ______ ____
ROOT
ATOM      1  N   UNL     1      -0.361  11.022  22.371  0.00  0.00    +0.000 N 
ATOM      2  C   UNL     1       0.058   9.802  23.066  0.00  0.00    +0.000 C 
ATOM      3  C   UNL     1       0.084   8.615  22.086  0.00  0.00    +0.000 C 
ATOM      4  N   UNL     1       0.796   8.915  20.831  0.00  0.00    +0.000 N 
ATOM      5  C   UNL     1       1.492   7.866  20.249  0.00  0.00    +0.000 C 
ATOM      6  O   UNL     1       1.477   6.749  20.762  0.00  0.00    +0.000 OA
ATOM      7  N   UNL     1       2.235   8.190  19.136  0.00  0.00    +0.000 N 
ATOM      8  C   UNL     1       0.402  10.192  20.181  0.00  0.00    +0.000 C 
ATOM      9  C   UNL     1      -0.994  10.087  19.552  0.00  0.00    +0.000 C 
ATOM     10  C   UNL     1       0.464  11.358  21.202  0.00  0.00    +0.000 C 
ATOM     11  H   UNL     1       2.434   9.166  18.997  0.00  0.00    +0.000 HD
ENDROOT
BRANCH   1  17
ATOM     12  C   UNL     1      -0.763  15.500  23.996  0.00  0.00    +0.000 C 
ATOM     13  C   UNL     1      -1.428  14.193  23.686  0.00  0.00    +0.000 A 
ATOM     14  C   UNL     1      -2.794  14.042  23.862  0.00  0.00    +0.000 A 
ATOM     15  C   UNL     1      -3.361  12.819  23.553  0.00  0.00    +0.000 A 
ATOM     16  C   UNL     1      -2.550  11.790  23.080  0.00  0.00    +0.000 A 
ATOM     17  C   UNL     1      -1.179  11.986  22.918  0.00  0.00    +0.000 A 
ATOM     18  N   UNL     1      -0.638  13.193  23.224  0.00  0.00    +0.000 NA
ENDBRANCH   1  17
BRANCH   7  19
ATOM     19  C   UNL     1       3.068   7.302  18.412  0.00  0.00    +0.000 A 
ATOM     20  C   UNL     1       4.267   7.685  17.820  0.00  0.00    +0.000 A 
ATOM     21  C   UNL     1       4.987   6.795  17.013  0.00  0.00    +0.000 A 
ATOM     22  C   UNL     1       4.555   5.483  16.768  0.00  0.00    +0.000 A 
ATOM     23  C   UNL     1       3.400   5.091  17.472  0.00  0.00    +0.000 A 
ATOM     24  F   UNL     1       2.920   3.840  17.367  0.00  0.00    +0.000 F 
ATOM     25  C   UNL     1       2.661   5.977  18.270  0.00  0.00    +0.000 A 
BRANCH  22  26
ATOM     26  N   UNL     1       5.265   4.673  15.897  0.00  0.00    +0.000 N 
ATOM     27  C   UNL     1       6.707   4.469  16.064  0.00  0.00    +0.000 C 
ATOM     28  C   UNL     1       7.248   4.487  14.640  0.00  0.00    +0.000 C 
ATOM     29  C   UNL     1       6.115   3.877  13.835  0.00  0.00    +0.000 C 
ATOM     30  C   UNL     1       4.858   4.420  14.516  0.00  0.00    +0.000 C 
ENDBRANCH  22  26
ENDBRANCH   7  19
TORSDOF 3
ENDMDL
MODEL 3
REMARK VINA RESULT:      -7.6      2.197      3.526
REMARK  Name = 
REMARK  5 active torsions:
REMARK  status: ('A' for Active; 'I' for Inactive)
REMARK    1  A    between atoms: C_1  and  C_2
REMARK    2  A    between atoms: C_6  and  N_7
REMARK    3  A    between atoms: N_13  and  C_14
REMARK    4  A    between atoms: C_17  and  N_18
REMARK    5  A    between atoms: C_26  and  C_27
REMARK                            x       y       z     vdW  Elec       q    Type
REMARK                         _______ _______ _______ _____ _____    ______ ____
ROOT
ATOM      1  N   UNL     1      -0.591  11.242  22.091  0.00  0.00    +0.000 N 
ATOM      2  C   UNL     1      -0.142  10.078  22.859  0.00  0.00    +0.000 C 
ATOM      3  C   UNL     1      -0.077   8.836  21.952  0.00  0.00    +0.000 C 
ATOM      4  N   UNL     1       0.633   9.081  20.684  0.00  0.00    +0.000 N 
ATOM      5  C   UNL     1       1.363   8.019  20.168  0.00  0.00    +0.000 C 
ATOM      6  O   UNL     1       1.376   6.935  20.746  0.00  0.00    +0.000 OA
ATOM      7  N   UNL     1       2.102   8.297  19.041  0.00  0.00    +0.000 N 
ATOM      8  C   UNL     1       0.209  10.306  19.957  0.00  0.00    +0.000 C 
ATOM      9  C   UNL     1      -1.180  10.124  19.329  0.00  0.00    +0.000 C 
ATOM     10  C   UNL     1       0.232  11.532  20.907  0.00  0.00    +0.000 C 
ATOM     11  H   UNL     1       2.275   9.269  18.845  0.00  0.00    +0.000 HD
ENDROOT
BRANCH   1  17
ATOM     12  C   UNL     1      -4.476  12.249  24.687  0.00  0.00    +0.000 C 
ATOM     13  C   UNL     1      -3.319  12.753  23.878  0.00  0.00    +0.000 A 
ATOM     14  C   UNL     1      -3.103  14.114  23.735  0.00  0.00    +0.000 A 
ATOM     15  C   UNL     1      -2.016  14.527  22.987  0.00  0.00    +0.000 A 
ATOM     16  C   UNL     1      -1.184  13.573  22.406  0.00  0.00    +0.000 A 
ATOM     17  C   UNL     1      -1.439  12.213  22.576  0.00  0.00    +0.000 A 
ATOM     18  N   UNL     1      -2.509  11.824  23.315  0.00  0.00    +0.000 NA
ENDBRANCH   1  17
BRANCH   7  19
ATOM     19  C   UNL     1       2.964   7.392  18.375  0.00  0.00    +0.000 A 
ATOM     20  C   UNL     1       4.205   7.752  17.859  0.00  0.00    +0.000 A 
ATOM     21  C   UNL     1       4.959   6.846  17.102  0.00  0.00    +0.000 A 
ATOM     22  C   UNL     1       4.521   5.540  16.835  0.00  0.00    +0.000 A 
ATOM     23  C   UNL     1       3.317   5.172  17.466  0.00  0.00    +0.000 A 
ATOM     24  F   UNL     1       2.823   3.928  17.336  0.00  0.00    +0.000 F 
ATOM     25  C   UNL     1       2.545   6.074  18.213  0.00  0.00    +0.000 A 
BRANCH  22  26
ATOM     26  N   UNL     1       5.271   4.715  16.014  0.00  0.00    +0.000 N 
ATOM     27  C   UNL     1       6.711   4.544  16.229  0.00  0.00    +0.000 C 
ATOM     28  C   UNL     1       7.293   4.522  14.821  0.00  0.00    +0.000 C 
ATOM     29  C   UNL     1       6.195   3.863  14.007  0.00  0.00    +0.000 C 
ATOM     30  C   UNL     1       4.908   4.405  14.632  0.00  0.00    +0.000 C 
ENDBRANCH  22  26
ENDBRANCH   7  19
TORSDOF 3
ENDMDL
MODEL 4
REMARK VINA RESULT:      -7.4      1.080      1.393
REMARK  Name = 
REMARK  5 active torsions:
REMARK  status: ('A' for Active; 'I' for Inactive)
REMARK    1  A    between atoms: C_1  and  C_2
REMARK    2  A    between atoms: C_6  and  N_7
REMARK    3  A    between atoms: N_13  and  C_14
REMARK    4  A    between atoms: C_17  and  N_18
REMARK    5  A    between atoms: C_26  and  C_27
REMARK                            x       y       z     vdW  Elec       q    Type
REMARK                         _______ _______ _______ _____ _____    ______ ____
ROOT
ATOM      1  N   UNL     1      -2.935  13.427  22.481  0.00  0.00    +0.000 N 
ATOM      2  C   UNL     1      -3.530  12.781  21.308  0.00  0.00    +0.000 C 
ATOM      3  C   UNL     1      -2.433  12.389  20.303  0.00  0.00    +0.000 C 
ATOM      4  N   UNL     1      -1.305  11.673  20.926  0.00  0.00    +0.000 N 
ATOM      5  C   UNL     1      -0.689  10.698  20.155  0.00  0.00    +0.000 C 
ATOM      6  O   UNL     1      -1.068  10.482  19.006  0.00  0.00    +0.000 OA
ATOM      7  N   UNL     1       0.292   9.970  20.789  0.00  0.00    +0.000 N 
ATOM      8  C   UNL     1      -0.763  12.312  22.153  0.00  0.00    +0.000 C 
ATOM      9  C   UNL     1       0.024  13.586  21.814  0.00  0.00    +0.000 C 
ATOM     10  C   UNL     1      -1.908  12.617  23.154  0.00  0.00    +0.000 C 
ATOM     11  H   UNL     1       0.298  10.004  21.794  0.00  0.00    +0.000 HD
ENDROOT
BRANCH   1  17
ATOM     12  C   UNL     1      -6.923  15.768  23.690  0.00  0.00    +0.000 C 
ATOM     13  C   UNL     1      -5.432  15.651  23.797  0.00  0.00    +0.000 A 
ATOM     14  C   UNL     1      -4.717  16.524  24.600  0.00  0.00    +0.000 A 
ATOM     15  C   UNL     1      -3.344  16.368  24.672  0.00  0.00    +0.000 A 
ATOM     16  C   UNL     1      -2.733  15.352  23.943  0.00  0.00    +0.000 A 
ATOM     17  C   UNL     1      -3.492  14.496  23.147  0.00  0.00    +0.000 A 
ATOM     18  N   UNL     1      -4.839  14.660  23.088  0.00  0.00    +0.000 NA
ENDBRANCH   1  17
BRANCH   7  19
ATOM     19  C   UNL     1       1.015   8.891  20.223  0.00  0.00    +0.000 A 
ATOM     20  C   UNL     1       1.235   7.686  20.883  0.00  0.00    +0.000 A 
ATOM     21  C   UNL     1       2.061   6.702  20.324  0.00  0.00    +0.000 A 
ATOM     22  C   UNL     1       2.695   6.866  19.083  0.00  0.00    +0.000 A 
ATOM     23  C   UNL     1       2.361   8.046  18.392  0.00  0.00    +0.000 A 
ATOM     24  F   UNL     1       2.857   8.291  17.166  0.00  0.00    +0.000 F 
ATOM     25  C   UNL     1       1.548   9.046  18.946  0.00  0.00    +0.000 A 
BRANCH  22  26
ATOM     26  N   UNL     1       3.564   5.893  18.618  0.00  0.00    +0.000 N 
ATOM     27  C   UNL     1       3.118   4.880  17.656  0.00  0.00    +0.000 C 
ATOM     28  C   UNL     1       3.791   3.600  18.132  0.00  0.00    +0.000 C 
ATOM     29  C   UNL     1       5.104   4.096  18.709  0.00  0.00    +0.000 C 
ATOM     30  C   UNL     1       4.727   5.423  19.369  0.00  0.00    +0.000 C 
ENDBRANCH  22  26
ENDBRANCH   7  19
TORSDOF 3
ENDMDL
MODEL 5
REMARK VINA RESULT:      -7.3      3.342      3.859
REMARK  Name = 
REMARK  5 active torsions:
REMARK  status: ('A' for Active; 'I' for Inactive)
REMARK    1  A    between atoms: C_1  and  C_2
REMARK    2  A    between atoms: C_6  and  N_7
REMARK    3  A    between atoms: N_13  and  C_14
REMARK    4  A    between atoms: C_17  and  N_18
REMARK    5  A    between atoms: C_26  and  C_27
REMARK                            x       y       z     vdW  Elec       q    Type
REMARK                         _______ _______ _______ _____ _____    ______ ____
ROOT
ATOM      1  N   UNL     1       0.172  14.496  19.590  0.00  0.00    +0.000 N 
ATOM      2  C   UNL     1      -0.976  13.622  19.333  0.00  0.00    +0.000 C 
ATOM      3  C   UNL     1      -0.560  12.453  18.421  0.00  0.00    +0.000 C 
ATOM      4  N   UNL     1       0.672  11.779  18.867  0.00  0.00    +0.000 N 
ATOM      5  C   UNL     1       0.746  10.413  18.642  0.00  0.00    +0.000 C 
ATOM      6  O   UNL     1      -0.171   9.826  18.073  0.00  0.00    +0.000 OA
ATOM      7  N   UNL     1       1.857   9.784  19.157  0.00  0.00    +0.000 N 
ATOM      8  C   UNL     1       1.801  12.692  19.188  0.00  0.00    +0.000 C 
ATOM      9  C   UNL     1       2.403  13.298  17.912  0.00  0.00    +0.000 C 
ATOM     10  C   UNL     1       1.336  13.804  20.164  0.00  0.00    +0.000 C 
ATOM     11  H   UNL     1       2.368  10.284  19.866  0.00  0.00    +0.000 HD
ENDROOT
BRANCH   1  17
ATOM     12  C   UNL     1      -0.829  18.592  17.338  0.00  0.00    +0.000 C 
ATOM     13  C   UNL     1      -0.420  17.901  18.604  0.00  0.00    +0.000 A 
ATOM     14  C   UNL     1      -0.231  18.627  19.768  0.00  0.00    +0.000 A 
ATOM     15  C   UNL     1       0.137  17.942  20.912  0.00  0.00    +0.000 A 
ATOM     16  C   UNL     1       0.304  16.560  20.857  0.00  0.00    +0.000 A 
ATOM     17  C   UNL     1       0.102  15.869  19.663  0.00  0.00    +0.000 A 
ATOM     18  N   UNL     1      -0.260  16.557  18.549  0.00  0.00    +0.000 NA
ENDBRANCH   1  17
BRANCH   7  19
ATOM     19  C   UNL     1       2.119   8.393  19.101  0.00  0.00    +0.000 A 
ATOM     20  C   UNL     1       2.618   7.751  17.972  0.00  0.00    +0.000 A 
ATOM     21  C   UNL     1       2.740   6.357  17.935  0.00  0.00    +0.000 A 
ATOM     22  C   UNL     1       2.386   5.539  19.019  0.00  0.00    +0.000 A 
ATOM     23  C   UNL     1       1.993   6.227  20.183  0.00  0.00    +0.000 A 
ATOM     24  F   UNL     1       1.686   5.558  21.308  0.00  0.00    +0.000 F 
ATOM     25  C   UNL     1       1.852   7.622  20.230  0.00  0.00    +0.000 A 
BRANCH  22  26
ATOM     26  N   UNL     1       2.453   4.161  18.896  0.00  0.00    +0.000 N 
ATOM     27  C   UNL     1       3.724   3.450  19.060  0.00  0.00    +0.000 C 
ATOM     28  C   UNL     1       3.687   2.376  17.980  0.00  0.00    +0.000 C 
ATOM     29  C   UNL     1       2.212   2.030  17.892  0.00  0.00    +0.000 C 
ATOM     30  C   UNL     1       1.514   3.375  18.097  0.00  0.00    +0.000 C 
ENDBRANCH  22  26
ENDBRANCH   7  19
TORSDOF 3
ENDMDL
MODEL 6
REMARK VINA RESULT:      -7.3      1.861      2.171
REMARK  Name = 
REMARK  5 active torsions:
REMARK  status: ('A' for Active; 'I' for Inactive)
REMARK    1  A    between atoms: C_1  and  C_2
REMARK    2  A    between atoms: C_6  and  N_7
REMARK    3  A    between atoms: N_13  and  C_14
REMARK    4  A    between atoms: C_17  and  N_18
REMARK    5  A    between atoms: C_26  and  C_27
REMARK                            x       y       z     vdW  Elec       q    Type
REMARK                         _______ _______ _______ _____ _____    ______ ____
ROOT
ATOM      1  N   UNL     1      -3.854  13.093  20.538  0.00  0.00    +0.000 N 
ATOM      2  C   UNL     1      -4.237  12.108  19.523  0.00  0.00    +0.000 C 
ATOM      3  C   UNL     1      -3.042  11.802  18.602  0.00  0.00    +0.000 C 
ATOM      4  N   UNL     1      -1.801  11.511  19.341  0.00  0.00    +0.000 N 
ATOM      5  C   UNL     1      -0.945  10.580  18.771  0.00  0.00    +0.000 C 
ATOM      6  O   UNL     1      -1.220  10.061  17.692  0.00  0.00    +0.000 OA
ATOM      7  N   UNL     1       0.157  10.245  19.525  0.00  0.00    +0.000 N 
ATOM      8  C   UNL     1      -1.470  12.486  20.413  0.00  0.00    +0.000 C 
ATOM      9  C   UNL     1      -0.994  13.820  19.820  0.00  0.00    +0.000 C 
ATOM     10  C   UNL     1      -2.690  12.698  21.346  0.00  0.00    +0.000 C 
ATOM     11  H   UNL     1       0.118  10.473  20.504  0.00  0.00    +0.000 HD
ENDROOT
BRANCH   1  17
ATOM     12  C   UNL     1      -7.751  14.306  23.025  0.00  0.00    +0.000 C 
ATOM     13  C   UNL     1      -6.556  14.747  22.235  0.00  0.00    +0.000 A 
ATOM     14  C   UNL     1      -6.281  16.095  22.073  0.00  0.00    +0.000 A 
ATOM     15  C   UNL     1      -5.162  16.449  21.342  0.00  0.00    +0.000 A 
ATOM     16  C   UNL     1      -4.357  15.451  20.798  0.00  0.00    +0.000 A 
ATOM     17  C   UNL     1      -4.672  14.106  20.986  0.00  0.00    +0.000 A 
ATOM     18  N   UNL     1      -5.773  13.775  21.707  0.00  0.00    +0.000 NA
ENDBRANCH   1  17
BRANCH   7  19
ATOM     19  C   UNL     1       1.134   9.281  19.176  0.00  0.00    +0.000 A 
ATOM     20  C   UNL     1       1.872   9.327  17.997  0.00  0.00    +0.000 A 
ATOM     21  C   UNL     1       2.734   8.281  17.648  0.00  0.00    +0.000 A 
ATOM     22  C   UNL     1       2.913   7.149  18.458  0.00  0.00    +0.000 A 
ATOM     23  C   UNL     1       2.241   7.186  19.695  0.00  0.00    +0.000 A 
ATOM     24  F   UNL     1       2.380   6.188  20.584  0.00  0.00    +0.000 F 
ATOM     25  C   UNL     1       1.362   8.220  20.050  0.00  0.00    +0.000 A 
BRANCH  22  26
ATOM     26  N   UNL     1       3.718   6.109  18.023  0.00  0.00    +0.000 N 
ATOM     27  C   UNL     1       5.001   6.373  17.365  0.00  0.00    +0.000 C 
ATOM     28  C   UNL     1       5.061   5.337  16.249  0.00  0.00    +0.000 C 
ATOM     29  C   UNL     1       4.330   4.148  16.844  0.00  0.00    +0.000 C 
ATOM     30  C   UNL     1       3.205   4.789  17.659  0.00  0.00    +0.000 C 
ENDBRANCH  22  26
ENDBRANCH   7  19
TORSDOF 3
ENDMDL
MODEL 7
REMARK VINA RESULT:      -7.2      2.427      3.267
REMARK  Name = 
REMARK  5 active torsions:
REMARK  status: ('A' for Active; 'I' for Inactive)
REMARK    1  A    between atoms: C_1  and  C_2
REMARK    2  A    between atoms: C_6  and  N_7
REMARK    3  A    between atoms: N_13  and  C_14
REMARK    4  A    between atoms: C_17  and  N_18
REMARK    5  A    between atoms: C_26  and  C_27
REMARK                            x       y       z     vdW  Elec       q    Type
REMARK                         _______ _______ _______ _____ _____    ______ ____
ROOT
ATOM      1  N   UNL     1      -0.303  14.191  19.784  0.00  0.00    +0.000 N 
ATOM      2  C   UNL     1      -1.367  13.254  19.414  0.00  0.00    +0.000 C 
ATOM      3  C   UNL     1      -0.821  12.187  18.447  0.00  0.00    +0.000 C 
ATOM      4  N   UNL     1       0.439  11.578  18.907  0.00  0.00    +0.000 N 
ATOM      5  C   UNL     1       0.630  10.240  18.595  0.00  0.00    +0.000 C 
ATOM      6  O   UNL     1      -0.213   9.627  17.944  0.00  0.00    +0.000 OA
ATOM      7  N   UNL     1       1.763   9.662  19.121  0.00  0.00    +0.000 N 
ATOM      8  C   UNL     1       1.478  12.547  19.343  0.00  0.00    +0.000 C 
ATOM      9  C   UNL     1       2.086  13.285  18.142  0.00  0.00    +0.000 C 
ATOM     10  C   UNL     1       0.884  13.550  20.367  0.00  0.00    +0.000 C 
ATOM     11  H   UNL     1       2.201  10.147  19.886  0.00  0.00    +0.000 HD
ENDROOT
BRANCH   1  17
ATOM     12  C   UNL     1      -2.352  17.699  22.304  0.00  0.00    +0.000 C 
ATOM     13  C   UNL     1      -1.439  17.301  21.183  0.00  0.00    +0.000 A 
ATOM     14  C   UNL     1      -0.768  18.266  20.449  0.00  0.00    +0.000 A 
ATOM     15  C   UNL     1       0.070  17.847  19.432  0.00  0.00    +0.000 A 
ATOM     16  C   UNL     1       0.211  16.484  19.181  0.00  0.00    +0.000 A 
ATOM     17  C   UNL     1      -0.484  15.547  19.945  0.00  0.00    +0.000 A 
ATOM     18  N   UNL     1      -1.301  15.975  20.941  0.00  0.00    +0.000 NA
ENDBRANCH   1  17
BRANCH   7  19
ATOM     19  C   UNL     1       2.135   8.302  18.986  0.00  0.00    +0.000 A 
ATOM     20  C   UNL     1       2.713   7.776  17.835  0.00  0.00    +0.000 A 
ATOM     21  C   UNL     1       2.946   6.400  17.712  0.00  0.00    +0.000 A 
ATOM     22  C   UNL     1       2.628   5.489  18.730  0.00  0.00    +0.000 A 
ATOM     23  C   UNL     1       2.152   6.066  19.923  0.00  0.00    +0.000 A 
ATOM     24  F   UNL     1       1.868   5.302  20.993  0.00  0.00    +0.000 F 
ATOM     25  C   UNL     1       1.899   7.439  20.053  0.00  0.00    +0.000 A 
BRANCH  22  26
ATOM     26  N   UNL     1       2.807   4.131  18.522  0.00  0.00    +0.000 N 
ATOM     27  C   UNL     1       1.659   3.241  18.321  0.00  0.00    +0.000 C 
ATOM     28  C   UNL     1       2.027   1.985  19.099  0.00  0.00    +0.000 C 
ATOM     29  C   UNL     1       3.536   1.919  18.951  0.00  0.00    +0.000 C 
ATOM     30  C   UNL     1       3.967   3.385  19.008  0.00  0.00    +0.000 C 
ENDBRANCH  22  26
ENDBRANCH   7  19
TORSDOF 3
ENDMDL
MODEL 8
REMARK VINA RESULT:      -7.2      3.177      4.267
REMARK  Name = 
REMARK  5 active torsions:
REMARK  status: ('A' for Active; 'I' for Inactive)
REMARK    1  A    between atoms: C_1  and  C_2
REMARK    2  A    between atoms: C_6  and  N_7
REMARK    3  A    between atoms: N_13  and  C_14
REMARK    4  A    between atoms: C_17  and  N_18
REMARK    5  A    between atoms: C_26  and  C_27
REMARK                            x       y       z     vdW  Elec       q    Type
REMARK                         _______ _______ _______ _____ _____    ______ ____
ROOT
ATOM      1  N   UNL     1       0.028  14.781  19.392  0.00  0.00    +0.000 N 
ATOM      2  C   UNL     1       0.902  14.478  20.528  0.00  0.00    +0.000 C 
ATOM      3  C   UNL     1       0.591  13.073  21.076  0.00  0.00    +0.000 C 
ATOM      4  N   UNL     1       0.524  12.042  20.026  0.00  0.00    +0.000 N 
ATOM      5  C   UNL     1       0.967  10.775  20.373  0.00  0.00    +0.000 C 
ATOM      6  O   UNL     1       1.365  10.546  21.513  0.00  0.00    +0.000 OA
ATOM      7  N   UNL     1       0.994   9.853  19.351  0.00  0.00    +0.000 N 
ATOM      8  C   UNL     1      -0.313  12.402  18.852  0.00  0.00    +0.000 C 
ATOM      9  C   UNL     1      -1.807  12.368  19.204  0.00  0.00    +0.000 C 
ATOM     10  C   UNL     1       0.096  13.794  18.303  0.00  0.00    +0.000 C 
ATOM     11  H   UNL     1       0.961  10.219  18.415  0.00  0.00    +0.000 HD
ENDROOT
BRANCH   1  17
ATOM     12  C   UNL     1      -0.109  18.627  16.556  0.00  0.00    +0.000 C 
ATOM     13  C   UNL     1      -0.653  17.907  17.753  0.00  0.00    +0.000 A 
ATOM     14  C   UNL     1      -1.706  18.444  18.475  0.00  0.00    +0.000 A 
ATOM     15  C   UNL     1      -2.177  17.736  19.566  0.00  0.00    +0.000 A 
ATOM     16  C   UNL     1      -1.584  16.521  19.900  0.00  0.00    +0.000 A 
ATOM     17  C   UNL     1      -0.525  16.018  19.145  0.00  0.00    +0.000 A 
ATOM     18  N   UNL     1      -0.076  16.724  18.076  0.00  0.00    +0.000 NA
ENDBRANCH   1  17
BRANCH   7  19
ATOM     19  C   UNL     1       1.460   8.519  19.454  0.00  0.00    +0.000 A 
ATOM     20  C   UNL     1       1.239   7.713  20.567  0.00  0.00    +0.000 A 
ATOM     21  C   UNL     1       1.829   6.446  20.664  0.00  0.00    +0.000 A 
ATOM     22  C   UNL     1       2.652   5.919  19.658  0.00  0.00    +0.000 A 
ATOM     23  C   UNL     1       2.762   6.711  18.498  0.00  0.00    +0.000 A 
ATOM     24  F   UNL     1       3.475   6.287  17.440  0.00  0.00    +0.000 F 
ATOM     25  C   UNL     1       2.190   7.987  18.394  0.00  0.00    +0.000 A 
BRANCH  22  26
ATOM     26  N   UNL     1       3.272   4.695  19.844  0.00  0.00    +0.000 N 
ATOM     27  C   UNL     1       4.690   4.510  19.517  0.00  0.00    +0.000 C 
ATOM     28  C   UNL     1       4.743   3.126  18.884  0.00  0.00    +0.000 C 
ATOM     29  C   UNL     1       3.655   2.368  19.621  0.00  0.00    +0.000 C 
ATOM     30  C   UNL     1       2.561   3.417  19.824  0.00  0.00    +0.000 C 
ENDBRANCH  22  26
ENDBRANCH   7  19
TORSDOF 3
ENDMDL
MODEL 9
REMARK VINA RESULT:      -7.2      1.713      1.925
REMARK  Name = 
REMARK  5 active torsions:
REMARK  status: ('A' for Active; 'I' for Inactive)
REMARK    1  A    between atoms: C_1  and  C_2
REMARK    2  A    between atoms: C_6  and  N_7
REMARK    3  A    between atoms: N_13  and  C_14
REMARK    4  A    between atoms: C_17  and  N_18
REMARK    5  A    between atoms: C_26  and  C_27
REMARK                            x       y       z     vdW  Elec       q    Type
REMARK                         _______ _______ _______ _____ _____    ______ ____
ROOT
ATOM      1  N   UNL     1      -1.614  13.271  20.972  0.00  0.00    +0.000 N 
ATOM      2  C   UNL     1      -2.187  12.574  19.817  0.00  0.00    +0.000 C 
ATOM      3  C   UNL     1      -1.070  11.914  18.988  0.00  0.00    +0.000 C 
ATOM      4  N   UNL     1      -0.127  11.130  19.806  0.00  0.00    +0.000 N 
ATOM      5  C   UNL     1       0.404   9.992  19.217  0.00  0.00    +0.000 C 
ATOM      6  O   UNL     1       0.107   9.692  18.064  0.00  0.00    +0.000 OA
ATOM      7  N   UNL     1       1.201   9.218  20.031  0.00  0.00    +0.000 N 
ATOM      8  C   UNL     1       0.386  11.833  21.010  0.00  0.00    +0.000 C 
ATOM      9  C   UNL     1       1.385  12.934  20.626  0.00  0.00    +0.000 C 
ATOM     10  C   UNL     1      -0.789  12.415  21.838  0.00  0.00    +0.000 C 
ATOM     11  H   UNL     1       1.116   9.374  21.022  0.00  0.00    +0.000 HD
ENDROOT
BRANCH   1  17
ATOM     12  C   UNL     1      -4.825  16.793  20.607  0.00  0.00    +0.000 C 
ATOM     13  C   UNL     1      -3.649  16.211  21.333  0.00  0.00    +0.000 A 
ATOM     14  C   UNL     1      -3.145  16.834  22.463  0.00  0.00    +0.000 A 
ATOM     15  C   UNL     1      -2.065  16.251  23.102  0.00  0.00    +0.000 A 
ATOM     16  C   UNL     1      -1.525  15.073  22.593  0.00  0.00    +0.000 A 
ATOM     17  C   UNL     1      -2.064  14.480  21.452  0.00  0.00    +0.000 A 
ATOM     18  N   UNL     1      -3.126  15.063  20.838  0.00  0.00    +0.000 NA
ENDBRANCH   1  17
BRANCH   7  19
ATOM     19  C   UNL     1       1.803   7.989  19.670  0.00  0.00    +0.000 A 
ATOM     20  C   UNL     1       2.545   7.810  18.506  0.00  0.00    +0.000 A 
ATOM     21  C   UNL     1       3.011   6.542  18.139  0.00  0.00    +0.000 A 
ATOM     22  C   UNL     1       2.774   5.398  18.916  0.00  0.00    +0.000 A 
ATOM     23  C   UNL     1       2.120   5.631  20.141  0.00  0.00    +0.000 A 
ATOM     24  F   UNL     1       1.888   4.624  21.001  0.00  0.00    +0.000 F 
ATOM     25  C   UNL     1       1.634   6.893  20.513  0.00  0.00    +0.000 A 
BRANCH  22  26
ATOM     26  N   UNL     1       3.191   4.157  18.463  0.00  0.00    +0.000 N 
ATOM     27  C   UNL     1       2.381   3.391  17.511  0.00  0.00    +0.000 C 
ATOM     28  C   UNL     1       2.498   1.953  18.002  0.00  0.00    +0.000 C 
ATOM     29  C   UNL     1       3.901   1.901  18.577  0.00  0.00    +0.000 C 
ATOM     30  C   UNL     1       4.077   3.276  19.223  0.00  0.00    +0.000 C 
ENDBRANCH  22  26
ENDBRANCH   7  19
TORSDOF 3
ENDMDL
