MODEL 1
REMARK VINA RESULT:      -8.5      0.000      0.000
REMARK  Name = 
REMARK  7 active torsions:
REMARK  status: ('A' for Active; 'I' for Inactive)
REMARK    1  A    between atoms: C_1  and  C_2
REMARK    2  A    between atoms: C_5  and  C_6
REMARK    3  A    between atoms: C_6  and  N_7
REMARK    4  A    between atoms: C_8  and  C_10
REMARK    5  A    between atoms: C_10  and  C_11
REMARK    6  A    between atoms: C_11  and  C_12
REMARK    7  A    between atoms: C_12  and  N_13
REMARK                            x       y       z     vdW  Elec       q    Type
REMARK                         _______ _______ _______ _____ _____    ______ ____
ROOT
ATOM      1  C   UNL     1       1.615   2.346  20.272  0.00  0.00    +0.000 C 
ENDROOT
BRANCH   1   2
ATOM      2  C   UNL     1       0.879   3.662  20.003  0.00  0.00    +0.000 C 
BRANCH   2   4
ATOM      3  N   UNL     1       1.995   5.648  19.169  0.00  0.00    +0.000 N 
ATOM      4  C   UNL     1       1.759   4.867  20.272  0.00  0.00    +0.000 C 
ATOM      5  O   UNL     1       2.233   5.102  21.377  0.00  0.00    +0.000 OA
ATOM      6  H   UNL     1       1.649   5.369  18.260  0.00  0.00    +0.000 HD
BRANCH   3   7
ATOM      7  C   UNL     1       2.776   6.862  19.262  0.00  0.00    +0.000 C 
BRANCH   7  12
ATOM      8  C   UNL     1      -0.459  11.701  19.552  0.00  0.00    +0.000 C 
ATOM      9  C   UNL     1       0.342  10.435  19.478  0.00  0.00    +0.000 A 
ATOM     10  C   UNL     1       0.528   9.631  20.606  0.00  0.00    +0.000 A 
ATOM     11  C   UNL     1       1.295   8.465  20.526  0.00  0.00    +0.000 A 
ATOM     12  C   UNL     1       1.903   8.089  19.319  0.00  0.00    +0.000 A 
ATOM     13  C   UNL     1       1.694   8.884  18.184  0.00  0.00    +0.000 A 
ATOM     14  C   UNL     1       0.926  10.049  18.266  0.00  0.00    +0.000 A 
ENDBRANCH   7  12
ENDBRANCH   3   7
ENDBRANCH   2   4
ENDBRANCH   1   2
BRANCH   1  15
ATOM     15  C   UNL     1       2.343   1.814  19.028  0.00  0.00    +0.000 C 
BRANCH  15  16
ATOM     16  N   UNL     1       3.475   2.663  18.656  0.00  0.00    +0.000 N 
ATOM     17  C   UNL     1       4.566   2.701  19.508  0.00  0.00    +0.000 A 
ATOM     18  O   UNL     1       4.631   2.090  20.577  0.00  0.00    +0.000 OA
ATOM     19  N   UNL     1       5.631   3.458  19.114  0.00  0.00    +0.000 N 
ATOM     20  C   UNL     1       5.696   4.135  17.899  0.00  0.00    +0.000 A 
ATOM     21  C   UNL     1       6.863   4.806  17.532  0.00  0.00    +0.000 A 
ATOM     22  C   UNL     1       6.930   5.446  16.292  0.00  0.00    +0.000 A 
ATOM     23  C   UNL     1       5.827   5.440  15.438  0.00  0.00    +0.000 A 
ATOM     24  C   UNL     1       4.654   4.788  15.818  0.00  0.00    +0.000 A 
ATOM     25  C   UNL     1       4.599   4.122  17.048  0.00  0.00    +0.000 A 
ATOM     26  C   UNL     1       3.400   3.361  17.454  0.00  0.00    +0.000 A 
ATOM     27  O   UNL     1       2.414   3.383  16.723  0.00  0.00    +0.000 OA
ATOM     28  H   UNL     1       6.417   3.466  19.751  0.00  0.00    +0.000 HD
ENDBRANCH  15  16
ENDBRANCH   1  15
TORSDOF 6
ENDMDL
MODEL 2
REMARK VINA RESULT:      -8.2      5.338      7.254
REMARK  Name = 
REMARK  7 active torsions:
REMARK  status: ('A' for Active; 'I' for Inactive)
REMARK    1  A    between atoms: C_1  and  C_2
REMARK    2  A    between atoms: C_5  and  C_6
REMARK    3  A    between atoms: C_6  and  N_7
REMARK    4  A    between atoms: C_8  and  C_10
REMARK    5  A    between atoms: C_10  and  C_11
REMARK    6  A    between atoms: C_11  and  C_12
REMARK    7  A    between atoms: C_12  and  N_13
REMARK                            x       y       z     vdW  Elec       q    Type
REMARK                         _______ _______ _______ _____ _____    ______ ____
ROOT
ATOM      1  C   UNL     1       6.103   6.850  17.590  0.00  0.00    +0.000 C 
ENDROOT
BRANCH   1   2
ATOM      2  C   UNL     1       7.206   7.726  16.990  0.00  0.00    +0.000 C 
BRANCH   2   4
ATOM      3  N   UNL     1       8.396   9.616  17.937  0.00  0.00    +0.000 N 
ATOM      4  C   UNL     1       8.135   8.275  18.056  0.00  0.00    +0.000 C 
ATOM      5  O   UNL     1       8.623   7.568  18.929  0.00  0.00    +0.000 OA
ATOM      6  H   UNL     1       8.035  10.141  17.151  0.00  0.00    +0.000 HD
BRANCH   3   7
ATOM      7  C   UNL     1       9.226  10.307  18.899  0.00  0.00    +0.000 C 
BRANCH   7  12
ATOM      8  C   UNL     1      11.352  15.368  16.939  0.00  0.00    +0.000 C 
ATOM      9  C   UNL     1      10.784  14.062  17.411  0.00  0.00    +0.000 A 
ATOM     10  C   UNL     1       9.477  13.977  17.901  0.00  0.00    +0.000 A 
ATOM     11  C   UNL     1       8.970  12.757  18.359  0.00  0.00    +0.000 A 
ATOM     12  C   UNL     1       9.766  11.602  18.348  0.00  0.00    +0.000 A 
ATOM     13  C   UNL     1      11.066  11.685  17.834  0.00  0.00    +0.000 A 
ATOM     14  C   UNL     1      11.571  12.905  17.376  0.00  0.00    +0.000 A 
ENDBRANCH   7  12
ENDBRANCH   3   7
ENDBRANCH   2   4
ENDBRANCH   1   2
BRANCH   1  15
ATOM     15  C   UNL     1       5.144   6.299  16.522  0.00  0.00    +0.000 C 
BRANCH  15  16
ATOM     16  N   UNL     1       4.397   5.139  17.010  0.00  0.00    +0.000 N 
ATOM     17  C   UNL     1       4.889   3.878  16.716  0.00  0.00    +0.000 A 
ATOM     18  O   UNL     1       5.899   3.670  16.041  0.00  0.00    +0.000 OA
ATOM     19  N   UNL     1       4.204   2.814  17.226  0.00  0.00    +0.000 N 
ATOM     20  C   UNL     1       3.091   2.931  18.055  0.00  0.00    +0.000 A 
ATOM     21  C   UNL     1       2.511   1.792  18.613  0.00  0.00    +0.000 A 
ATOM     22  C   UNL     1       1.420   1.926  19.477  0.00  0.00    +0.000 A 
ATOM     23  C   UNL     1       0.897   3.189  19.757  0.00  0.00    +0.000 A 
ATOM     24  C   UNL     1       1.466   4.324  19.179  0.00  0.00    +0.000 A 
ATOM     25  C   UNL     1       2.576   4.190  18.338  0.00  0.00    +0.000 A 
ATOM     26  C   UNL     1       3.250   5.372  17.764  0.00  0.00    +0.000 A 
ATOM     27  O   UNL     1       2.772   6.483  17.977  0.00  0.00    +0.000 OA
ATOM     28  H   UNL     1       4.585   1.904  17.001  0.00  0.00    +0.000 HD
ENDBRANCH  15  16
ENDBRANCH   1  15
TORSDOF 6
ENDMDL
MODEL 3
REMARK VINA RESULT:      -8.1      5.082      6.877
REMARK  Name = 
REMARK  7 active torsions:
REMARK  status: ('A' for Active; 'I' for Inactive)
REMARK    1  A    between atoms: C_1  and  C_2
REMARK    2  A    between atoms: C_5  and  C_6
REMARK    3  A    between atoms: C_6  and  N_7
REMARK    4  A    between atoms: C_8  and  C_10
REMARK    5  A    between atoms: C_10  and  C_11
REMARK    6  A    between atoms: C_11  and  C_12
REMARK    7  A    between atoms: C_12  and  N_13
REMARK                            x       y       z     vdW  Elec       q    Type
REMARK                         _______ _______ _______ _____ _____    ______ ____
ROOT
ATOM      1  C   UNL     1       5.587   7.275  17.273  0.00  0.00    +0.000 C 
ENDROOT
BRANCH   1   2
ATOM      2  C   UNL     1       7.064   7.376  16.880  0.00  0.00    +0.000 C 
BRANCH   2   4
ATOM      3  N   UNL     1       8.321   9.019  18.148  0.00  0.00    +0.000 N 
ATOM      4  C   UNL     1       7.945   7.701  18.070  0.00  0.00    +0.000 C 
ATOM      5  O   UNL     1       8.304   6.850  18.875  0.00  0.00    +0.000 OA
ATOM      6  H   UNL     1       8.067   9.667  17.415  0.00  0.00    +0.000 HD
BRANCH   3   7
ATOM      7  C   UNL     1       9.123   9.506  19.248  0.00  0.00    +0.000 C 
BRANCH   7  12
ATOM      8  C   UNL     1      10.451  15.143  18.585  0.00  0.00    +0.000 C 
ATOM      9  C   UNL     1      10.137  13.683  18.731  0.00  0.00    +0.000 A 
ATOM     10  C   UNL     1       9.458  12.986  17.728  0.00  0.00    +0.000 A 
ATOM     11  C   UNL     1       9.154  11.631  17.889  0.00  0.00    +0.000 A 
ATOM     12  C   UNL     1       9.510  10.951  19.063  0.00  0.00    +0.000 A 
ATOM     13  C   UNL     1      10.212  11.646  20.056  0.00  0.00    +0.000 A 
ATOM     14  C   UNL     1      10.517  13.001  19.893  0.00  0.00    +0.000 A 
ENDBRANCH   7  12
ENDBRANCH   3   7
ENDBRANCH   2   4
ENDBRANCH   1   2
BRANCH   1  15
ATOM     15  C   UNL     1       4.897   6.048  16.657  0.00  0.00    +0.000 C 
BRANCH  15  16
ATOM     16  N   UNL     1       4.474   5.092  17.680  0.00  0.00    +0.000 N 
ATOM     17  C   UNL     1       5.408   4.181  18.145  0.00  0.00    +0.000 A 
ATOM     18  O   UNL     1       6.566   4.104  17.728  0.00  0.00    +0.000 OA
ATOM     19  N   UNL     1       5.005   3.335  19.136  0.00  0.00    +0.000 N 
ATOM     20  C   UNL     1       3.746   3.376  19.730  0.00  0.00    +0.000 A 
ATOM     21  C   UNL     1       3.451   2.539  20.805  0.00  0.00    +0.000 A 
ATOM     22  C   UNL     1       2.198   2.620  21.419  0.00  0.00    +0.000 A 
ATOM     23  C   UNL     1       1.238   3.512  20.941  0.00  0.00    +0.000 A 
ATOM     24  C   UNL     1       1.529   4.331  19.850  0.00  0.00    +0.000 A 
ATOM     25  C   UNL     1       2.795   4.271  19.256  0.00  0.00    +0.000 A 
ATOM     26  C   UNL     1       3.165   5.172  18.146  0.00  0.00    +0.000 A 
ATOM     27  O   UNL     1       2.312   5.933  17.697  0.00  0.00    +0.000 OA
ATOM     28  H   UNL     1       5.707   2.683  19.462  0.00  0.00    +0.000 HD
ENDBRANCH  15  16
ENDBRANCH   1  15
TORSDOF 6
ENDMDL
MODEL 4
REMARK VINA RESULT:      -8.1      3.922      8.680
REMARK  Name = 
REMARK  7 active torsions:
REMARK  status: ('A' for Active; 'I' for Inactive)
REMARK    1  A    between atoms: C_1  and  C_2
REMARK    2  A    between atoms: C_5  and  C_6
REMARK    3  A    between atoms: C_6  and  N_7
REMARK    4  A    between atoms: C_8  and  C_10
REMARK    5  A    between atoms: C_10  and  C_11
REMARK    6  A    between atoms: C_11  and  C_12
REMARK    7  A    between atoms: C_12  and  N_13
REMARK                            x       y       z     vdW  Elec       q    Type
REMARK                         _______ _______ _______ _____ _____    ______ ____
ROOT
ATOM      1  C   UNL     1      -0.483  11.202  22.353  0.00  0.00    +0.000 C 
ENDROOT
BRANCH   1   2
ATOM      2  C   UNL     1      -0.457   9.671  22.390  0.00  0.00    +0.000 C 
BRANCH   2   4
ATOM      3  N   UNL     1       0.911   8.236  20.991  0.00  0.00    +0.000 N 
ATOM      4  C   UNL     1       0.912   9.120  22.041  0.00  0.00    +0.000 C 
ATOM      5  O   UNL     1       1.922   9.426  22.663  0.00  0.00    +0.000 OA
ATOM      6  H   UNL     1       0.040   7.952  20.562  0.00  0.00    +0.000 HD
BRANCH   3   7
ATOM      7  C   UNL     1       2.140   7.654  20.500  0.00  0.00    +0.000 C 
BRANCH   7  12
ATOM      8  C   UNL     1       1.488   2.241  18.438  0.00  0.00    +0.000 C 
ATOM      9  C   UNL     1       1.625   3.645  18.949  0.00  0.00    +0.000 A 
ATOM     10  C   UNL     1       2.112   4.668  18.130  0.00  0.00    +0.000 A 
ATOM     11  C   UNL     1       2.254   5.967  18.629  0.00  0.00    +0.000 A 
ATOM     12  C   UNL     1       1.926   6.263  19.960  0.00  0.00    +0.000 A 
ATOM     13  C   UNL     1       1.415   5.241  20.770  0.00  0.00    +0.000 A 
ATOM     14  C   UNL     1       1.272   3.944  20.270  0.00  0.00    +0.000 A 
ENDBRANCH   7  12
ENDBRANCH   3   7
ENDBRANCH   2   4
ENDBRANCH   1   2
BRANCH   1  15
ATOM     15  C   UNL     1      -0.085  11.764  20.979  0.00  0.00    +0.000 C 
BRANCH  15  16
ATOM     16  N   UNL     1      -1.167  11.633  20.004  0.00  0.00    +0.000 N 
ATOM     17  C   UNL     1      -2.283  12.438  20.159  0.00  0.00    +0.000 A 
ATOM     18  O   UNL     1      -2.436  13.237  21.085  0.00  0.00    +0.000 OA
ATOM     19  N   UNL     1      -3.256  12.335  19.207  0.00  0.00    +0.000 N 
ATOM     20  C   UNL     1      -3.160  11.519  18.083  0.00  0.00    +0.000 A 
ATOM     21  C   UNL     1      -4.157  11.549  17.109  0.00  0.00    +0.000 A 
ATOM     22  C   UNL     1      -4.029  10.755  15.965  0.00  0.00    +0.000 A 
ATOM     23  C   UNL     1      -2.924   9.917  15.812  0.00  0.00    +0.000 A 
ATOM     24  C   UNL     1      -1.940   9.873  16.800  0.00  0.00    +0.000 A 
ATOM     25  C   UNL     1      -2.055  10.691  17.930  0.00  0.00    +0.000 A 
ATOM     26  C   UNL     1      -1.000  10.725  18.962  0.00  0.00    +0.000 A 
ATOM     27  O   UNL     1      -0.043   9.963  18.851  0.00  0.00    +0.000 OA
ATOM     28  H   UNL     1      -4.058  12.937  19.340  0.00  0.00    +0.000 HD
ENDBRANCH  15  16
ENDBRANCH   1  15
TORSDOF 6
ENDMDL
MODEL 5
REMARK VINA RESULT:      -8.1      1.864      4.415
REMARK  Name = 
REMARK  7 active torsions:
REMARK  status: ('A' for Active; 'I' for Inactive)
REMARK    1  A    between atoms: C_1  and  C_2
REMARK    2  A    between atoms: C_5  and  C_6
REMARK    3  A    between atoms: C_6  and  N_7
REMARK    4  A    between atoms: C_8  and  C_10
REMARK    5  A    between atoms: C_10  and  C_11
REMARK    6  A    between atoms: C_11  and  C_12
REMARK    7  A    between atoms: C_12  and  N_13
REMARK                            x       y       z     vdW  Elec       q    Type
REMARK                         _______ _______ _______ _____ _____    ______ ____
ROOT
ATOM      1  C   UNL     1       7.331   5.777  16.703  0.00  0.00    +0.000 C 
ENDROOT
BRANCH   1   2
ATOM      2  C   UNL     1       6.657   7.001  17.330  0.00  0.00    +0.000 C 
BRANCH   2   4
ATOM      3  N   UNL     1       4.316   7.478  17.752  0.00  0.00    +0.000 N 
ATOM      4  C   UNL     1       5.257   7.214  16.788  0.00  0.00    +0.000 C 
ATOM      5  O   UNL     1       4.993   7.131  15.595  0.00  0.00    +0.000 OA
ATOM      6  H   UNL     1       4.566   7.454  18.731  0.00  0.00    +0.000 HD
BRANCH   3   7
ATOM      7  C   UNL     1       2.940   7.752  17.402  0.00  0.00    +0.000 C 
BRANCH   7  12
ATOM      8  C   UNL     1      -0.045   9.451  22.111  0.00  0.00    +0.000 C 
ATOM      9  C   UNL     1       0.696   8.987  20.892  0.00  0.00    +0.000 A 
ATOM     10  C   UNL     1       1.427   7.795  20.900  0.00  0.00    +0.000 A 
ATOM     11  C   UNL     1       2.131   7.389  19.763  0.00  0.00    +0.000 A 
ATOM     12  C   UNL     1       2.128   8.173  18.600  0.00  0.00    +0.000 A 
ATOM     13  C   UNL     1       1.375   9.354  18.586  0.00  0.00    +0.000 A 
ATOM     14  C   UNL     1       0.671   9.759  19.725  0.00  0.00    +0.000 A 
ENDBRANCH   7  12
ENDBRANCH   3   7
ENDBRANCH   2   4
ENDBRANCH   1   2
BRANCH   1  15
ATOM     15  C   UNL     1       7.091   4.494  17.513  0.00  0.00    +0.000 C 
BRANCH  15  16
ATOM     16  N   UNL     1       5.664   4.236  17.712  0.00  0.00    +0.000 N 
ATOM     17  C   UNL     1       4.919   3.826  16.619  0.00  0.00    +0.000 A 
ATOM     18  O   UNL     1       5.375   3.695  15.481  0.00  0.00    +0.000 OA
ATOM     19  N   UNL     1       3.603   3.541  16.841  0.00  0.00    +0.000 N 
ATOM     20  C   UNL     1       2.999   3.587  18.094  0.00  0.00    +0.000 A 
ATOM     21  C   UNL     1       1.672   3.184  18.247  0.00  0.00    +0.000 A 
ATOM     22  C   UNL     1       1.090   3.196  19.518  0.00  0.00    +0.000 A 
ATOM     23  C   UNL     1       1.820   3.635  20.622  0.00  0.00    +0.000 A 
ATOM     24  C   UNL     1       3.140   4.059  20.461  0.00  0.00    +0.000 A 
ATOM     25  C   UNL     1       3.731   4.019  19.193  0.00  0.00    +0.000 A 
ATOM     26  C   UNL     1       5.146   4.391  18.995  0.00  0.00    +0.000 A 
ATOM     27  O   UNL     1       5.783   4.814  19.956  0.00  0.00    +0.000 OA
ATOM     28  H   UNL     1       3.082   3.239  16.028  0.00  0.00    +0.000 HD
ENDBRANCH  15  16
ENDBRANCH   1  15
TORSDOF 6
ENDMDL
MODEL 6
REMARK VINA RESULT:      -8.1      1.058      2.264
REMARK  Name = 
REMARK  7 active torsions:
REMARK  status: ('A' for Active; 'I' for Inactive)
REMARK    1  A    between atoms: C_1  and  C_2
REMARK    2  A    between atoms: C_5  and  C_6
REMARK    3  A    between atoms: C_6  and  N_7
REMARK    4  A    between atoms: C_8  and  C_10
REMARK    5  A    between atoms: C_10  and  C_11
REMARK    6  A    between atoms: C_11  and  C_12
REMARK    7  A    between atoms: C_12  and  N_13
REMARK                            x       y       z     vdW  Elec       q    Type
REMARK                         _______ _______ _______ _____ _____    ______ ____
ROOT
ATOM      1  C   UNL     1       1.319   2.556  18.988  0.00  0.00    +0.000 C 
ENDROOT
BRANCH   1   2
ATOM      2  C   UNL     1       0.918   3.180  20.327  0.00  0.00    +0.000 C 
BRANCH   2   4
ATOM      3  N   UNL     1       1.911   5.329  19.795  0.00  0.00    +0.000 N 
ATOM      4  C   UNL     1       1.841   4.318  20.719  0.00  0.00    +0.000 C 
ATOM      5  O   UNL     1       2.483   4.314  21.763  0.00  0.00    +0.000 OA
ATOM      6  H   UNL     1       1.426   5.249  18.911  0.00  0.00    +0.000 HD
BRANCH   3   7
ATOM      7  C   UNL     1       2.710   6.511  20.034  0.00  0.00    +0.000 C 
BRANCH   7  12
ATOM      8  C   UNL     1      -0.332  11.293  18.672  0.00  0.00    +0.000 C 
ATOM      9  C   UNL     1       0.483  10.083  19.023  0.00  0.00    +0.000 A 
ATOM     10  C   UNL     1       1.276   9.443  18.065  0.00  0.00    +0.000 A 
ATOM     11  C   UNL     1       2.012   8.303  18.403  0.00  0.00    +0.000 A 
ATOM     12  C   UNL     1       1.958   7.774  19.700  0.00  0.00    +0.000 A 
ATOM     13  C   UNL     1       1.182   8.432  20.664  0.00  0.00    +0.000 A 
ATOM     14  C   UNL     1       0.447   9.572  20.325  0.00  0.00    +0.000 A 
ENDBRANCH   7  12
ENDBRANCH   3   7
ENDBRANCH   2   4
ENDBRANCH   1   2
BRANCH   1  15
ATOM     15  C   UNL     1       2.777   2.071  18.978  0.00  0.00    +0.000 C 
BRANCH  15  16
ATOM     16  N   UNL     1       3.669   3.045  18.350  0.00  0.00    +0.000 N 
ATOM     17  C   UNL     1       3.317   3.542  17.106  0.00  0.00    +0.000 A 
ATOM     18  O   UNL     1       2.315   3.191  16.480  0.00  0.00    +0.000 OA
ATOM     19  N   UNL     1       4.138   4.488  16.564  0.00  0.00    +0.000 N 
ATOM     20  C   UNL     1       5.256   5.008  17.209  0.00  0.00    +0.000 A 
ATOM     21  C   UNL     1       5.984   6.045  16.624  0.00  0.00    +0.000 A 
ATOM     22  C   UNL     1       7.080   6.586  17.301  0.00  0.00    +0.000 A 
ATOM     23  C   UNL     1       7.463   6.074  18.541  0.00  0.00    +0.000 A 
ATOM     24  C   UNL     1       6.747   5.022  19.112  0.00  0.00    +0.000 A 
ATOM     25  C   UNL     1       5.632   4.501  18.447  0.00  0.00    +0.000 A 
ATOM     26  C   UNL     1       4.807   3.436  19.051  0.00  0.00    +0.000 A 
ATOM     27  O   UNL     1       5.160   2.956  20.125  0.00  0.00    +0.000 OA
ATOM     28  H   UNL     1       3.856   4.839  15.658  0.00  0.00    +0.000 HD
ENDBRANCH  15  16
ENDBRANCH   1  15
TORSDOF 6
ENDMDL
MODEL 7
REMARK VINA RESULT:      -8.1      1.286      1.804
REMARK  Name = 
REMARK  7 active torsions:
REMARK  status: ('A' for Active; 'I' for Inactive)
REMARK    1  A    between atoms: C_1  and  C_2
REMARK    2  A    between atoms: C_5  and  C_6
REMARK    3  A    between atoms: C_6  and  N_7
REMARK    4  A    between atoms: C_8  and  C_10
REMARK    5  A    between atoms: C_10  and  C_11
REMARK    6  A    between atoms: C_11  and  C_12
REMARK    7  A    between atoms: C_12  and  N_13
REMARK                            x       y       z     vdW  Elec       q    Type
REMARK                         _______ _______ _______ _____ _____    ______ ____
ROOT
ATOM      1  C   UNL     1       2.156   2.215  18.254  0.00  0.00    +0.000 C 
ENDROOT
BRANCH   1   2
ATOM      2  C   UNL     1       1.469   3.563  18.018  0.00  0.00    +0.000 C 
BRANCH   2   4
ATOM      3  N   UNL     1       2.231   5.504  19.257  0.00  0.00    +0.000 N 
ATOM      4  C   UNL     1       1.417   4.400  19.281  0.00  0.00    +0.000 C 
ATOM      5  O   UNL     1       0.723   4.096  20.244  0.00  0.00    +0.000 OA
ATOM      6  H   UNL     1       2.847   5.669  18.473  0.00  0.00    +0.000 HD
BRANCH   3   7
ATOM      7  C   UNL     1       2.266   6.435  20.364  0.00  0.00    +0.000 C 
BRANCH   7  12
ATOM      8  C   UNL     1       0.468  11.716  18.676  0.00  0.00    +0.000 C 
ATOM      9  C   UNL     1       0.966  10.370  19.112  0.00  0.00    +0.000 A 
ATOM     10  C   UNL     1       1.637   9.525  18.222  0.00  0.00    +0.000 A 
ATOM     11  C   UNL     1       2.076   8.264  18.638  0.00  0.00    +0.000 A 
ATOM     12  C   UNL     1       1.840   7.819  19.947  0.00  0.00    +0.000 A 
ATOM     13  C   UNL     1       1.190   8.678  20.843  0.00  0.00    +0.000 A 
ATOM     14  C   UNL     1       0.752   9.938  20.426  0.00  0.00    +0.000 A 
ENDBRANCH   7  12
ENDBRANCH   3   7
ENDBRANCH   2   4
ENDBRANCH   1   2
BRANCH   1  15
ATOM     15  C   UNL     1       3.514   2.115  17.542  0.00  0.00    +0.000 C 
BRANCH  15  16
ATOM     16  N   UNL     1       4.435   3.164  17.978  0.00  0.00    +0.000 N 
ATOM     17  C   UNL     1       4.893   3.126  19.285  0.00  0.00    +0.000 A 
ATOM     18  O   UNL     1       4.548   2.281  20.114  0.00  0.00    +0.000 OA
ATOM     19  N   UNL     1       5.792   4.084  19.652  0.00  0.00    +0.000 N 
ATOM     20  C   UNL     1       6.303   5.044  18.783  0.00  0.00    +0.000 A 
ATOM     21  C   UNL     1       7.294   5.926  19.217  0.00  0.00    +0.000 A 
ATOM     22  C   UNL     1       7.829   6.857  18.323  0.00  0.00    +0.000 A 
ATOM     23  C   UNL     1       7.355   6.926  17.013  0.00  0.00    +0.000 A 
ATOM     24  C   UNL     1       6.348   6.058  16.589  0.00  0.00    +0.000 A 
ATOM     25  C   UNL     1       5.835   5.106  17.477  0.00  0.00    +0.000 A 
ATOM     26  C   UNL     1       4.820   4.124  17.046  0.00  0.00    +0.000 A 
ATOM     27  O   UNL     1       4.373   4.203  15.905  0.00  0.00    +0.000 OA
ATOM     28  H   UNL     1       6.115   4.032  20.610  0.00  0.00    +0.000 HD
ENDBRANCH  15  16
ENDBRANCH   1  15
TORSDOF 6
ENDMDL
MODEL 8
REMARK VINA RESULT:      -8.0      1.692      2.871
REMARK  Name = 
REMARK  7 active torsions:
REMARK  status: ('A' for Active; 'I' for Inactive)
REMARK    1  A    between atoms: C_1  and  C_2
REMARK    2  A    between atoms: C_5  and  C_6
REMARK    3  A    between atoms: C_6  and  N_7
REMARK    4  A    between atoms: C_8  and  C_10
REMARK    5  A    between atoms: C_10  and  C_11
REMARK    6  A    between atoms: C_11  and  C_12
REMARK    7  A    between atoms: C_12  and  N_13
REMARK                            x       y       z     vdW  Elec       q    Type
REMARK                         _______ _______ _______ _____ _____    ______ ____
ROOT
ATOM      1  C   UNL     1       1.467   3.787  20.344  0.00  0.00    +0.000 C 
ENDROOT
BRANCH   1   2
ATOM      2  C   UNL     1       2.096   4.947  21.122  0.00  0.00    +0.000 C 
BRANCH   2   4
ATOM      3  N   UNL     1       1.514   7.299  20.999  0.00  0.00    +0.000 N 
ATOM      4  C   UNL     1       2.071   6.239  20.329  0.00  0.00    +0.000 C 
ATOM      5  O   UNL     1       2.493   6.314  19.181  0.00  0.00    +0.000 OA
ATOM      6  H   UNL     1       1.105   7.168  21.914  0.00  0.00    +0.000 HD
BRANCH   3   7
ATOM      7  C   UNL     1       1.454   8.615  20.403  0.00  0.00    +0.000 C 
BRANCH   7  12
ATOM      8  C   UNL     1      -2.264  12.075  23.262  0.00  0.00    +0.000 C 
ATOM      9  C   UNL     1      -1.280  11.212  22.528  0.00  0.00    +0.000 A 
ATOM     10  C   UNL     1      -0.973  11.448  21.185  0.00  0.00    +0.000 A 
ATOM     11  C   UNL     1      -0.071  10.621  20.509  0.00  0.00    +0.000 A 
ATOM     12  C   UNL     1       0.530   9.534  21.160  0.00  0.00    +0.000 A 
ATOM     13  C   UNL     1       0.239   9.314  22.513  0.00  0.00    +0.000 A 
ATOM     14  C   UNL     1      -0.663  10.143  23.187  0.00  0.00    +0.000 A 
ENDBRANCH   7  12
ENDBRANCH   3   7
ENDBRANCH   2   4
ENDBRANCH   1   2
BRANCH   1  15
ATOM     15  C   UNL     1       2.505   2.745  19.901  0.00  0.00    +0.000 C 
BRANCH  15  16
ATOM     16  N   UNL     1       3.289   3.211  18.757  0.00  0.00    +0.000 N 
ATOM     17  C   UNL     1       2.651   3.319  17.532  0.00  0.00    +0.000 A 
ATOM     18  O   UNL     1       1.472   3.015  17.337  0.00  0.00    +0.000 OA
ATOM     19  N   UNL     1       3.389   3.806  16.493  0.00  0.00    +0.000 N 
ATOM     20  C   UNL     1       4.705   4.243  16.612  0.00  0.00    +0.000 A 
ATOM     21  C   UNL     1       5.354   4.820  15.519  0.00  0.00    +0.000 A 
ATOM     22  C   UNL     1       6.661   5.293  15.664  0.00  0.00    +0.000 A 
ATOM     23  C   UNL     1       7.324   5.163  16.884  0.00  0.00    +0.000 A 
ATOM     24  C   UNL     1       6.681   4.565  17.968  0.00  0.00    +0.000 A 
ATOM     25  C   UNL     1       5.361   4.119  17.830  0.00  0.00    +0.000 A 
ATOM     26  C   UNL     1       4.622   3.546  18.973  0.00  0.00    +0.000 A 
ATOM     27  O   UNL     1       5.213   3.396  20.039  0.00  0.00    +0.000 OA
ATOM     28  H   UNL     1       2.900   3.880  15.610  0.00  0.00    +0.000 HD
ENDBRANCH  15  16
ENDBRANCH   1  15
TORSDOF 6
ENDMDL
MODEL 9
REMARK VINA RESULT:      -8.0      1.857      4.553
REMARK  Name = 
REMARK  7 active torsions:
REMARK  status: ('A' for Active; 'I' for Inactive)
REMARK    1  A    between atoms: C_1  and  C_2
REMARK    2  A    between atoms: C_5  and  C_6
REMARK    3  A    between atoms: C_6  and  N_7
REMARK    4  A    between atoms: C_8  and  C_10
REMARK    5  A    between atoms: C_10  and  C_11
REMARK    6  A    between atoms: C_11  and  C_12
REMARK    7  A    between atoms: C_12  and  N_13
REMARK                            x       y       z     vdW  Elec       q    Type
REMARK                         _______ _______ _______ _____ _____    ______ ____
ROOT
ATOM      1  C   UNL     1       7.246   5.692  18.271  0.00  0.00    +0.000 C 
ENDROOT
BRANCH   1   2
ATOM      2  C   UNL     1       7.160   6.885  17.316  0.00  0.00    +0.000 C 
BRANCH   2   4
ATOM      3  N   UNL     1       4.787   7.260  17.649  0.00  0.00    +0.000 N 
ATOM      4  C   UNL     1       5.773   7.036  16.722  0.00  0.00    +0.000 C 
ATOM      5  O   UNL     1       5.558   6.941  15.520  0.00  0.00    +0.000 OA
ATOM      6  H   UNL     1       5.001   7.248  18.638  0.00  0.00    +0.000 HD
BRANCH   3   7
ATOM      7  C   UNL     1       3.414   7.473  17.248  0.00  0.00    +0.000 C 
BRANCH   7  12
ATOM      8  C   UNL     1      -0.047   9.184  21.615  0.00  0.00    +0.000 C 
ATOM      9  C   UNL     1       0.869   8.770  20.501  0.00  0.00    +0.000 A 
ATOM     10  C   UNL     1       0.982   9.535  19.336  0.00  0.00    +0.000 A 
ATOM     11  C   UNL     1       1.823   9.125  18.298  0.00  0.00    +0.000 A 
ATOM     12  C   UNL     1       2.557   7.933  18.399  0.00  0.00    +0.000 A 
ATOM     13  C   UNL     1       2.461   7.182  19.577  0.00  0.00    +0.000 A 
ATOM     14  C   UNL     1       1.620   7.595  20.615  0.00  0.00    +0.000 A 
ENDBRANCH   7  12
ENDBRANCH   3   7
ENDBRANCH   2   4
ENDBRANCH   1   2
BRANCH   1  15
ATOM     15  C   UNL     1       6.810   4.375  17.607  0.00  0.00    +0.000 C 
BRANCH  15  16
ATOM     16  N   UNL     1       5.391   4.099  17.830  0.00  0.00    +0.000 N 
ATOM     17  C   UNL     1       4.599   3.835  16.725  0.00  0.00    +0.000 A 
ATOM     18  O   UNL     1       5.007   3.851  15.562  0.00  0.00    +0.000 OA
ATOM     19  N   UNL     1       3.291   3.528  16.963  0.00  0.00    +0.000 N 
ATOM     20  C   UNL     1       2.738   3.414  18.235  0.00  0.00    +0.000 A 
ATOM     21  C   UNL     1       1.415   2.999  18.390  0.00  0.00    +0.000 A 
ATOM     22  C   UNL     1       0.885   2.849  19.675  0.00  0.00    +0.000 A 
ATOM     23  C   UNL     1       1.664   3.140  20.795  0.00  0.00    +0.000 A 
ATOM     24  C   UNL     1       2.979   3.578  20.635  0.00  0.00    +0.000 A 
ATOM     25  C   UNL     1       3.518   3.699  19.349  0.00  0.00    +0.000 A 
ATOM     26  C   UNL     1       4.927   4.089  19.142  0.00  0.00    +0.000 A 
ATOM     27  O   UNL     1       5.606   4.382  20.123  0.00  0.00    +0.000 OA
ATOM     28  H   UNL     1       2.734   3.335  16.140  0.00  0.00    +0.000 HD
ENDBRANCH  15  16
ENDBRANCH   1  15
TORSDOF 6
ENDMDL
