MODEL 1
REMARK VINA RESULT:      -7.6      0.000      0.000
REMARK  Name = 
REMARK  4 active torsions:
REMARK  status: ('A' for Active; 'I' for Inactive)
REMARK    1  A    between atoms: C_2  and  O_3
REMARK    2  A    between atoms: C_2  and  C_4
REMARK    3  A    between atoms: C_4  and  N_5
REMARK    4  A    between atoms: N_8  and  C_9
REMARK                            x       y       z     vdW  Elec       q    Type
REMARK                         _______ _______ _______ _____ _____    ______ ____
ROOT
ATOM      1  C   UNL     1      -0.288  10.077  21.076  0.00  0.00    +0.000 A 
ATOM      2  C   UNL     1      -0.841   8.892  21.516  0.00  0.00    +0.000 A 
ATOM      3  N   UNL     1      -0.070   7.760  21.322  0.00  0.00    +0.000 NA
ATOM      4  C   UNL     1       1.050   8.066  20.703  0.00  0.00    +0.000 A 
ATOM      5  N   UNL     1       1.997   7.166  20.339  0.00  0.00    +0.000 N 
ATOM      6  C   UNL     1       2.096   5.881  21.018  0.00  0.00    +0.000 C 
ATOM      7  C   UNL     1       1.885   4.741  20.023  0.00  0.00    +0.000 C 
ATOM      8  C   UNL     1       2.817   4.873  18.800  0.00  0.00    +0.000 C 
ATOM      9  C   UNL     1       2.545   3.718  17.829  0.00  0.00    +0.000 C 
ATOM     10  C   UNL     1       3.494   3.768  16.636  0.00  0.00    +0.000 C 
ATOM     11  C   UNL     1       4.887   4.175  17.037  0.00  0.00    +0.000 A 
ATOM     12  C   UNL     1       5.956   4.155  16.126  0.00  0.00    +0.000 A 
ATOM     13 CL   UNL     1       5.737   3.643  14.490  0.00  0.00    +0.000 Cl
ATOM     14  C   UNL     1       7.235   4.570  16.512  0.00  0.00    +0.000 A 
ATOM     15  C   UNL     1       7.468   5.008  17.814  0.00  0.00    +0.000 A 
ATOM     16  C   UNL     1       6.418   5.040  18.726  0.00  0.00    +0.000 A 
ATOM     17  C   UNL     1       5.137   4.645  18.333  0.00  0.00    +0.000 A 
ATOM     18  O   UNL     1       4.168   4.763  19.293  0.00  0.00    +0.000 OA
ATOM     19  C   UNL     1       2.590   6.262  18.166  0.00  0.00    +0.000 C 
ATOM     20  C   UNL     1       2.860   7.368  19.183  0.00  0.00    +0.000 C 
ATOM     21  S   UNL     1       1.244   9.756  20.422  0.00  0.00    +0.000 S 
ENDROOT
BRANCH   1  25
ATOM     22  N   UNL     1      -1.469  13.399  21.686  0.00  0.00    +0.000 N 
ATOM     23  C   UNL     1      -1.333  13.355  20.313  0.00  0.00    +0.000 A 
ATOM     24  C   UNL     1      -0.893  12.138  19.959  0.00  0.00    +0.000 A 
ATOM     25  N   UNL     1      -0.755  11.370  21.094  0.00  0.00    +0.000 N 
ATOM     26  C   UNL     1      -1.123  12.137  22.238  0.00  0.00    +0.000 A 
ATOM     27  O   UNL     1      -1.114  11.880  23.426  0.00  0.00    +0.000 OA
BRANCH  22  28
ATOM     28  C   UNL     1      -1.934  14.527  22.471  0.00  0.00    +0.000 C 
BRANCH  28  30
ATOM     29  O   UNL     1      -0.052  16.007  22.814  0.00  0.00    +0.000 OA
ATOM     30  C   UNL     1      -0.832  15.190  23.286  0.00  0.00    +0.000 C 
BRANCH  30  31
ATOM     31  O   UNL     1      -0.809  14.849  24.596  0.00  0.00    +0.000 OA
ATOM     32  H   UNL     1       0.078  14.988  24.984  0.00  0.00    +0.000 HD
ENDBRANCH  30  31
ENDBRANCH  28  30
ENDBRANCH  22  28
ENDBRANCH   1  25
TORSDOF 4
ENDMDL
MODEL 2
REMARK VINA RESULT:      -7.6      1.339      1.741
REMARK  Name = 
REMARK  4 active torsions:
REMARK  status: ('A' for Active; 'I' for Inactive)
REMARK    1  A    between atoms: C_2  and  O_3
REMARK    2  A    between atoms: C_2  and  C_4
REMARK    3  A    between atoms: C_4  and  N_5
REMARK    4  A    between atoms: N_8  and  C_9
REMARK                            x       y       z     vdW  Elec       q    Type
REMARK                         _______ _______ _______ _____ _____    ______ ____
ROOT
ATOM      1  C   UNL     1      -0.223   9.725  21.374  0.00  0.00    +0.000 A 
ATOM      2  C   UNL     1      -0.790   8.517  21.722  0.00  0.00    +0.000 A 
ATOM      3  N   UNL     1      -0.037   7.393  21.432  0.00  0.00    +0.000 NA
ATOM      4  C   UNL     1       1.084   7.732  20.832  0.00  0.00    +0.000 A 
ATOM      5  N   UNL     1       2.016   6.851  20.389  0.00  0.00    +0.000 N 
ATOM      6  C   UNL     1       2.100   5.515  20.963  0.00  0.00    +0.000 C 
ATOM      7  C   UNL     1       1.867   4.461  19.883  0.00  0.00    +0.000 C 
ATOM      8  C   UNL     1       2.794   4.677  18.667  0.00  0.00    +0.000 C 
ATOM      9  C   UNL     1       2.499   3.607  17.609  0.00  0.00    +0.000 C 
ATOM     10  C   UNL     1       3.441   3.740  16.416  0.00  0.00    +0.000 C 
ATOM     11  C   UNL     1       4.842   4.094  16.838  0.00  0.00    +0.000 A 
ATOM     12  C   UNL     1       5.904   4.132  15.921  0.00  0.00    +0.000 A 
ATOM     13 CL   UNL     1       5.668   3.756  14.251  0.00  0.00    +0.000 Cl
ATOM     14  C   UNL     1       7.192   4.497  16.329  0.00  0.00    +0.000 A 
ATOM     15  C   UNL     1       7.439   4.827  17.660  0.00  0.00    +0.000 A 
ATOM     16  C   UNL     1       6.395   4.800  18.579  0.00  0.00    +0.000 A 
ATOM     17  C   UNL     1       5.107   4.456  18.165  0.00  0.00    +0.000 A 
ATOM     18  O   UNL     1       4.145   4.509  19.139  0.00  0.00    +0.000 OA
ATOM     19  C   UNL     1       2.582   6.116  18.147  0.00  0.00    +0.000 C 
ATOM     20  C   UNL     1       2.874   7.133  19.247  0.00  0.00    +0.000 C 
ATOM     21  S   UNL     1       1.300   9.436  20.684  0.00  0.00    +0.000 S 
ENDROOT
BRANCH   1  25
ATOM     22  N   UNL     1      -1.481  13.066  21.140  0.00  0.00    +0.000 N 
ATOM     23  C   UNL     1      -1.335  12.874  22.499  0.00  0.00    +0.000 A 
ATOM     24  C   UNL     1      -0.858  11.639  22.714  0.00  0.00    +0.000 A 
ATOM     25  N   UNL     1      -0.672  11.019  21.498  0.00  0.00    +0.000 N 
ATOM     26  C   UNL     1      -1.052  11.903  20.446  0.00  0.00    +0.000 A 
ATOM     27  O   UNL     1      -1.093  11.761  19.240  0.00  0.00    +0.000 OA
BRANCH  22  28
ATOM     28  C   UNL     1      -1.953  14.272  20.485  0.00  0.00    +0.000 C 
BRANCH  28  30
ATOM     29  O   UNL     1      -0.192  15.931  20.479  0.00  0.00    +0.000 OA
ATOM     30  C   UNL     1      -0.834  15.094  19.858  0.00  0.00    +0.000 C 
BRANCH  30  31
ATOM     31  O   UNL     1      -0.562  14.793  18.567  0.00  0.00    +0.000 OA
ATOM     32  H   UNL     1       0.304  15.155  18.292  0.00  0.00    +0.000 HD
ENDBRANCH  30  31
ENDBRANCH  28  30
ENDBRANCH  22  28
ENDBRANCH   1  25
TORSDOF 4
ENDMDL
MODEL 3
REMARK VINA RESULT:      -7.5      0.965      1.084
REMARK  Name = 
REMARK  4 active torsions:
REMARK  status: ('A' for Active; 'I' for Inactive)
REMARK    1  A    between atoms: C_2  and  O_3
REMARK    2  A    between atoms: C_2  and  C_4
REMARK    3  A    between atoms: C_4  and  N_5
REMARK    4  A    between atoms: N_8  and  C_9
REMARK                            x       y       z     vdW  Elec       q    Type
REMARK                         _______ _______ _______ _____ _____    ______ ____
ROOT
ATOM      1  C   UNL     1      -0.325  10.063  21.074  0.00  0.00    +0.000 A 
ATOM      2  C   UNL     1      -0.865   8.875  21.520  0.00  0.00    +0.000 A 
ATOM      3  N   UNL     1      -0.082   7.749  21.330  0.00  0.00    +0.000 NA
ATOM      4  C   UNL     1       1.036   8.066  20.710  0.00  0.00    +0.000 A 
ATOM      5  N   UNL     1       1.993   7.174  20.349  0.00  0.00    +0.000 N 
ATOM      6  C   UNL     1       2.105   5.893  21.034  0.00  0.00    +0.000 C 
ATOM      7  C   UNL     1       1.906   4.747  20.044  0.00  0.00    +0.000 C 
ATOM      8  C   UNL     1       2.838   4.884  18.821  0.00  0.00    +0.000 C 
ATOM      9  C   UNL     1       2.579   3.722  17.854  0.00  0.00    +0.000 C 
ATOM     10  C   UNL     1       3.527   3.778  16.660  0.00  0.00    +0.000 C 
ATOM     11  C   UNL     1       4.915   4.202  17.060  0.00  0.00    +0.000 A 
ATOM     12  C   UNL     1       5.984   4.189  16.150  0.00  0.00    +0.000 A 
ATOM     13 CL   UNL     1       5.771   3.669  14.516  0.00  0.00    +0.000 Cl
ATOM     14  C   UNL     1       7.259   4.620  16.534  0.00  0.00    +0.000 A 
ATOM     15  C   UNL     1       7.486   5.066  17.834  0.00  0.00    +0.000 A 
ATOM     16  C   UNL     1       6.436   5.090  18.745  0.00  0.00    +0.000 A 
ATOM     17  C   UNL     1       5.160   4.680  18.354  0.00  0.00    +0.000 A 
ATOM     18  O   UNL     1       4.189   4.790  19.314  0.00  0.00    +0.000 OA
ATOM     19  C   UNL     1       2.595   6.268  18.181  0.00  0.00    +0.000 C 
ATOM     20  C   UNL     1       2.853   7.381  19.193  0.00  0.00    +0.000 C 
ATOM     21  S   UNL     1       1.211   9.756  20.422  0.00  0.00    +0.000 S 
ENDROOT
BRANCH   1  25
ATOM     22  N   UNL     1      -1.523  13.381  21.670  0.00  0.00    +0.000 N 
ATOM     23  C   UNL     1      -1.430  13.317  20.294  0.00  0.00    +0.000 A 
ATOM     24  C   UNL     1      -0.988  12.099  19.945  0.00  0.00    +0.000 A 
ATOM     25  N   UNL     1      -0.806  11.352  21.087  0.00  0.00    +0.000 N 
ATOM     26  C   UNL     1      -1.146  12.132  22.231  0.00  0.00    +0.000 A 
ATOM     27  O   UNL     1      -1.097  11.894  23.422  0.00  0.00    +0.000 OA
BRANCH  22  28
ATOM     28  C   UNL     1      -1.977  14.517  22.451  0.00  0.00    +0.000 C 
BRANCH  28  30
ATOM     29  O   UNL     1      -4.394  14.592  22.377  0.00  0.00    +0.000 OA
ATOM     30  C   UNL     1      -3.381  14.338  23.015  0.00  0.00    +0.000 C 
BRANCH  30  31
ATOM     31  O   UNL     1      -3.430  13.821  24.265  0.00  0.00    +0.000 OA
ATOM     32  H   UNL     1      -3.809  12.920  24.264  0.00  0.00    +0.000 HD
ENDBRANCH  30  31
ENDBRANCH  28  30
ENDBRANCH  22  28
ENDBRANCH   1  25
TORSDOF 4
ENDMDL
MODEL 4
REMARK VINA RESULT:      -7.5      2.322      3.570
REMARK  Name = 
REMARK  4 active torsions:
REMARK  status: ('A' for Active; 'I' for Inactive)
REMARK    1  A    between atoms: C_2  and  O_3
REMARK    2  A    between atoms: C_2  and  C_4
REMARK    3  A    between atoms: C_4  and  N_5
REMARK    4  A    between atoms: N_8  and  C_9
REMARK                            x       y       z     vdW  Elec       q    Type
REMARK                         _______ _______ _______ _____ _____    ______ ____
ROOT
ATOM      1  C   UNL     1       0.137  12.008  21.076  0.00  0.00    +0.000 A 
ATOM      2  C   UNL     1       0.947  12.327  20.006  0.00  0.00    +0.000 A 
ATOM      3  N   UNL     1       1.366  11.261  19.230  0.00  0.00    +0.000 NA
ATOM      4  C   UNL     1       0.912  10.127  19.722  0.00  0.00    +0.000 A 
ATOM      5  N   UNL     1       1.183   8.903  19.204  0.00  0.00    +0.000 N 
ATOM      6  C   UNL     1       1.577   8.761  17.809  0.00  0.00    +0.000 C 
ATOM      7  C   UNL     1       2.968   8.137  17.714  0.00  0.00    +0.000 C 
ATOM      8  C   UNL     1       3.060   6.826  18.525  0.00  0.00    +0.000 C 
ATOM      9  C   UNL     1       4.480   6.260  18.412  0.00  0.00    +0.000 C 
ATOM     10  C   UNL     1       4.600   4.926  19.142  0.00  0.00    +0.000 C 
ATOM     11  C   UNL     1       3.373   4.071  18.964  0.00  0.00    +0.000 A 
ATOM     12  C   UNL     1       3.318   2.749  19.432  0.00  0.00    +0.000 A 
ATOM     13 CL   UNL     1       4.665   2.016  20.228  0.00  0.00    +0.000 Cl
ATOM     14  C   UNL     1       2.155   1.984  19.286  0.00  0.00    +0.000 A 
ATOM     15  C   UNL     1       1.031   2.528  18.668  0.00  0.00    +0.000 A 
ATOM     16  C   UNL     1       1.069   3.838  18.204  0.00  0.00    +0.000 A 
ATOM     17  C   UNL     1       2.224   4.607  18.370  0.00  0.00    +0.000 A 
ATOM     18  O   UNL     1       2.136   5.898  17.922  0.00  0.00    +0.000 OA
ATOM     19  C   UNL     1       2.644   7.128  19.981  0.00  0.00    +0.000 C 
ATOM     20  C   UNL     1       1.231   7.702  20.028  0.00  0.00    +0.000 C 
ATOM     21  S   UNL     1      -0.116  10.331  21.091  0.00  0.00    +0.000 S 
ENDROOT
BRANCH   1  25
ATOM     22  N   UNL     1      -1.050  14.443  23.413  0.00  0.00    +0.000 N 
ATOM     23  C   UNL     1      -1.894  13.370  23.615  0.00  0.00    +0.000 A 
ATOM     24  C   UNL     1      -1.539  12.377  22.784  0.00  0.00    +0.000 A 
ATOM     25  N   UNL     1      -0.450  12.786  22.046  0.00  0.00    +0.000 N 
ATOM     26  C   UNL     1      -0.089  14.114  22.421  0.00  0.00    +0.000 A 
ATOM     27  O   UNL     1       0.767  14.871  22.007  0.00  0.00    +0.000 OA
BRANCH  22  28
ATOM     28  C   UNL     1      -1.083  15.710  24.121  0.00  0.00    +0.000 C 
BRANCH  28  30
ATOM     29  O   UNL     1      -3.212  15.891  25.256  0.00  0.00    +0.000 OA
ATOM     30  C   UNL     1      -2.005  15.699  25.334  0.00  0.00    +0.000 C 
BRANCH  30  31
ATOM     31  O   UNL     1      -1.398  15.405  26.507  0.00  0.00    +0.000 OA
ATOM     32  H   UNL     1      -1.742  15.961  27.235  0.00  0.00    +0.000 HD
ENDBRANCH  30  31
ENDBRANCH  28  30
ENDBRANCH  22  28
ENDBRANCH   1  25
TORSDOF 4
ENDMDL
MODEL 5
REMARK VINA RESULT:      -7.5      3.797     10.449
REMARK  Name = 
REMARK  4 active torsions:
REMARK  status: ('A' for Active; 'I' for Inactive)
REMARK    1  A    between atoms: C_2  and  O_3
REMARK    2  A    between atoms: C_2  and  C_4
REMARK    3  A    between atoms: C_4  and  N_5
REMARK    4  A    between atoms: N_8  and  C_9
REMARK                            x       y       z     vdW  Elec       q    Type
REMARK                         _______ _______ _______ _____ _____    ______ ____
ROOT
ATOM      1  C   UNL     1       2.804   7.181  18.494  0.00  0.00    +0.000 A 
ATOM      2  C   UNL     1       2.816   8.109  17.474  0.00  0.00    +0.000 A 
ATOM      3  N   UNL     1       2.152   9.296  17.731  0.00  0.00    +0.000 NA
ATOM      4  C   UNL     1       1.601   9.264  18.927  0.00  0.00    +0.000 A 
ATOM      5  N   UNL     1       0.851  10.265  19.453  0.00  0.00    +0.000 N 
ATOM      6  C   UNL     1       0.994  11.630  18.965  0.00  0.00    +0.000 C 
ATOM      7  C   UNL     1      -0.332  12.127  18.392  0.00  0.00    +0.000 C 
ATOM      8  C   UNL     1      -1.491  11.940  19.394  0.00  0.00    +0.000 C 
ATOM      9  C   UNL     1      -2.796  12.433  18.758  0.00  0.00    +0.000 C 
ATOM     10  C   UNL     1      -3.959  12.333  19.740  0.00  0.00    +0.000 C 
ATOM     11  C   UNL     1      -3.552  12.707  21.140  0.00  0.00    +0.000 A 
ATOM     12  C   UNL     1      -4.489  12.819  22.179  0.00  0.00    +0.000 A 
ATOM     13 CL   UNL     1      -6.174  12.549  21.906  0.00  0.00    +0.000 Cl
ATOM     14  C   UNL     1      -4.084  13.136  23.480  0.00  0.00    +0.000 A 
ATOM     15  C   UNL     1      -2.737  13.348  23.763  0.00  0.00    +0.000 A 
ATOM     16  C   UNL     1      -1.795  13.235  22.745  0.00  0.00    +0.000 A 
ATOM     17  C   UNL     1      -2.200  12.898  21.452  0.00  0.00    +0.000 A 
ATOM     18  O   UNL     1      -1.188  12.764  20.538  0.00  0.00    +0.000 OA
ATOM     19  C   UNL     1      -1.542  10.452  19.804  0.00  0.00    +0.000 C 
ATOM     20  C   UNL     1      -0.213  10.017  20.415  0.00  0.00    +0.000 C 
ATOM     21  S   UNL     1       1.953   7.828  19.812  0.00  0.00    +0.000 S 
ENDROOT
BRANCH   1  25
ATOM     22  N   UNL     1       3.692   3.746  18.956  0.00  0.00    +0.000 N 
ATOM     23  C   UNL     1       4.785   4.273  18.298  0.00  0.00    +0.000 A 
ATOM     24  C   UNL     1       4.567   5.577  18.069  0.00  0.00    +0.000 A 
ATOM     25  N   UNL     1       3.340   5.918  18.593  0.00  0.00    +0.000 N 
ATOM     26  C   UNL     1       2.736   4.771  19.186  0.00  0.00    +0.000 A 
ATOM     27  O   UNL     1       1.655   4.604  19.717  0.00  0.00    +0.000 OA
BRANCH  22  28
ATOM     28  C   UNL     1       3.533   2.374  19.402  0.00  0.00    +0.000 C 
BRANCH  28  30
ATOM     29  O   UNL     1       5.056   1.738  21.170  0.00  0.00    +0.000 OA
ATOM     30  C   UNL     1       3.952   2.159  20.850  0.00  0.00    +0.000 C 
BRANCH  30  31
ATOM     31  O   UNL     1       3.027   2.520  21.770  0.00  0.00    +0.000 OA
ATOM     32  H   UNL     1       2.462   1.763  22.023  0.00  0.00    +0.000 HD
ENDBRANCH  30  31
ENDBRANCH  28  30
ENDBRANCH  22  28
ENDBRANCH   1  25
TORSDOF 4
ENDMDL
MODEL 6
REMARK VINA RESULT:      -7.5      3.903     10.787
REMARK  Name = 
REMARK  4 active torsions:
REMARK  status: ('A' for Active; 'I' for Inactive)
REMARK    1  A    between atoms: C_2  and  O_3
REMARK    2  A    between atoms: C_2  and  C_4
REMARK    3  A    between atoms: C_4  and  N_5
REMARK    4  A    between atoms: N_8  and  C_9
REMARK                            x       y       z     vdW  Elec       q    Type
REMARK                         _______ _______ _______ _____ _____    ______ ____
ROOT
ATOM      1  C   UNL     1       2.205   7.578  18.965  0.00  0.00    +0.000 A 
ATOM      2  C   UNL     1       1.906   8.318  17.840  0.00  0.00    +0.000 A 
ATOM      3  N   UNL     1       1.313   9.548  18.070  0.00  0.00    +0.000 NA
ATOM      4  C   UNL     1       1.125   9.734  19.359  0.00  0.00    +0.000 A 
ATOM      5  N   UNL     1       0.531  10.829  19.897  0.00  0.00    +0.000 N 
ATOM      6  C   UNL     1       0.497  12.087  19.164  0.00  0.00    +0.000 C 
ATOM      7  C   UNL     1      -0.949  12.513  18.914  0.00  0.00    +0.000 C 
ATOM      8  C   UNL     1      -1.771  12.529  20.221  0.00  0.00    +0.000 C 
ATOM      9  C   UNL     1      -3.214  12.940  19.906  0.00  0.00    +0.000 C 
ATOM     10  C   UNL     1      -4.048  13.038  21.179  0.00  0.00    +0.000 C 
ATOM     11  C   UNL     1      -3.270  13.635  22.321  0.00  0.00    +0.000 A 
ATOM     12  C   UNL     1      -3.877  13.946  23.548  0.00  0.00    +0.000 A 
ATOM     13 CL   UNL     1      -5.563  13.677  23.815  0.00  0.00    +0.000 Cl
ATOM     14  C   UNL     1      -3.127  14.468  24.608  0.00  0.00    +0.000 A 
ATOM     15  C   UNL     1      -1.760  14.691  24.457  0.00  0.00    +0.000 A 
ATOM     16  C   UNL     1      -1.143  14.382  23.249  0.00  0.00    +0.000 A 
ATOM     17  C   UNL     1      -1.890  13.841  22.200  0.00  0.00    +0.000 A 
ATOM     18  O   UNL     1      -1.175  13.527  21.074  0.00  0.00    +0.000 OA
ATOM     19  C   UNL     1      -1.668  11.134  20.875  0.00  0.00    +0.000 C 
ATOM     20  C   UNL     1      -0.210  10.776  21.150  0.00  0.00    +0.000 C 
ATOM     21  S   UNL     1       1.748   8.461  20.340  0.00  0.00    +0.000 S 
ENDROOT
BRANCH   1  25
ATOM     22  N   UNL     1       3.206   4.206  19.619  0.00  0.00    +0.000 N 
ATOM     23  C   UNL     1       4.242   4.704  18.856  0.00  0.00    +0.000 A 
ATOM     24  C   UNL     1       3.979   5.983  18.547  0.00  0.00    +0.000 A 
ATOM     25  N   UNL     1       2.778   6.337  19.121  0.00  0.00    +0.000 N 
ATOM     26  C   UNL     1       2.240   5.225  19.833  0.00  0.00    +0.000 A 
ATOM     27  O   UNL     1       1.199   5.076  20.443  0.00  0.00    +0.000 OA
BRANCH  22  28
ATOM     28  C   UNL     1       3.109   2.868  20.173  0.00  0.00    +0.000 C 
BRANCH  28  30
ATOM     29  O   UNL     1       3.708   1.309  18.423  0.00  0.00    +0.000 OA
ATOM     30  C   UNL     1       4.011   1.859  19.474  0.00  0.00    +0.000 C 
BRANCH  30  31
ATOM     31  O   UNL     1       5.207   1.653  20.074  0.00  0.00    +0.000 OA
ATOM     32  H   UNL     1       5.357   0.703  20.251  0.00  0.00    +0.000 HD
ENDBRANCH  30  31
ENDBRANCH  28  30
ENDBRANCH  22  28
ENDBRANCH   1  25
TORSDOF 4
ENDMDL
MODEL 7
REMARK VINA RESULT:      -7.4      3.946     10.936
REMARK  Name = 
REMARK  4 active torsions:
REMARK  status: ('A' for Active; 'I' for Inactive)
REMARK    1  A    between atoms: C_2  and  O_3
REMARK    2  A    between atoms: C_2  and  C_4
REMARK    3  A    between atoms: C_4  and  N_5
REMARK    4  A    between atoms: N_8  and  C_9
REMARK                            x       y       z     vdW  Elec       q    Type
REMARK                         _______ _______ _______ _____ _____    ______ ____
ROOT
ATOM      1  C   UNL     1       1.964   7.354  19.589  0.00  0.00    +0.000 A 
ATOM      2  C   UNL     1       1.921   8.152  18.466  0.00  0.00    +0.000 A 
ATOM      3  N   UNL     1       1.477   9.448  18.665  0.00  0.00    +0.000 NA
ATOM      4  C   UNL     1       1.146   9.632  19.926  0.00  0.00    +0.000 A 
ATOM      5  N   UNL     1       0.642  10.788  20.426  0.00  0.00    +0.000 N 
ATOM      6  C   UNL     1       0.878  12.053  19.745  0.00  0.00    +0.000 C 
ATOM      7  C   UNL     1      -0.450  12.684  19.328  0.00  0.00    +0.000 C 
ATOM      8  C   UNL     1      -1.428  12.788  20.517  0.00  0.00    +0.000 C 
ATOM      9  C   UNL     1      -2.747  13.405  20.035  0.00  0.00    +0.000 C 
ATOM     10  C   UNL     1      -3.722  13.592  21.193  0.00  0.00    +0.000 C 
ATOM     11  C   UNL     1      -3.028  14.049  22.449  0.00  0.00    +0.000 A 
ATOM     12  C   UNL     1      -3.745  14.417  23.599  0.00  0.00    +0.000 A 
ATOM     13 CL   UNL     1      -5.473  14.382  23.635  0.00  0.00    +0.000 Cl
ATOM     14  C   UNL     1      -3.079  14.806  24.766  0.00  0.00    +0.000 A 
ATOM     15  C   UNL     1      -1.686  14.837  24.801  0.00  0.00    +0.000 A 
ATOM     16  C   UNL     1      -0.962  14.470  23.672  0.00  0.00    +0.000 A 
ATOM     17  C   UNL     1      -1.629  14.061  22.515  0.00  0.00    +0.000 A 
ATOM     18  O   UNL     1      -0.821  13.674  21.479  0.00  0.00    +0.000 OA
ATOM     19  C   UNL     1      -1.606  11.379  21.124  0.00  0.00    +0.000 C 
ATOM     20  C   UNL     1      -0.261  10.813  21.569  0.00  0.00    +0.000 C 
ATOM     21  S   UNL     1       1.453   8.263  20.928  0.00  0.00    +0.000 S 
ENDROOT
BRANCH   1  25
ATOM     22  N   UNL     1       3.341   4.053  19.686  0.00  0.00    +0.000 N 
ATOM     23  C   UNL     1       2.377   4.026  20.674  0.00  0.00    +0.000 A 
ATOM     24  C   UNL     1       1.780   5.226  20.730  0.00  0.00    +0.000 A 
ATOM     25  N   UNL     1       2.335   6.041  19.769  0.00  0.00    +0.000 N 
ATOM     26  C   UNL     1       3.344   5.328  19.059  0.00  0.00    +0.000 A 
ATOM     27  O   UNL     1       4.107   5.662  18.174  0.00  0.00    +0.000 OA
BRANCH  22  28
ATOM     28  C   UNL     1       4.202   2.953  19.292  0.00  0.00    +0.000 C 
BRANCH  28  30
ATOM     29  O   UNL     1       2.571   2.225  17.660  0.00  0.00    +0.000 OA
ATOM     30  C   UNL     1       3.509   1.937  18.393  0.00  0.00    +0.000 C 
BRANCH  30  31
ATOM     31  O   UNL     1       4.042   0.694  18.422  0.00  0.00    +0.000 OA
ATOM     32  H   UNL     1       4.971   0.697  18.116  0.00  0.00    +0.000 HD
ENDBRANCH  30  31
ENDBRANCH  28  30
ENDBRANCH  22  28
ENDBRANCH   1  25
TORSDOF 4
ENDMDL
MODEL 8
REMARK VINA RESULT:      -7.4      2.480      3.686
REMARK  Name = 
REMARK  4 active torsions:
REMARK  status: ('A' for Active; 'I' for Inactive)
REMARK    1  A    between atoms: C_2  and  O_3
REMARK    2  A    between atoms: C_2  and  C_4
REMARK    3  A    between atoms: C_4  and  N_5
REMARK    4  A    between atoms: N_8  and  C_9
REMARK                            x       y       z     vdW  Elec       q    Type
REMARK                         _______ _______ _______ _____ _____    ______ ____
ROOT
ATOM      1  C   UNL     1       0.105  12.156  20.521  0.00  0.00    +0.000 A 
ATOM      2  C   UNL     1       1.002  12.401  19.502  0.00  0.00    +0.000 A 
ATOM      3  N   UNL     1       1.460  11.285  18.823  0.00  0.00    +0.000 NA
ATOM      4  C   UNL     1       0.948  10.188  19.341  0.00  0.00    +0.000 A 
ATOM      5  N   UNL     1       1.235   8.932  18.916  0.00  0.00    +0.000 N 
ATOM      6  C   UNL     1       1.733   8.704  17.567  0.00  0.00    +0.000 C 
ATOM      7  C   UNL     1       3.115   8.055  17.618  0.00  0.00    +0.000 C 
ATOM      8  C   UNL     1       3.119   6.792  18.506  0.00  0.00    +0.000 C 
ATOM      9  C   UNL     1       4.532   6.199  18.539  0.00  0.00    +0.000 C 
ATOM     10  C   UNL     1       4.569   4.908  19.350  0.00  0.00    +0.000 C 
ATOM     11  C   UNL     1       3.343   4.063  19.124  0.00  0.00    +0.000 A 
ATOM     12  C   UNL     1       3.226   2.771  19.660  0.00  0.00    +0.000 A 
ATOM     13 CL   UNL     1       4.492   2.066  20.601  0.00  0.00    +0.000 Cl
ATOM     14  C   UNL     1       2.064   2.016  19.466  0.00  0.00    +0.000 A 
ATOM     15  C   UNL     1       1.002   2.539  18.730  0.00  0.00    +0.000 A 
ATOM     16  C   UNL     1       1.101   3.821  18.198  0.00  0.00    +0.000 A 
ATOM     17  C   UNL     1       2.254   4.580  18.411  0.00  0.00    +0.000 A 
ATOM     18  O   UNL     1       2.227   5.845  17.886  0.00  0.00    +0.000 OA
ATOM     19  C   UNL     1       2.595   7.184  19.906  0.00  0.00    +0.000 C 
ATOM     20  C   UNL     1       1.194   7.781  19.808  0.00  0.00    +0.000 C 
ATOM     21  S   UNL     1      -0.181  10.486  20.610  0.00  0.00    +0.000 S 
ENDROOT
BRANCH   1  25
ATOM     22  N   UNL     1      -2.041  14.050  22.667  0.00  0.00    +0.000 N 
ATOM     23  C   UNL     1      -0.784  14.534  22.965  0.00  0.00    +0.000 A 
ATOM     24  C   UNL     1       0.120  13.892  22.208  0.00  0.00    +0.000 A 
ATOM     25  N   UNL     1      -0.541  12.997  21.396  0.00  0.00    +0.000 N 
ATOM     26  C   UNL     1      -1.943  13.066  21.647  0.00  0.00    +0.000 A 
ATOM     27  O   UNL     1      -2.881  12.437  21.199  0.00  0.00    +0.000 OA
BRANCH  22  28
ATOM     28  C   UNL     1      -3.295  14.490  23.251  0.00  0.00    +0.000 C 
BRANCH  28  30
ATOM     29  O   UNL     1      -4.056  12.633  24.602  0.00  0.00    +0.000 OA
ATOM     30  C   UNL     1      -3.633  13.781  24.556  0.00  0.00    +0.000 C 
BRANCH  30  31
ATOM     31  O   UNL     1      -3.379  14.498  25.676  0.00  0.00    +0.000 OA
ATOM     32  H   UNL     1      -3.444  13.941  26.477  0.00  0.00    +0.000 HD
ENDBRANCH  30  31
ENDBRANCH  28  30
ENDBRANCH  22  28
ENDBRANCH   1  25
TORSDOF 4
ENDMDL
MODEL 9
REMARK VINA RESULT:      -7.4      1.618      1.973
REMARK  Name = 
REMARK  4 active torsions:
REMARK  status: ('A' for Active; 'I' for Inactive)
REMARK    1  A    between atoms: C_2  and  O_3
REMARK    2  A    between atoms: C_2  and  C_4
REMARK    3  A    between atoms: C_4  and  N_5
REMARK    4  A    between atoms: N_8  and  C_9
REMARK                            x       y       z     vdW  Elec       q    Type
REMARK                         _______ _______ _______ _____ _____    ______ ____
ROOT
ATOM      1  C   UNL     1      -0.316   9.788  21.448  0.00  0.00    +0.000 A 
ATOM      2  C   UNL     1      -0.874   8.574  21.787  0.00  0.00    +0.000 A 
ATOM      3  N   UNL     1      -0.108   7.458  21.497  0.00  0.00    +0.000 NA
ATOM      4  C   UNL     1       1.014   7.810  20.906  0.00  0.00    +0.000 A 
ATOM      5  N   UNL     1       1.956   6.939  20.466  0.00  0.00    +0.000 N 
ATOM      6  C   UNL     1       2.049   5.602  21.034  0.00  0.00    +0.000 C 
ATOM      7  C   UNL     1       1.832   4.550  19.947  0.00  0.00    +0.000 C 
ATOM      8  C   UNL     1       2.765   4.781  18.739  0.00  0.00    +0.000 C 
ATOM      9  C   UNL     1       2.487   3.713  17.674  0.00  0.00    +0.000 C 
ATOM     10  C   UNL     1       3.436   3.860  16.488  0.00  0.00    +0.000 C 
ATOM     11  C   UNL     1       4.831   4.225  16.921  0.00  0.00    +0.000 A 
ATOM     12  C   UNL     1       5.898   4.277  16.011  0.00  0.00    +0.000 A 
ATOM     13 CL   UNL     1       5.677   3.906  14.338  0.00  0.00    +0.000 Cl
ATOM     14  C   UNL     1       7.180   4.652  16.429  0.00  0.00    +0.000 A 
ATOM     15  C   UNL     1       7.415   4.978  17.763  0.00  0.00    +0.000 A 
ATOM     16  C   UNL     1       6.366   4.937  18.675  0.00  0.00    +0.000 A 
ATOM     17  C   UNL     1       5.083   4.583  18.251  0.00  0.00    +0.000 A 
ATOM     18  O   UNL     1       4.115   4.623  19.220  0.00  0.00    +0.000 OA
ATOM     19  C   UNL     1       2.544   6.220  18.224  0.00  0.00    +0.000 C 
ATOM     20  C   UNL     1       2.819   7.234  19.330  0.00  0.00    +0.000 C 
ATOM     21  S   UNL     1       1.215   9.517  20.767  0.00  0.00    +0.000 S 
ENDROOT
BRANCH   1  25
ATOM     22  N   UNL     1      -1.751  13.061  21.271  0.00  0.00    +0.000 N 
ATOM     23  C   UNL     1      -1.238  13.006  22.551  0.00  0.00    +0.000 A 
ATOM     24  C   UNL     1      -0.661  11.809  22.737  0.00  0.00    +0.000 A 
ATOM     25  N   UNL     1      -0.777  11.078  21.575  0.00  0.00    +0.000 N 
ATOM     26  C   UNL     1      -1.467  11.846  20.592  0.00  0.00    +0.000 A 
ATOM     27  O   UNL     1      -1.822  11.587  19.459  0.00  0.00    +0.000 OA
BRANCH  22  28
ATOM     28  C   UNL     1      -2.438  14.187  20.666  0.00  0.00    +0.000 C 
BRANCH  28  30
ATOM     29  O   UNL     1      -4.653  14.558  21.566  0.00  0.00    +0.000 OA
ATOM     30  C   UNL     1      -3.956  14.053  20.695  0.00  0.00    +0.000 C 
BRANCH  30  31
ATOM     31  O   UNL     1      -4.488  13.375  19.652  0.00  0.00    +0.000 OA
ATOM     32  H   UNL     1      -4.417  13.887  18.822  0.00  0.00    +0.000 HD
ENDBRANCH  30  31
ENDBRANCH  28  30
ENDBRANCH  22  28
ENDBRANCH   1  25
TORSDOF 4
ENDMDL
