MODEL 1
REMARK VINA RESULT:      -6.4      0.000      0.000
REMARK  Name = 
REMARK  14 active torsions:
REMARK  status: ('A' for Active; 'I' for Inactive)
REMARK    1  A    between atoms: C_1  and  O_2
REMARK    2  A    between atoms: O_2  and  C_3
REMARK    3  A    between atoms: C_7  and  C_8
REMARK    4  A    between atoms: C_9  and  C_10
REMARK    5  A    between atoms: N_11  and  C_12
REMARK    6  A    between atoms: C_12  and  C_13
REMARK    7  A    between atoms: N_23  and  C_24
REMARK    8  A    between atoms: C_24  and  C_25
REMARK    9  A    between atoms: C_25  and  C_26
REMARK   10  A    between atoms: C_25  and  N_29
REMARK   11  A    between atoms: C_26  and  C_27
REMARK   12  A    between atoms: C_26  and  C_28
REMARK   13  A    between atoms: N_29  and  C_30
REMARK   14  A    between atoms: N_29  and  C_31
REMARK                            x       y       z     vdW  Elec       q    Type
REMARK                         _______ _______ _______ _____ _____    ______ ____
ROOT
ATOM      1  C   UNL     1       0.956  13.987  20.358  0.00  0.00    +0.000 A 
ATOM      2  C   UNL     1       0.656  12.790  19.807  0.00  0.00    +0.000 A 
ATOM      3  C   UNL     1       1.315  12.294  18.533  0.00  0.00    +0.000 C 
ATOM      4  N   UNL     1      -0.248  11.941  20.453  0.00  0.00    +0.000 N 
ATOM      5  C   UNL     1      -0.752  12.200  21.732  0.00  0.00    +0.000 A 
ATOM      6  O   UNL     1      -1.371  11.342  22.367  0.00  0.00    +0.000 OA
ATOM      7  N   UNL     1      -0.565  13.483  22.218  0.00  0.00    +0.000 N 
ATOM      8  C   UNL     1       0.233  14.422  21.592  0.00  0.00    +0.000 A 
ATOM      9  O   UNL     1       0.389  15.567  22.025  0.00  0.00    +0.000 OA
ENDROOT
BRANCH   1  14
ATOM     10  C   UNL     1       2.624  16.660  18.237  0.00  0.00    +0.000 A 
ATOM     11  C   UNL     1       3.927  16.596  18.744  0.00  0.00    +0.000 A 
ATOM     12  C   UNL     1       4.262  15.692  19.752  0.00  0.00    +0.000 A 
ATOM     13  C   UNL     1       3.287  14.842  20.274  0.00  0.00    +0.000 A 
ATOM     14  C   UNL     1       1.974  14.894  19.788  0.00  0.00    +0.000 A 
ATOM     15  C   UNL     1       1.651  15.802  18.767  0.00  0.00    +0.000 A 
ATOM     16  F   UNL     1       0.395  15.808  18.294  0.00  0.00    +0.000 F 
BRANCH  10  18
ATOM     17  C   UNL     1       1.267  18.357  17.260  0.00  0.00    +0.000 C 
ATOM     18  O   UNL     1       2.463  17.589  17.246  0.00  0.00    +0.000 OA
ENDBRANCH  10  18
ENDBRANCH   1  14
BRANCH   4  19
ATOM     19  C   UNL     1      -0.692  10.683  19.841  0.00  0.00    +0.000 C 
BRANCH  19  20
ATOM     20  C   UNL     1      -1.705  10.771  18.729  0.00  0.00    +0.000 A 
ATOM     21  C   UNL     1      -2.899  11.487  18.785  0.00  0.00    +0.000 A 
ATOM     22  F   UNL     1      -3.244  12.175  19.882  0.00  0.00    +0.000 F 
ATOM     23  C   UNL     1      -3.796  11.494  17.714  0.00  0.00    +0.000 A 
ATOM     24  C   UNL     1      -3.503  10.786  16.551  0.00  0.00    +0.000 A 
ATOM     25  C   UNL     1      -2.307  10.081  16.462  0.00  0.00    +0.000 A 
ATOM     26  C   UNL     1      -1.426  10.080  17.544  0.00  0.00    +0.000 A 
ATOM     27  F   UNL     1      -0.285   9.387  17.434  0.00  0.00    +0.000 F 
ENDBRANCH  19  20
ENDBRANCH   4  19
BRANCH   7  28
ATOM     28  C   UNL     1      -1.202  13.847  23.496  0.00  0.00    +0.000 C 
BRANCH  28  29
ATOM     29  C   UNL     1      -2.578  14.604  23.394  0.00  0.00    +0.000 C 
BRANCH  29  30
ATOM     30  C   UNL     1      -2.625  15.775  24.456  0.00  0.00    +0.000 C 
ATOM     31  C   UNL     1      -2.239  17.178  23.974  0.00  0.00    +0.000 C 
ATOM     32  C   UNL     1      -1.814  15.439  25.716  0.00  0.00    +0.000 C 
ENDBRANCH  29  30
BRANCH  29  33
ATOM     33  N   UNL     1      -3.830  13.797  23.337  0.00  0.00    +0.000 NA
ATOM     34  C   UNL     1      -3.864  12.711  24.314  0.00  0.00    +0.000 C 
ATOM     35  C   UNL     1      -5.084  14.541  23.398  0.00  0.00    +0.000 C 
ENDBRANCH  29  33
ENDBRANCH  28  29
ENDBRANCH   7  28
TORSDOF 8
ENDMDL
MODEL 2
REMARK VINA RESULT:      -6.3      1.203      2.313
REMARK  Name = 
REMARK  14 active torsions:
REMARK  status: ('A' for Active; 'I' for Inactive)
REMARK    1  A    between atoms: C_1  and  O_2
REMARK    2  A    between atoms: O_2  and  C_3
REMARK    3  A    between atoms: C_7  and  C_8
REMARK    4  A    between atoms: C_9  and  C_10
REMARK    5  A    between atoms: N_11  and  C_12
REMARK    6  A    between atoms: C_12  and  C_13
REMARK    7  A    between atoms: N_23  and  C_24
REMARK    8  A    between atoms: C_24  and  C_25
REMARK    9  A    between atoms: C_25  and  C_26
REMARK   10  A    between atoms: C_25  and  N_29
REMARK   11  A    between atoms: C_26  and  C_27
REMARK   12  A    between atoms: C_26  and  C_28
REMARK   13  A    between atoms: N_29  and  C_30
REMARK   14  A    between atoms: N_29  and  C_31
REMARK                            x       y       z     vdW  Elec       q    Type
REMARK                         _______ _______ _______ _____ _____    ______ ____
ROOT
ATOM      1  C   UNL     1      -0.440  14.576  20.178  0.00  0.00    +0.000 A 
ATOM      2  C   UNL     1      -0.534  13.341  19.639  0.00  0.00    +0.000 A 
ATOM      3  C   UNL     1      -0.020  13.019  18.248  0.00  0.00    +0.000 C 
ATOM      4  N   UNL     1      -1.069  12.296  20.400  0.00  0.00    +0.000 N 
ATOM      5  C   UNL     1      -1.378  12.426  21.758  0.00  0.00    +0.000 A 
ATOM      6  O   UNL     1      -1.641  11.444  22.456  0.00  0.00    +0.000 OA
ATOM      7  N   UNL     1      -1.423  13.717  22.256  0.00  0.00    +0.000 N 
ATOM      8  C   UNL     1      -1.008  14.822  21.539  0.00  0.00    +0.000 A 
ATOM      9  O   UNL     1      -1.059  15.972  21.985  0.00  0.00    +0.000 OA
ENDROOT
BRANCH   1  14
ATOM     10  C   UNL     1       2.164  17.066  18.977  0.00  0.00    +0.000 A 
ATOM     11  C   UNL     1       1.380  17.843  18.116  0.00  0.00    +0.000 A 
ATOM     12  C   UNL     1       0.025  17.569  17.936  0.00  0.00    +0.000 A 
ATOM     13  C   UNL     1      -0.564  16.502  18.614  0.00  0.00    +0.000 A 
ATOM     14  C   UNL     1       0.204  15.705  19.474  0.00  0.00    +0.000 A 
ATOM     15  C   UNL     1       1.565  15.996  19.653  0.00  0.00    +0.000 A 
ATOM     16  F   UNL     1       2.270  15.239  20.510  0.00  0.00    +0.000 F 
BRANCH  10  18
ATOM     17  C   UNL     1       4.451  16.616  18.482  0.00  0.00    +0.000 C 
ATOM     18  O   UNL     1       3.469  17.472  19.051  0.00  0.00    +0.000 OA
ENDBRANCH  10  18
ENDBRANCH   1  14
BRANCH   4  19
ATOM     19  C   UNL     1      -1.298  10.966  19.823  0.00  0.00    +0.000 C 
BRANCH  19  20
ATOM     20  C   UNL     1      -2.127  10.885  18.568  0.00  0.00    +0.000 A 
ATOM     21  C   UNL     1      -1.758  10.214  17.404  0.00  0.00    +0.000 A 
ATOM     22  F   UNL     1      -0.587   9.569  17.317  0.00  0.00    +0.000 F 
ATOM     23  C   UNL     1      -2.579  10.210  16.274  0.00  0.00    +0.000 A 
ATOM     24  C   UNL     1      -3.802  10.875  16.294  0.00  0.00    +0.000 A 
ATOM     25  C   UNL     1      -4.204  11.533  17.452  0.00  0.00    +0.000 A 
ATOM     26  C   UNL     1      -3.369  11.532  18.570  0.00  0.00    +0.000 A 
ATOM     27  F   UNL     1      -3.776  12.180  19.669  0.00  0.00    +0.000 F 
ENDBRANCH  19  20
ENDBRANCH   4  19
BRANCH   7  28
ATOM     28  C   UNL     1      -1.883  13.915  23.642  0.00  0.00    +0.000 C 
BRANCH  28  29
ATOM     29  C   UNL     1      -3.330  14.513  23.814  0.00  0.00    +0.000 C 
BRANCH  29  30
ATOM     30  C   UNL     1      -3.337  15.568  24.992  0.00  0.00    +0.000 C 
ATOM     31  C   UNL     1      -3.943  16.946  24.699  0.00  0.00    +0.000 C 
ATOM     32  C   UNL     1      -1.941  15.754  25.603  0.00  0.00    +0.000 C 
ENDBRANCH  29  30
BRANCH  29  33
ATOM     33  N   UNL     1      -4.487  13.573  23.844  0.00  0.00    +0.000 NA
ATOM     34  C   UNL     1      -4.957  13.189  22.514  0.00  0.00    +0.000 C 
ATOM     35  C   UNL     1      -4.328  12.377  24.664  0.00  0.00    +0.000 C 
ENDBRANCH  29  33
ENDBRANCH  28  29
ENDBRANCH   7  28
TORSDOF 8
ENDMDL
MODEL 3
REMARK VINA RESULT:      -6.3      1.509      2.184
REMARK  Name = 
REMARK  14 active torsions:
REMARK  status: ('A' for Active; 'I' for Inactive)
REMARK    1  A    between atoms: C_1  and  O_2
REMARK    2  A    between atoms: O_2  and  C_3
REMARK    3  A    between atoms: C_7  and  C_8
REMARK    4  A    between atoms: C_9  and  C_10
REMARK    5  A    between atoms: N_11  and  C_12
REMARK    6  A    between atoms: C_12  and  C_13
REMARK    7  A    between atoms: N_23  and  C_24
REMARK    8  A    between atoms: C_24  and  C_25
REMARK    9  A    between atoms: C_25  and  C_26
REMARK   10  A    between atoms: C_25  and  N_29
REMARK   11  A    between atoms: C_26  and  C_27
REMARK   12  A    between atoms: C_26  and  C_28
REMARK   13  A    between atoms: N_29  and  C_30
REMARK   14  A    between atoms: N_29  and  C_31
REMARK                            x       y       z     vdW  Elec       q    Type
REMARK                         _______ _______ _______ _____ _____    ______ ____
ROOT
ATOM      1  C   UNL     1      -0.597  14.818  20.058  0.00  0.00    +0.000 A 
ATOM      2  C   UNL     1      -0.590  13.560  19.566  0.00  0.00    +0.000 A 
ATOM      3  C   UNL     1       0.166  13.185  18.304  0.00  0.00    +0.000 C 
ATOM      4  N   UNL     1      -1.248  12.543  20.265  0.00  0.00    +0.000 N 
ATOM      5  C   UNL     1      -1.794  12.727  21.539  0.00  0.00    +0.000 A 
ATOM      6  O   UNL     1      -2.175  11.773  22.222  0.00  0.00    +0.000 OA
ATOM      7  N   UNL     1      -1.932  14.038  21.964  0.00  0.00    +0.000 N 
ATOM      8  C   UNL     1      -1.400  15.116  21.283  0.00  0.00    +0.000 A 
ATOM      9  O   UNL     1      -1.533  16.283  21.662  0.00  0.00    +0.000 OA
ENDROOT
BRANCH   1  14
ATOM     10  C   UNL     1       2.168  17.288  19.235  0.00  0.00    +0.000 A 
ATOM     11  C   UNL     1       1.550  18.013  18.210  0.00  0.00    +0.000 A 
ATOM     12  C   UNL     1       0.252  17.712  17.799  0.00  0.00    +0.000 A 
ATOM     13  C   UNL     1      -0.444  16.668  18.408  0.00  0.00    +0.000 A 
ATOM     14  C   UNL     1       0.157  15.923  19.430  0.00  0.00    +0.000 A 
ATOM     15  C   UNL     1       1.461  16.242  19.841  0.00  0.00    +0.000 A 
ATOM     16  F   UNL     1       2.002  15.535  20.847  0.00  0.00    +0.000 F 
BRANCH  10  18
ATOM     17  C   UNL     1       3.649  18.290  20.810  0.00  0.00    +0.000 C 
ATOM     18  O   UNL     1       3.435  17.716  19.527  0.00  0.00    +0.000 OA
ENDBRANCH  10  18
ENDBRANCH   1  14
BRANCH   4  19
ATOM     19  C   UNL     1      -1.366  11.186  19.717  0.00  0.00    +0.000 C 
BRANCH  19  20
ATOM     20  C   UNL     1      -2.238  11.000  18.503  0.00  0.00    +0.000 A 
ATOM     21  C   UNL     1      -3.519  11.525  18.346  0.00  0.00    +0.000 A 
ATOM     22  F   UNL     1      -4.088  12.264  19.309  0.00  0.00    +0.000 F 
ATOM     23  C   UNL     1      -4.271  11.283  17.195  0.00  0.00    +0.000 A 
ATOM     24  C   UNL     1      -3.743  10.509  16.163  0.00  0.00    +0.000 A 
ATOM     25  C   UNL     1      -2.457   9.992  16.286  0.00  0.00    +0.000 A 
ATOM     26  C   UNL     1      -1.723  10.240  17.446  0.00  0.00    +0.000 A 
ATOM     27  F   UNL     1      -0.491   9.723  17.541  0.00  0.00    +0.000 F 
ENDBRANCH  19  20
ENDBRANCH   4  19
BRANCH   7  28
ATOM     28  C   UNL     1      -2.633  14.291  23.235  0.00  0.00    +0.000 C 
BRANCH  28  29
ATOM     29  C   UNL     1      -4.176  14.586  23.130  0.00  0.00    +0.000 C 
BRANCH  29  30
ATOM     30  C   UNL     1      -4.494  16.002  23.759  0.00  0.00    +0.000 C 
ATOM     31  C   UNL     1      -3.741  16.389  25.037  0.00  0.00    +0.000 C 
ATOM     32  C   UNL     1      -5.999  16.204  23.985  0.00  0.00    +0.000 C 
ENDBRANCH  29  30
BRANCH  29  33
ATOM     33  N   UNL     1      -5.133  13.519  23.541  0.00  0.00    +0.000 NA
ATOM     34  C   UNL     1      -5.711  12.793  22.412  0.00  0.00    +0.000 C 
ATOM     35  C   UNL     1      -4.650  12.565  24.533  0.00  0.00    +0.000 C 
ENDBRANCH  29  33
ENDBRANCH  28  29
ENDBRANCH   7  28
TORSDOF 8
ENDMDL
MODEL 4
REMARK VINA RESULT:      -6.3      6.260     10.219
REMARK  Name = 
REMARK  14 active torsions:
REMARK  status: ('A' for Active; 'I' for Inactive)
REMARK    1  A    between atoms: C_1  and  O_2
REMARK    2  A    between atoms: O_2  and  C_3
REMARK    3  A    between atoms: C_7  and  C_8
REMARK    4  A    between atoms: C_9  and  C_10
REMARK    5  A    between atoms: N_11  and  C_12
REMARK    6  A    between atoms: C_12  and  C_13
REMARK    7  A    between atoms: N_23  and  C_24
REMARK    8  A    between atoms: C_24  and  C_25
REMARK    9  A    between atoms: C_25  and  C_26
REMARK   10  A    between atoms: C_25  and  N_29
REMARK   11  A    between atoms: C_26  and  C_27
REMARK   12  A    between atoms: C_26  and  C_28
REMARK   13  A    between atoms: N_29  and  C_30
REMARK   14  A    between atoms: N_29  and  C_31
REMARK                            x       y       z     vdW  Elec       q    Type
REMARK                         _______ _______ _______ _____ _____    ______ ____
ROOT
ATOM      1  C   UNL     1       7.133  13.811  23.537  0.00  0.00    +0.000 A 
ATOM      2  C   UNL     1       6.204  14.685  23.088  0.00  0.00    +0.000 A 
ATOM      3  C   UNL     1       5.030  15.132  23.938  0.00  0.00    +0.000 C 
ATOM      4  N   UNL     1       6.349  15.251  21.817  0.00  0.00    +0.000 N 
ATOM      5  C   UNL     1       7.494  15.077  21.033  0.00  0.00    +0.000 A 
ATOM      6  O   UNL     1       7.692  15.753  20.021  0.00  0.00    +0.000 OA
ATOM      7  N   UNL     1       8.361  14.071  21.428  0.00  0.00    +0.000 N 
ATOM      8  C   UNL     1       8.237  13.388  22.622  0.00  0.00    +0.000 A 
ATOM      9  O   UNL     1       9.007  12.487  22.965  0.00  0.00    +0.000 OA
ENDROOT
BRANCH   1  14
ATOM     10  C   UNL     1       6.380  11.543  26.489  0.00  0.00    +0.000 A 
ATOM     11  C   UNL     1       7.077  12.217  27.498  0.00  0.00    +0.000 A 
ATOM     12  C   UNL     1       7.773  13.395  27.227  0.00  0.00    +0.000 A 
ATOM     13  C   UNL     1       7.785  13.911  25.931  0.00  0.00    +0.000 A 
ATOM     14  C   UNL     1       7.102  13.249  24.903  0.00  0.00    +0.000 A 
ATOM     15  C   UNL     1       6.398  12.069  25.190  0.00  0.00    +0.000 A 
ATOM     16  F   UNL     1       5.722  11.473  24.195  0.00  0.00    +0.000 F 
BRANCH  10  18
ATOM     17  C   UNL     1       4.332  10.486  27.092  0.00  0.00    +0.000 C 
ATOM     18  O   UNL     1       5.741  10.413  26.920  0.00  0.00    +0.000 OA
ENDBRANCH  10  18
ENDBRANCH   1  14
BRANCH   4  19
ATOM     19  C   UNL     1       5.312  16.114  21.238  0.00  0.00    +0.000 C 
BRANCH  19  20
ATOM     20  C   UNL     1       4.455  15.535  20.144  0.00  0.00    +0.000 A 
ATOM     21  C   UNL     1       3.632  14.417  20.274  0.00  0.00    +0.000 A 
ATOM     22  F   UNL     1       3.546  13.751  21.433  0.00  0.00    +0.000 F 
ATOM     23  C   UNL     1       2.887  13.932  19.197  0.00  0.00    +0.000 A 
ATOM     24  C   UNL     1       2.945  14.570  17.960  0.00  0.00    +0.000 A 
ATOM     25  C   UNL     1       3.741  15.701  17.811  0.00  0.00    +0.000 A 
ATOM     26  C   UNL     1       4.483  16.169  18.896  0.00  0.00    +0.000 A 
ATOM     27  F   UNL     1       5.247  17.255  18.722  0.00  0.00    +0.000 F 
ENDBRANCH  19  20
ENDBRANCH   4  19
BRANCH   7  28
ATOM     28  C   UNL     1       9.505  13.754  20.556  0.00  0.00    +0.000 C 
BRANCH  28  29
ATOM     29  C   UNL     1       9.242  12.689  19.426  0.00  0.00    +0.000 C 
BRANCH  29  30
ATOM     30  C   UNL     1      10.107  11.393  19.700  0.00  0.00    +0.000 C 
ATOM     31  C   UNL     1      11.558  11.397  19.205  0.00  0.00    +0.000 C 
ATOM     32  C   UNL     1       9.410  10.121  19.196  0.00  0.00    +0.000 C 
ENDBRANCH  29  30
BRANCH  29  33
ATOM     33  N   UNL     1       9.272  13.139  18.006  0.00  0.00    +0.000 NA
ATOM     34  C   UNL     1       7.955  13.145  17.372  0.00  0.00    +0.000 C 
ATOM     35  C   UNL     1       9.939  14.410  17.743  0.00  0.00    +0.000 C 
ENDBRANCH  29  33
ENDBRANCH  28  29
ENDBRANCH   7  28
TORSDOF 8
ENDMDL
MODEL 5
REMARK VINA RESULT:      -6.2      1.217      1.750
REMARK  Name = 
REMARK  14 active torsions:
REMARK  status: ('A' for Active; 'I' for Inactive)
REMARK    1  A    between atoms: C_1  and  O_2
REMARK    2  A    between atoms: O_2  and  C_3
REMARK    3  A    between atoms: C_7  and  C_8
REMARK    4  A    between atoms: C_9  and  C_10
REMARK    5  A    between atoms: N_11  and  C_12
REMARK    6  A    between atoms: C_12  and  C_13
REMARK    7  A    between atoms: N_23  and  C_24
REMARK    8  A    between atoms: C_24  and  C_25
REMARK    9  A    between atoms: C_25  and  C_26
REMARK   10  A    between atoms: C_25  and  N_29
REMARK   11  A    between atoms: C_26  and  C_27
REMARK   12  A    between atoms: C_26  and  C_28
REMARK   13  A    between atoms: N_29  and  C_30
REMARK   14  A    between atoms: N_29  and  C_31
REMARK                            x       y       z     vdW  Elec       q    Type
REMARK                         _______ _______ _______ _____ _____    ______ ____
ROOT
ATOM      1  C   UNL     1       0.886  13.924  20.262  0.00  0.00    +0.000 A 
ATOM      2  C   UNL     1       0.571  12.733  19.706  0.00  0.00    +0.000 A 
ATOM      3  C   UNL     1       1.190  12.253  18.407  0.00  0.00    +0.000 C 
ATOM      4  N   UNL     1      -0.312  11.875  20.370  0.00  0.00    +0.000 N 
ATOM      5  C   UNL     1      -0.777  12.118  21.666  0.00  0.00    +0.000 A 
ATOM      6  O   UNL     1      -1.375  11.252  22.310  0.00  0.00    +0.000 OA
ATOM      7  N   UNL     1      -0.576  13.396  22.162  0.00  0.00    +0.000 N 
ATOM      8  C   UNL     1       0.200  14.343  21.522  0.00  0.00    +0.000 A 
ATOM      9  O   UNL     1       0.369  15.484  21.964  0.00  0.00    +0.000 OA
ENDROOT
BRANCH   1  14
ATOM     10  C   UNL     1       4.187  15.596  19.407  0.00  0.00    +0.000 A 
ATOM     11  C   UNL     1       3.738  16.584  18.524  0.00  0.00    +0.000 A 
ATOM     12  C   UNL     1       2.383  16.713  18.219  0.00  0.00    +0.000 A 
ATOM     13  C   UNL     1       1.457  15.842  18.791  0.00  0.00    +0.000 A 
ATOM     14  C   UNL     1       1.884  14.839  19.671  0.00  0.00    +0.000 A 
ATOM     15  C   UNL     1       3.249  14.725  19.977  0.00  0.00    +0.000 A 
ATOM     16  F   UNL     1       3.629  13.778  20.850  0.00  0.00    +0.000 F 
BRANCH  10  18
ATOM     17  C   UNL     1       6.047  16.545  20.553  0.00  0.00    +0.000 C 
ATOM     18  O   UNL     1       5.540  15.610  19.610  0.00  0.00    +0.000 OA
ENDBRANCH  10  18
ENDBRANCH   1  14
BRANCH   4  19
ATOM     19  C   UNL     1      -0.774  10.624  19.757  0.00  0.00    +0.000 C 
BRANCH  19  20
ATOM     20  C   UNL     1      -1.770  10.727  18.632  0.00  0.00    +0.000 A 
ATOM     21  C   UNL     1      -2.938  11.487  18.660  0.00  0.00    +0.000 A 
ATOM     22  F   UNL     1      -3.270  12.208  19.739  0.00  0.00    +0.000 F 
ATOM     23  C   UNL     1      -3.821  11.506  17.578  0.00  0.00    +0.000 A 
ATOM     24  C   UNL     1      -3.541  10.766  16.432  0.00  0.00    +0.000 A 
ATOM     25  C   UNL     1      -2.370  10.017  16.370  0.00  0.00    +0.000 A 
ATOM     26  C   UNL     1      -1.503  10.005  17.463  0.00  0.00    +0.000 A 
ATOM     27  F   UNL     1      -0.386   9.269  17.380  0.00  0.00    +0.000 F 
ENDBRANCH  19  20
ENDBRANCH   4  19
BRANCH   7  28
ATOM     28  C   UNL     1      -1.174  13.743  23.463  0.00  0.00    +0.000 C 
BRANCH  28  29
ATOM     29  C   UNL     1      -2.620  14.365  23.418  0.00  0.00    +0.000 C 
BRANCH  29  30
ATOM     30  C   UNL     1      -2.904  15.155  24.759  0.00  0.00    +0.000 C 
ATOM     31  C   UNL     1      -3.575  16.528  24.637  0.00  0.00    +0.000 C 
ATOM     32  C   UNL     1      -1.642  15.290  25.623  0.00  0.00    +0.000 C 
ENDBRANCH  29  30
BRANCH  29  33
ATOM     33  N   UNL     1      -3.752  13.498  22.982  0.00  0.00    +0.000 NA
ATOM     34  C   UNL     1      -4.465  12.873  24.094  0.00  0.00    +0.000 C 
ATOM     35  C   UNL     1      -4.716  14.103  22.070  0.00  0.00    +0.000 C 
ENDBRANCH  29  33
ENDBRANCH  28  29
ENDBRANCH   7  28
TORSDOF 8
ENDMDL
MODEL 6
REMARK VINA RESULT:      -6.1      1.932      5.366
REMARK  Name = 
REMARK  14 active torsions:
REMARK  status: ('A' for Active; 'I' for Inactive)
REMARK    1  A    between atoms: C_1  and  O_2
REMARK    2  A    between atoms: O_2  and  C_3
REMARK    3  A    between atoms: C_7  and  C_8
REMARK    4  A    between atoms: C_9  and  C_10
REMARK    5  A    between atoms: N_11  and  C_12
REMARK    6  A    between atoms: C_12  and  C_13
REMARK    7  A    between atoms: N_23  and  C_24
REMARK    8  A    between atoms: C_24  and  C_25
REMARK    9  A    between atoms: C_25  and  C_26
REMARK   10  A    between atoms: C_25  and  N_29
REMARK   11  A    between atoms: C_26  and  C_27
REMARK   12  A    between atoms: C_26  and  C_28
REMARK   13  A    between atoms: N_29  and  C_30
REMARK   14  A    between atoms: N_29  and  C_31
REMARK                            x       y       z     vdW  Elec       q    Type
REMARK                         _______ _______ _______ _____ _____    ______ ____
ROOT
ATOM      1  C   UNL     1      -0.158  12.904  20.225  0.00  0.00    +0.000 A 
ATOM      2  C   UNL     1       0.424  14.052  19.814  0.00  0.00    +0.000 A 
ATOM      3  C   UNL     1       1.093  14.184  18.459  0.00  0.00    +0.000 C 
ATOM      4  N   UNL     1       0.365  15.185  20.632  0.00  0.00    +0.000 N 
ATOM      5  C   UNL     1      -0.403  15.240  21.799  0.00  0.00    +0.000 A 
ATOM      6  O   UNL     1      -0.613  16.306  22.384  0.00  0.00    +0.000 OA
ATOM      7  N   UNL     1      -0.865  14.030  22.288  0.00  0.00    +0.000 N 
ATOM      8  C   UNL     1      -0.759  12.841  21.592  0.00  0.00    +0.000 A 
ATOM      9  O   UNL     1      -1.165  11.763  22.037  0.00  0.00    +0.000 OA
ENDROOT
BRANCH   1  14
ATOM     10  C   UNL     1      -1.402  10.268  17.791  0.00  0.00    +0.000 A 
ATOM     11  C   UNL     1      -0.300   9.406  17.780  0.00  0.00    +0.000 A 
ATOM     12  C   UNL     1       0.827   9.671  18.558  0.00  0.00    +0.000 A 
ATOM     13  C   UNL     1       0.866  10.814  19.356  0.00  0.00    +0.000 A 
ATOM     14  C   UNL     1      -0.223  11.696  19.376  0.00  0.00    +0.000 A 
ATOM     15  C   UNL     1      -1.354  11.413  18.595  0.00  0.00    +0.000 A 
ATOM     16  F   UNL     1      -2.398  12.256  18.659  0.00  0.00    +0.000 F 
BRANCH  10  18
ATOM     17  C   UNL     1      -2.703  10.647  15.831  0.00  0.00    +0.000 C 
ATOM     18  O   UNL     1      -2.429   9.860  16.983  0.00  0.00    +0.000 OA
ENDBRANCH  10  18
ENDBRANCH   1  14
BRANCH   4  19
ATOM     19  C   UNL     1       1.076  16.421  20.284  0.00  0.00    +0.000 C 
BRANCH  19  20
ATOM     20  C   UNL     1       0.604  17.178  19.070  0.00  0.00    +0.000 A 
ATOM     21  C   UNL     1      -0.713  17.563  18.826  0.00  0.00    +0.000 A 
ATOM     22  F   UNL     1      -1.692  17.270  19.691  0.00  0.00    +0.000 F 
ATOM     23  C   UNL     1      -1.069  18.243  17.659  0.00  0.00    +0.000 A 
ATOM     24  C   UNL     1      -0.100  18.564  16.712  0.00  0.00    +0.000 A 
ATOM     25  C   UNL     1       1.226  18.210  16.943  0.00  0.00    +0.000 A 
ATOM     26  C   UNL     1       1.562  17.526  18.111  0.00  0.00    +0.000 A 
ATOM     27  F   UNL     1       2.845  17.191  18.305  0.00  0.00    +0.000 F 
ENDBRANCH  19  20
ENDBRANCH   4  19
BRANCH   7  28
ATOM     28  C   UNL     1      -1.554  14.019  23.591  0.00  0.00    +0.000 C 
BRANCH  28  29
ATOM     29  C   UNL     1      -3.048  14.518  23.589  0.00  0.00    +0.000 C 
BRANCH  29  30
ATOM     30  C   UNL     1      -3.249  15.606  24.720  0.00  0.00    +0.000 C 
ATOM     31  C   UNL     1      -3.518  17.047  24.270  0.00  0.00    +0.000 C 
ATOM     32  C   UNL     1      -2.093  15.605  25.730  0.00  0.00    +0.000 C 
ENDBRANCH  29  30
BRANCH  29  33
ATOM     33  N   UNL     1      -4.136  13.501  23.536  0.00  0.00    +0.000 NA
ATOM     34  C   UNL     1      -4.535  13.150  22.175  0.00  0.00    +0.000 C 
ATOM     35  C   UNL     1      -3.919  12.280  24.305  0.00  0.00    +0.000 C 
ENDBRANCH  29  33
ENDBRANCH  28  29
ENDBRANCH   7  28
TORSDOF 8
ENDMDL
MODEL 7
REMARK VINA RESULT:      -6.0      6.413      9.711
REMARK  Name = 
REMARK  14 active torsions:
REMARK  status: ('A' for Active; 'I' for Inactive)
REMARK    1  A    between atoms: C_1  and  O_2
REMARK    2  A    between atoms: O_2  and  C_3
REMARK    3  A    between atoms: C_7  and  C_8
REMARK    4  A    between atoms: C_9  and  C_10
REMARK    5  A    between atoms: N_11  and  C_12
REMARK    6  A    between atoms: C_12  and  C_13
REMARK    7  A    between atoms: N_23  and  C_24
REMARK    8  A    between atoms: C_24  and  C_25
REMARK    9  A    between atoms: C_25  and  C_26
REMARK   10  A    between atoms: C_25  and  N_29
REMARK   11  A    between atoms: C_26  and  C_27
REMARK   12  A    between atoms: C_26  and  C_28
REMARK   13  A    between atoms: N_29  and  C_30
REMARK   14  A    between atoms: N_29  and  C_31
REMARK                            x       y       z     vdW  Elec       q    Type
REMARK                         _______ _______ _______ _____ _____    ______ ____
ROOT
ATOM      1  C   UNL     1       6.675  13.360  24.362  0.00  0.00    +0.000 A 
ATOM      2  C   UNL     1       7.862  13.163  23.748  0.00  0.00    +0.000 A 
ATOM      3  C   UNL     1       8.980  12.353  24.380  0.00  0.00    +0.000 C 
ATOM      4  N   UNL     1       8.064  13.667  22.459  0.00  0.00    +0.000 N 
ATOM      5  C   UNL     1       7.039  14.242  21.700  0.00  0.00    +0.000 A 
ATOM      6  O   UNL     1       7.183  14.481  20.499  0.00  0.00    +0.000 OA
ATOM      7  N   UNL     1       5.882  14.576  22.384  0.00  0.00    +0.000 N 
ATOM      8  C   UNL     1       5.640  14.205  23.692  0.00  0.00    +0.000 A 
ATOM      9  O   UNL     1       4.610  14.512  24.299  0.00  0.00    +0.000 OA
ENDROOT
BRANCH   1  14
ATOM     10  C   UNL     1       5.413  10.984  27.044  0.00  0.00    +0.000 A 
ATOM     11  C   UNL     1       5.773  11.699  28.192  0.00  0.00    +0.000 A 
ATOM     12  C   UNL     1       6.407  12.938  28.098  0.00  0.00    +0.000 A 
ATOM     13  C   UNL     1       6.697  13.475  26.844  0.00  0.00    +0.000 A 
ATOM     14  C   UNL     1       6.354  12.773  25.681  0.00  0.00    +0.000 A 
ATOM     15  C   UNL     1       5.708  11.532  25.789  0.00  0.00    +0.000 A 
ATOM     16  F   UNL     1       5.358  10.896  24.659  0.00  0.00    +0.000 F 
BRANCH  10  18
ATOM     17  C   UNL     1       3.368   9.794  27.325  0.00  0.00    +0.000 C 
ATOM     18  O   UNL     1       4.790   9.795  27.308  0.00  0.00    +0.000 OA
ENDBRANCH  10  18
ENDBRANCH   1  14
BRANCH   4  19
ATOM     19  C   UNL     1       9.370  13.580  21.796  0.00  0.00    +0.000 C 
BRANCH  19  20
ATOM     20  C   UNL     1       9.497  12.633  20.631  0.00  0.00    +0.000 A 
ATOM     21  C   UNL     1       9.235  11.265  20.676  0.00  0.00    +0.000 A 
ATOM     22  F   UNL     1       8.837  10.672  21.809  0.00  0.00    +0.000 F 
ATOM     23  C   UNL     1       9.402  10.454  19.551  0.00  0.00    +0.000 A 
ATOM     24  C   UNL     1       9.829  11.007  18.346  0.00  0.00    +0.000 A 
ATOM     25  C   UNL     1      10.075  12.374  18.270  0.00  0.00    +0.000 A 
ATOM     26  C   UNL     1       9.908  13.168  19.405  0.00  0.00    +0.000 A 
ATOM     27  F   UNL     1      10.160  14.480  19.305  0.00  0.00    +0.000 F 
ENDBRANCH  19  20
ENDBRANCH   4  19
BRANCH   7  28
ATOM     28  C   UNL     1       4.831  15.313  21.660  0.00  0.00    +0.000 C 
BRANCH  28  29
ATOM     29  C   UNL     1       3.871  14.449  20.760  0.00  0.00    +0.000 C 
BRANCH  29  30
ATOM     30  C   UNL     1       3.638  15.175  19.374  0.00  0.00    +0.000 C 
ATOM     31  C   UNL     1       4.221  14.508  18.123  0.00  0.00    +0.000 C 
ATOM     32  C   UNL     1       4.087  16.643  19.414  0.00  0.00    +0.000 C 
ENDBRANCH  29  30
BRANCH  29  33
ATOM     33  N   UNL     1       2.623  13.908  21.370  0.00  0.00    +0.000 NA
ATOM     34  C   UNL     1       1.716  14.946  21.854  0.00  0.00    +0.000 C 
ATOM     35  C   UNL     1       1.873  12.948  20.566  0.00  0.00    +0.000 C 
ENDBRANCH  29  33
ENDBRANCH  28  29
ENDBRANCH   7  28
TORSDOF 8
ENDMDL
MODEL 8
REMARK VINA RESULT:      -6.0      4.968      8.635
REMARK  Name = 
REMARK  14 active torsions:
REMARK  status: ('A' for Active; 'I' for Inactive)
REMARK    1  A    between atoms: C_1  and  O_2
REMARK    2  A    between atoms: O_2  and  C_3
REMARK    3  A    between atoms: C_7  and  C_8
REMARK    4  A    between atoms: C_9  and  C_10
REMARK    5  A    between atoms: N_11  and  C_12
REMARK    6  A    between atoms: C_12  and  C_13
REMARK    7  A    between atoms: N_23  and  C_24
REMARK    8  A    between atoms: C_24  and  C_25
REMARK    9  A    between atoms: C_25  and  C_26
REMARK   10  A    between atoms: C_25  and  N_29
REMARK   11  A    between atoms: C_26  and  C_27
REMARK   12  A    between atoms: C_26  and  C_28
REMARK   13  A    between atoms: N_29  and  C_30
REMARK   14  A    between atoms: N_29  and  C_31
REMARK                            x       y       z     vdW  Elec       q    Type
REMARK                         _______ _______ _______ _____ _____    ______ ____
ROOT
ATOM      1  C   UNL     1       3.928  14.705  19.865  0.00  0.00    +0.000 A 
ATOM      2  C   UNL     1       4.872  15.118  18.991  0.00  0.00    +0.000 A 
ATOM      3  C   UNL     1       4.574  15.348  17.521  0.00  0.00    +0.000 C 
ATOM      4  N   UNL     1       6.161  15.406  19.453  0.00  0.00    +0.000 N 
ATOM      5  C   UNL     1       6.492  15.434  20.812  0.00  0.00    +0.000 A 
ATOM      6  O   UNL     1       7.565  15.897  21.205  0.00  0.00    +0.000 OA
ATOM      7  N   UNL     1       5.574  14.867  21.680  0.00  0.00    +0.000 N 
ATOM      8  C   UNL     1       4.312  14.461  21.289  0.00  0.00    +0.000 A 
ATOM      9  O   UNL     1       3.501  13.948  22.066  0.00  0.00    +0.000 OA
ENDROOT
BRANCH   1  14
ATOM     10  C   UNL     1       0.245  15.283  19.145  0.00  0.00    +0.000 A 
ATOM     11  C   UNL     1      -0.122  14.005  18.707  0.00  0.00    +0.000 A 
ATOM     12  C   UNL     1       0.810  12.969  18.656  0.00  0.00    +0.000 A 
ATOM     13  C   UNL     1       2.131  13.204  19.037  0.00  0.00    +0.000 A 
ATOM     14  C   UNL     1       2.522  14.477  19.471  0.00  0.00    +0.000 A 
ATOM     15  C   UNL     1       1.573  15.510  19.526  0.00  0.00    +0.000 A 
ATOM     16  F   UNL     1       1.966  16.712  19.978  0.00  0.00    +0.000 F 
BRANCH  10  18
ATOM     17  C   UNL     1      -0.752  17.216  18.172  0.00  0.00    +0.000 C 
ATOM     18  O   UNL     1      -0.787  16.182  19.147  0.00  0.00    +0.000 OA
ENDBRANCH  10  18
ENDBRANCH   1  14
BRANCH   4  19
ATOM     19  C   UNL     1       7.249  15.748  18.530  0.00  0.00    +0.000 C 
BRANCH  19  20
ATOM     20  C   UNL     1       8.301  14.700  18.275  0.00  0.00    +0.000 A 
ATOM     21  C   UNL     1       8.070  13.456  17.691  0.00  0.00    +0.000 A 
ATOM     22  F   UNL     1       6.842  13.090  17.302  0.00  0.00    +0.000 F 
ATOM     23  C   UNL     1       9.102  12.532  17.514  0.00  0.00    +0.000 A 
ATOM     24  C   UNL     1      10.400  12.845  17.913  0.00  0.00    +0.000 A 
ATOM     25  C   UNL     1      10.660  14.090  18.477  0.00  0.00    +0.000 A 
ATOM     26  C   UNL     1       9.616  14.998  18.652  0.00  0.00    +0.000 A 
ATOM     27  F   UNL     1       9.893  16.186  19.206  0.00  0.00    +0.000 F 
ENDBRANCH  19  20
ENDBRANCH   4  19
BRANCH   7  28
ATOM     28  C   UNL     1       5.940  14.743  23.102  0.00  0.00    +0.000 C 
BRANCH  28  29
ATOM     29  C   UNL     1       6.650  13.401  23.520  0.00  0.00    +0.000 C 
BRANCH  29  30
ATOM     30  C   UNL     1       5.851  12.720  24.703  0.00  0.00    +0.000 C 
ATOM     31  C   UNL     1       5.595  13.563  25.958  0.00  0.00    +0.000 C 
ATOM     32  C   UNL     1       6.475  11.380  25.120  0.00  0.00    +0.000 C 
ENDBRANCH  29  30
BRANCH  29  33
ATOM     33  N   UNL     1       8.126  13.413  23.723  0.00  0.00    +0.000 NA
ATOM     34  C   UNL     1       8.875  12.937  22.561  0.00  0.00    +0.000 C 
ATOM     35  C   UNL     1       8.706  14.667  24.190  0.00  0.00    +0.000 C 
ENDBRANCH  29  33
ENDBRANCH  28  29
ENDBRANCH   7  28
TORSDOF 8
ENDMDL
MODEL 9
REMARK VINA RESULT:      -6.0      2.396      5.885
REMARK  Name = 
REMARK  14 active torsions:
REMARK  status: ('A' for Active; 'I' for Inactive)
REMARK    1  A    between atoms: C_1  and  O_2
REMARK    2  A    between atoms: O_2  and  C_3
REMARK    3  A    between atoms: C_7  and  C_8
REMARK    4  A    between atoms: C_9  and  C_10
REMARK    5  A    between atoms: N_11  and  C_12
REMARK    6  A    between atoms: C_12  and  C_13
REMARK    7  A    between atoms: N_23  and  C_24
REMARK    8  A    between atoms: C_24  and  C_25
REMARK    9  A    between atoms: C_25  and  C_26
REMARK   10  A    between atoms: C_25  and  N_29
REMARK   11  A    between atoms: C_26  and  C_27
REMARK   12  A    between atoms: C_26  and  C_28
REMARK   13  A    between atoms: N_29  and  C_30
REMARK   14  A    between atoms: N_29  and  C_31
REMARK                            x       y       z     vdW  Elec       q    Type
REMARK                         _______ _______ _______ _____ _____    ______ ____
ROOT
ATOM      1  C   UNL     1      -1.512  13.249  19.751  0.00  0.00    +0.000 A 
ATOM      2  C   UNL     1      -0.693  14.311  19.589  0.00  0.00    +0.000 A 
ATOM      3  C   UNL     1       0.535  14.262  18.698  0.00  0.00    +0.000 C 
ATOM      4  N   UNL     1      -1.006  15.524  20.212  0.00  0.00    +0.000 N 
ATOM      5  C   UNL     1      -2.214  15.745  20.879  0.00  0.00    +0.000 A 
ATOM      6  O   UNL     1      -2.560  16.876  21.230  0.00  0.00    +0.000 OA
ATOM      7  N   UNL     1      -2.971  14.622  21.169  0.00  0.00    +0.000 N 
ATOM      8  C   UNL     1      -2.679  13.364  20.678  0.00  0.00    +0.000 A 
ATOM      9  O   UNL     1      -3.351  12.364  20.947  0.00  0.00    +0.000 OA
ENDROOT
BRANCH   1  14
ATOM     10  C   UNL     1      -1.989  10.301  17.405  0.00  0.00    +0.000 A 
ATOM     11  C   UNL     1      -0.861   9.541  17.735  0.00  0.00    +0.000 A 
ATOM     12  C   UNL     1       0.036   9.974  18.712  0.00  0.00    +0.000 A 
ATOM     13  C   UNL     1      -0.184  11.185  19.367  0.00  0.00    +0.000 A 
ATOM     14  C   UNL     1      -1.302  11.967  19.047  0.00  0.00    +0.000 A 
ATOM     15  C   UNL     1      -2.201  11.516  18.068  0.00  0.00    +0.000 A 
ATOM     16  F   UNL     1      -3.284  12.266  17.804  0.00  0.00    +0.000 F 
BRANCH  10  18
ATOM     17  C   UNL     1      -2.839  10.393  15.180  0.00  0.00    +0.000 C 
ATOM     18  O   UNL     1      -2.773   9.732  16.438  0.00  0.00    +0.000 OA
ENDBRANCH  10  18
ENDBRANCH   1  14
BRANCH   4  19
ATOM     19  C   UNL     1      -0.091  16.671  20.161  0.00  0.00    +0.000 C 
BRANCH  19  20
ATOM     20  C   UNL     1       0.091  17.357  18.833  0.00  0.00    +0.000 A 
ATOM     21  C   UNL     1      -0.933  17.914  18.069  0.00  0.00    +0.000 A 
ATOM     22  F   UNL     1      -2.206  17.873  18.481  0.00  0.00    +0.000 F 
ATOM     23  C   UNL     1      -0.677  18.512  16.833  0.00  0.00    +0.000 A 
ATOM     24  C   UNL     1       0.624  18.573  16.340  0.00  0.00    +0.000 A 
ATOM     25  C   UNL     1       1.667  18.045  17.094  0.00  0.00    +0.000 A 
ATOM     26  C   UNL     1       1.392  17.446  18.324  0.00  0.00    +0.000 A 
ATOM     27  F   UNL     1       2.414  16.938  19.026  0.00  0.00    +0.000 F 
ENDBRANCH  19  20
ENDBRANCH   4  19
BRANCH   7  28
ATOM     28  C   UNL     1      -4.179  14.787  21.996  0.00  0.00    +0.000 C 
BRANCH  28  29
ATOM     29  C   UNL     1      -3.996  14.569  23.544  0.00  0.00    +0.000 C 
BRANCH  29  30
ATOM     30  C   UNL     1      -5.025  13.483  24.057  0.00  0.00    +0.000 C 
ATOM     31  C   UNL     1      -4.451  12.240  24.746  0.00  0.00    +0.000 C 
ATOM     32  C   UNL     1      -5.991  13.040  22.949  0.00  0.00    +0.000 C 
ENDBRANCH  29  30
BRANCH  29  33
ATOM     33  N   UNL     1      -3.903  15.769  24.424  0.00  0.00    +0.000 NA
ATOM     34  C   UNL     1      -2.528  16.179  24.702  0.00  0.00    +0.000 C 
ATOM     35  C   UNL     1      -4.680  16.934  24.014  0.00  0.00    +0.000 C 
ENDBRANCH  29  33
ENDBRANCH  28  29
ENDBRANCH   7  28
TORSDOF 8
ENDMDL
