MODEL 1
REMARK VINA RESULT:      -7.1      0.000      0.000
REMARK  Name = 
REMARK  4 active torsions:
REMARK  status: ('A' for Active; 'I' for Inactive)
REMARK    1  A    between atoms: C_1  and  C_2
REMARK    2  A    between atoms: C_5  and  C_6
REMARK    3  A    between atoms: C_10  and  S_11
REMARK    4  A    between atoms: N_12  and  C_13
REMARK                            x       y       z     vdW  Elec       q    Type
REMARK                         _______ _______ _______ _____ _____    ______ ____
ROOT
ATOM      1  C   UNL     1       1.130  10.099  19.220  0.00  0.00    +0.000 C 
ATOM      2  C   UNL     1       2.159  10.074  18.094  0.00  0.00    +0.000 C 
ATOM      3  C   UNL     1       2.228   8.610  17.672  0.00  0.00    +0.000 C 
ATOM      4  N   UNL     1       1.896   7.837  18.877  0.00  0.00    +0.000 N 
ATOM      5  C   UNL     1       2.517   6.627  19.138  0.00  0.00    +0.000 C 
ATOM      6  N   UNL     1       3.487   6.208  18.393  0.00  0.00    +0.000 NA
ATOM      7  C   UNL     1       1.346   8.734  19.904  0.00  0.00    +0.000 C 
ENDROOT
BRANCH   1  12
ATOM      8  C   UNL     1      -4.229  11.206  17.179  0.00  0.00    +0.000 C 
ATOM      9  C   UNL     1      -2.871  10.899  17.731  0.00  0.00    +0.000 A 
ATOM     10  C   UNL     1      -2.402  11.558  18.869  0.00  0.00    +0.000 A 
ATOM     11  C   UNL     1      -1.123  11.282  19.364  0.00  0.00    +0.000 A 
ATOM     12  C   UNL     1      -0.283  10.360  18.729  0.00  0.00    +0.000 A 
ATOM     13  C   UNL     1      -0.772   9.687  17.604  0.00  0.00    +0.000 A 
ATOM     14  C   UNL     1      -2.050   9.957  17.103  0.00  0.00    +0.000 A 
ENDBRANCH   1  12
BRANCH   6  15
ATOM     15  C   UNL     1       4.318   5.050  18.736  0.00  0.00    +0.000 C 
ATOM     16  C   UNL     1       4.252   4.012  17.607  0.00  0.00    +0.000 C 
ATOM     17  C   UNL     1       4.879   4.492  16.300  0.00  0.00    +0.000 C 
ATOM     18  C   UNL     1       6.286   5.052  16.498  0.00  0.00    +0.000 C 
ATOM     19  C   UNL     1       6.331   6.100  17.604  0.00  0.00    +0.000 C 
ATOM     20  C   UNL     1       5.761   5.548  18.912  0.00  0.00    +0.000 C 
ENDBRANCH   6  15
BRANCH   5  21
ATOM     21  S   UNL     1       1.927   5.684  20.513  0.00  0.00    +0.000 S 
ATOM     22  H   UNL     1       0.642   5.604  20.176  0.00  0.00    +0.000 HD
ENDBRANCH   5  21
TORSDOF 3
ENDMDL
MODEL 2
REMARK VINA RESULT:      -7.1      0.104      1.054
REMARK  Name = 
REMARK  4 active torsions:
REMARK  status: ('A' for Active; 'I' for Inactive)
REMARK    1  A    between atoms: C_1  and  C_2
REMARK    2  A    between atoms: C_5  and  C_6
REMARK    3  A    between atoms: C_10  and  S_11
REMARK    4  A    between atoms: N_12  and  C_13
REMARK                            x       y       z     vdW  Elec       q    Type
REMARK                         _______ _______ _______ _____ _____    ______ ____
ROOT
ATOM      1  C   UNL     1       1.140  10.125  19.197  0.00  0.00    +0.000 C 
ATOM      2  C   UNL     1       2.190  10.075  18.091  0.00  0.00    +0.000 C 
ATOM      3  C   UNL     1       2.251   8.606  17.688  0.00  0.00    +0.000 C 
ATOM      4  N   UNL     1       1.889   7.851  18.896  0.00  0.00    +0.000 N 
ATOM      5  C   UNL     1       2.492   6.638  19.183  0.00  0.00    +0.000 C 
ATOM      6  N   UNL     1       3.471   6.200  18.461  0.00  0.00    +0.000 NA
ATOM      7  C   UNL     1       1.329   8.766  19.902  0.00  0.00    +0.000 C 
ENDROOT
BRANCH   1  12
ATOM      8  C   UNL     1      -4.322  11.062  17.357  0.00  0.00    +0.000 C 
ATOM      9  C   UNL     1      -2.907  10.844  17.799  0.00  0.00    +0.000 A 
ATOM     10  C   UNL     1      -2.099   9.906  17.154  0.00  0.00    +0.000 A 
ATOM     11  C   UNL     1      -0.787   9.694  17.586  0.00  0.00    +0.000 A 
ATOM     12  C   UNL     1      -0.261  10.395  18.678  0.00  0.00    +0.000 A 
ATOM     13  C   UNL     1      -1.071  11.348  19.303  0.00  0.00    +0.000 A 
ATOM     14  C   UNL     1      -2.385  11.569  18.874  0.00  0.00    +0.000 A 
ENDBRANCH   1  12
BRANCH   6  15
ATOM     15  C   UNL     1       4.283   5.038  18.833  0.00  0.00    +0.000 C 
ATOM     16  C   UNL     1       4.177   3.961  17.744  0.00  0.00    +0.000 C 
ATOM     17  C   UNL     1       4.792   4.380  16.410  0.00  0.00    +0.000 C 
ATOM     18  C   UNL     1       6.213   4.916  16.566  0.00  0.00    +0.000 C 
ATOM     19  C   UNL     1       6.298   6.003  17.631  0.00  0.00    +0.000 C 
ATOM     20  C   UNL     1       5.739   5.511  18.968  0.00  0.00    +0.000 C 
ENDBRANCH   6  15
BRANCH   5  21
ATOM     21  S   UNL     1       1.867   5.718  20.558  0.00  0.00    +0.000 S 
ATOM     22  H   UNL     1       2.903   5.847  21.384  0.00  0.00    +0.000 HD
ENDBRANCH   5  21
TORSDOF 3
ENDMDL
MODEL 3
REMARK VINA RESULT:      -6.7      2.792      4.480
REMARK  Name = 
REMARK  4 active torsions:
REMARK  status: ('A' for Active; 'I' for Inactive)
REMARK    1  A    between atoms: C_1  and  C_2
REMARK    2  A    between atoms: C_5  and  C_6
REMARK    3  A    between atoms: C_10  and  S_11
REMARK    4  A    between atoms: N_12  and  C_13
REMARK                            x       y       z     vdW  Elec       q    Type
REMARK                         _______ _______ _______ _____ _____    ______ ____
ROOT
ATOM      1  C   UNL     1       0.843  10.199  18.520  0.00  0.00    +0.000 C 
ATOM      2  C   UNL     1       0.252   9.398  19.676  0.00  0.00    +0.000 C 
ATOM      3  C   UNL     1       1.382   8.475  20.120  0.00  0.00    +0.000 C 
ATOM      4  N   UNL     1       2.190   8.236  18.916  0.00  0.00    +0.000 N 
ATOM      5  C   UNL     1       2.780   7.004  18.690  0.00  0.00    +0.000 C 
ATOM      6  N   UNL     1       2.536   6.001  19.470  0.00  0.00    +0.000 NA
ATOM      7  C   UNL     1       1.799   9.182  17.861  0.00  0.00    +0.000 C 
ENDROOT
BRANCH   1  12
ATOM      8  C   UNL     1       3.155  15.292  20.199  0.00  0.00    +0.000 C 
ATOM      9  C   UNL     1       2.597  13.967  19.777  0.00  0.00    +0.000 A 
ATOM     10  C   UNL     1       2.914  13.429  18.529  0.00  0.00    +0.000 A 
ATOM     11  C   UNL     1       2.371  12.202  18.134  0.00  0.00    +0.000 A 
ATOM     12  C   UNL     1       1.490  11.499  18.964  0.00  0.00    +0.000 A 
ATOM     13  C   UNL     1       1.198  12.035  20.222  0.00  0.00    +0.000 A 
ATOM     14  C   UNL     1       1.739  13.261  20.626  0.00  0.00    +0.000 A 
ENDBRANCH   1  12
BRANCH   6  15
ATOM     15  C   UNL     1       2.957   4.631  19.168  0.00  0.00    +0.000 C 
ATOM     16  C   UNL     1       3.492   3.960  20.441  0.00  0.00    +0.000 C 
ATOM     17  C   UNL     1       2.425   3.748  21.514  0.00  0.00    +0.000 C 
ATOM     18  C   UNL     1       1.178   3.056  20.967  0.00  0.00    +0.000 C 
ATOM     19  C   UNL     1       0.643   3.748  19.719  0.00  0.00    +0.000 C 
ATOM     20  C   UNL     1       1.728   3.870  18.647  0.00  0.00    +0.000 C 
ENDBRANCH   6  15
BRANCH   5  21
ATOM     21  S   UNL     1       3.878   6.862  17.311  0.00  0.00    +0.000 S 
ATOM     22  H   UNL     1       4.299   5.615  17.506  0.00  0.00    +0.000 HD
ENDBRANCH   5  21
TORSDOF 3
ENDMDL
MODEL 4
REMARK VINA RESULT:      -6.7      2.793      4.435
REMARK  Name = 
REMARK  4 active torsions:
REMARK  status: ('A' for Active; 'I' for Inactive)
REMARK    1  A    between atoms: C_1  and  C_2
REMARK    2  A    between atoms: C_5  and  C_6
REMARK    3  A    between atoms: C_10  and  S_11
REMARK    4  A    between atoms: N_12  and  C_13
REMARK                            x       y       z     vdW  Elec       q    Type
REMARK                         _______ _______ _______ _____ _____    ______ ____
ROOT
ATOM      1  C   UNL     1       0.828  10.236  18.531  0.00  0.00    +0.000 C 
ATOM      2  C   UNL     1       0.232   9.432  19.683  0.00  0.00    +0.000 C 
ATOM      3  C   UNL     1       1.364   8.514  20.135  0.00  0.00    +0.000 C 
ATOM      4  N   UNL     1       2.182   8.280  18.937  0.00  0.00    +0.000 N 
ATOM      5  C   UNL     1       2.780   7.051  18.715  0.00  0.00    +0.000 C 
ATOM      6  N   UNL     1       2.535   6.047  19.492  0.00  0.00    +0.000 NA
ATOM      7  C   UNL     1       1.793   9.224  17.879  0.00  0.00    +0.000 C 
ENDROOT
BRANCH   1  12
ATOM      8  C   UNL     1       3.450  15.150  20.286  0.00  0.00    +0.000 C 
ATOM      9  C   UNL     1       2.744  13.910  19.828  0.00  0.00    +0.000 A 
ATOM     10  C   UNL     1       1.851  13.249  20.674  0.00  0.00    +0.000 A 
ATOM     11  C   UNL     1       1.213  12.081  20.247  0.00  0.00    +0.000 A 
ATOM     12  C   UNL     1       1.464  11.539  18.981  0.00  0.00    +0.000 A 
ATOM     13  C   UNL     1       2.342  12.221  18.133  0.00  0.00    +0.000 A 
ATOM     14  C   UNL     1       2.983  13.392  18.551  0.00  0.00    +0.000 A 
ENDBRANCH   1  12
BRANCH   6  15
ATOM     15  C   UNL     1       2.966   4.678  19.192  0.00  0.00    +0.000 C 
ATOM     16  C   UNL     1       3.483   4.005  20.471  0.00  0.00    +0.000 C 
ATOM     17  C   UNL     1       2.400   3.787  21.526  0.00  0.00    +0.000 C 
ATOM     18  C   UNL     1       1.164   3.092  20.958  0.00  0.00    +0.000 C 
ATOM     19  C   UNL     1       0.647   3.787  19.703  0.00  0.00    +0.000 C 
ATOM     20  C   UNL     1       1.748   3.915  18.649  0.00  0.00    +0.000 C 
ENDBRANCH   6  15
BRANCH   5  21
ATOM     21  S   UNL     1       3.889   6.916  17.344  0.00  0.00    +0.000 S 
ATOM     22  H   UNL     1       4.530   8.075  17.478  0.00  0.00    +0.000 HD
ENDBRANCH   5  21
TORSDOF 3
ENDMDL
MODEL 5
REMARK VINA RESULT:      -6.3      3.471      8.982
REMARK  Name = 
REMARK  4 active torsions:
REMARK  status: ('A' for Active; 'I' for Inactive)
REMARK    1  A    between atoms: C_1  and  C_2
REMARK    2  A    between atoms: C_5  and  C_6
REMARK    3  A    between atoms: C_10  and  S_11
REMARK    4  A    between atoms: N_12  and  C_13
REMARK                            x       y       z     vdW  Elec       q    Type
REMARK                         _______ _______ _______ _____ _____    ______ ____
ROOT
ATOM      1  C   UNL     1       0.233  11.318  18.897  0.00  0.00    +0.000 C 
ATOM      2  C   UNL     1      -0.486  11.784  20.159  0.00  0.00    +0.000 C 
ATOM      3  C   UNL     1      -1.892  11.206  20.034  0.00  0.00    +0.000 C 
ATOM      4  N   UNL     1      -2.152  11.112  18.591  0.00  0.00    +0.000 N 
ATOM      5  C   UNL     1      -3.417  11.352  18.080  0.00  0.00    +0.000 C 
ATOM      6  N   UNL     1      -4.368  11.779  18.844  0.00  0.00    +0.000 NA
ATOM      7  C   UNL     1      -0.899  11.311  17.849  0.00  0.00    +0.000 C 
ENDROOT
BRANCH   1  12
ATOM      8  C   UNL     1       2.856   6.134  19.492  0.00  0.00    +0.000 C 
ATOM      9  C   UNL     1       2.215   7.481  19.356  0.00  0.00    +0.000 A 
ATOM     10  C   UNL     1       1.609   8.093  20.455  0.00  0.00    +0.000 A 
ATOM     11  C   UNL     1       0.994   9.341  20.314  0.00  0.00    +0.000 A 
ATOM     12  C   UNL     1       0.954   9.994  19.077  0.00  0.00    +0.000 A 
ATOM     13  C   UNL     1       1.584   9.383  17.987  0.00  0.00    +0.000 A 
ATOM     14  C   UNL     1       2.204   8.136  18.120  0.00  0.00    +0.000 A 
ENDBRANCH   1  12
BRANCH   6  15
ATOM     15  C   UNL     1      -5.659  12.248  18.331  0.00  0.00    +0.000 C 
ATOM     16  C   UNL     1      -6.674  11.097  18.352  0.00  0.00    +0.000 C 
ATOM     17  C   UNL     1      -7.031  10.623  19.760  0.00  0.00    +0.000 C 
ATOM     18  C   UNL     1      -7.434  11.775  20.678  0.00  0.00    +0.000 C 
ATOM     19  C   UNL     1      -6.404  12.899  20.667  0.00  0.00    +0.000 C 
ATOM     20  C   UNL     1      -6.135  13.389  19.243  0.00  0.00    +0.000 C 
ENDBRANCH   6  15
BRANCH   5  21
ATOM     21  S   UNL     1      -3.676  11.042  16.358  0.00  0.00    +0.000 S 
ATOM     22  H   UNL     1      -3.881  12.292  15.949  0.00  0.00    +0.000 HD
ENDBRANCH   5  21
TORSDOF 3
ENDMDL
MODEL 6
REMARK VINA RESULT:      -6.3      3.558      9.098
REMARK  Name = 
REMARK  4 active torsions:
REMARK  status: ('A' for Active; 'I' for Inactive)
REMARK    1  A    between atoms: C_1  and  C_2
REMARK    2  A    between atoms: C_5  and  C_6
REMARK    3  A    between atoms: C_10  and  S_11
REMARK    4  A    between atoms: N_12  and  C_13
REMARK                            x       y       z     vdW  Elec       q    Type
REMARK                         _______ _______ _______ _____ _____    ______ ____
ROOT
ATOM      1  C   UNL     1       0.158  11.313  18.825  0.00  0.00    +0.000 C 
ATOM      2  C   UNL     1      -0.489  11.802  20.117  0.00  0.00    +0.000 C 
ATOM      3  C   UNL     1      -1.914  11.262  20.059  0.00  0.00    +0.000 C 
ATOM      4  N   UNL     1      -2.243  11.171  18.629  0.00  0.00    +0.000 N 
ATOM      5  C   UNL     1      -3.523  11.443  18.176  0.00  0.00    +0.000 C 
ATOM      6  N   UNL     1      -4.426  11.898  18.982  0.00  0.00    +0.000 NA
ATOM      7  C   UNL     1      -1.020  11.334  17.830  0.00  0.00    +0.000 C 
ENDROOT
BRANCH   1  12
ATOM      8  C   UNL     1       2.977   6.244  19.502  0.00  0.00    +0.000 C 
ATOM      9  C   UNL     1       2.223   7.524  19.313  0.00  0.00    +0.000 A 
ATOM     10  C   UNL     1       2.160   8.132  18.057  0.00  0.00    +0.000 A 
ATOM     11  C   UNL     1       1.473   9.338  17.894  0.00  0.00    +0.000 A 
ATOM     12  C   UNL     1       0.852   9.971  18.977  0.00  0.00    +0.000 A 
ATOM     13  C   UNL     1       0.900   9.343  20.225  0.00  0.00    +0.000 A 
ATOM     14  C   UNL     1       1.584   8.134  20.397  0.00  0.00    +0.000 A 
ENDBRANCH   1  12
BRANCH   6  15
ATOM     15  C   UNL     1      -5.726  12.399  18.527  0.00  0.00    +0.000 C 
ATOM     16  C   UNL     1      -6.756  11.262  18.545  0.00  0.00    +0.000 C 
ATOM     17  C   UNL     1      -7.074  10.748  19.948  0.00  0.00    +0.000 C 
ATOM     18  C   UNL     1      -7.430  11.876  20.914  0.00  0.00    +0.000 C 
ATOM     19  C   UNL     1      -6.385  12.986  20.905  0.00  0.00    +0.000 C 
ATOM     20  C   UNL     1      -6.156  13.517  19.489  0.00  0.00    +0.000 C 
ENDBRANCH   6  15
BRANCH   5  21
ATOM     21  S   UNL     1      -3.869  11.135  16.470  0.00  0.00    +0.000 S 
ATOM     22  H   UNL     1      -5.163  11.449  16.459  0.00  0.00    +0.000 HD
ENDBRANCH   5  21
TORSDOF 3
ENDMDL
MODEL 7
REMARK VINA RESULT:      -6.3      2.878      4.500
REMARK  Name = 
REMARK  4 active torsions:
REMARK  status: ('A' for Active; 'I' for Inactive)
REMARK    1  A    between atoms: C_1  and  C_2
REMARK    2  A    between atoms: C_5  and  C_6
REMARK    3  A    between atoms: C_10  and  S_11
REMARK    4  A    between atoms: N_12  and  C_13
REMARK                            x       y       z     vdW  Elec       q    Type
REMARK                         _______ _______ _______ _____ _____    ______ ____
ROOT
ATOM      1  C   UNL     1      -0.224  10.185  20.114  0.00  0.00    +0.000 C 
ATOM      2  C   UNL     1      -0.414   9.150  21.219  0.00  0.00    +0.000 C 
ATOM      3  C   UNL     1       0.920   8.414  21.288  0.00  0.00    +0.000 C 
ATOM      4  N   UNL     1       1.478   8.484  19.931  0.00  0.00    +0.000 N 
ATOM      5  C   UNL     1       2.199   7.426  19.403  0.00  0.00    +0.000 C 
ATOM      6  N   UNL     1       2.295   6.307  20.045  0.00  0.00    +0.000 NA
ATOM      7  C   UNL     1       0.720   9.459  19.133  0.00  0.00    +0.000 C 
ENDROOT
BRANCH   1  12
ATOM      8  C   UNL     1       1.584  15.413  21.985  0.00  0.00    +0.000 C 
ATOM      9  C   UNL     1       1.147  14.054  21.530  0.00  0.00    +0.000 A 
ATOM     10  C   UNL     1       1.908  13.337  20.606  0.00  0.00    +0.000 A 
ATOM     11  C   UNL     1       1.481  12.079  20.170  0.00  0.00    +0.000 A 
ATOM     12  C   UNL     1       0.283  11.520  20.630  0.00  0.00    +0.000 A 
ATOM     13  C   UNL     1      -0.461  12.237  21.573  0.00  0.00    +0.000 A 
ATOM     14  C   UNL     1      -0.040  13.496  22.016  0.00  0.00    +0.000 A 
ENDBRANCH   1  12
BRANCH   6  15
ATOM     15  C   UNL     1       2.859   5.090  19.454  0.00  0.00    +0.000 C 
ATOM     16  C   UNL     1       3.483   4.220  20.554  0.00  0.00    +0.000 C 
ATOM     17  C   UNL     1       2.461   3.663  21.544  0.00  0.00    +0.000 C 
ATOM     18  C   UNL     1       1.290   2.974  20.847  0.00  0.00    +0.000 C 
ATOM     19  C   UNL     1       0.664   3.860  19.776  0.00  0.00    +0.000 C 
ATOM     20  C   UNL     1       1.713   4.332  18.767  0.00  0.00    +0.000 C 
ENDBRANCH   6  15
BRANCH   5  21
ATOM     21  S   UNL     1       2.983   7.668  17.837  0.00  0.00    +0.000 S 
ATOM     22  H   UNL     1       2.036   8.388  17.238  0.00  0.00    +0.000 HD
ENDBRANCH   5  21
TORSDOF 3
ENDMDL
MODEL 8
REMARK VINA RESULT:      -6.3      3.173      8.021
REMARK  Name = 
REMARK  4 active torsions:
REMARK  status: ('A' for Active; 'I' for Inactive)
REMARK    1  A    between atoms: C_1  and  C_2
REMARK    2  A    between atoms: C_5  and  C_6
REMARK    3  A    between atoms: C_10  and  S_11
REMARK    4  A    between atoms: N_12  and  C_13
REMARK                            x       y       z     vdW  Elec       q    Type
REMARK                         _______ _______ _______ _____ _____    ______ ____
ROOT
ATOM      1  C   UNL     1       2.137   7.937  20.120  0.00  0.00    +0.000 C 
ATOM      2  C   UNL     1       1.727   8.292  21.546  0.00  0.00    +0.000 C 
ATOM      3  C   UNL     1       0.278   8.754  21.424  0.00  0.00    +0.000 C 
ATOM      4  N   UNL     1       0.158   9.317  20.072  0.00  0.00    +0.000 N 
ATOM      5  C   UNL     1      -0.647  10.417  19.830  0.00  0.00    +0.000 C 
ATOM      6  N   UNL     1      -1.216  11.048  20.806  0.00  0.00    +0.000 NA
ATOM      7  C   UNL     1       1.341   8.955  19.278  0.00  0.00    +0.000 C 
ENDROOT
BRANCH   1  12
ATOM      8  C   UNL     1       1.012   2.385  18.700  0.00  0.00    +0.000 C 
ATOM      9  C   UNL     1       1.336   3.798  19.080  0.00  0.00    +0.000 A 
ATOM     10  C   UNL     1       1.171   4.233  20.396  0.00  0.00    +0.000 A 
ATOM     11  C   UNL     1       1.455   5.560  20.737  0.00  0.00    +0.000 A 
ATOM     12  C   UNL     1       1.888   6.479  19.775  0.00  0.00    +0.000 A 
ATOM     13  C   UNL     1       2.072   6.026  18.464  0.00  0.00    +0.000 A 
ATOM     14  C   UNL     1       1.793   4.701  18.115  0.00  0.00    +0.000 A 
ENDBRANCH   1  12
BRANCH   6  15
ATOM     15  C   UNL     1      -1.902  12.332  20.638  0.00  0.00    +0.000 C 
ATOM     16  C   UNL     1      -3.055  12.439  21.646  0.00  0.00    +0.000 C 
ATOM     17  C   UNL     1      -2.591  12.501  23.100  0.00  0.00    +0.000 C 
ATOM     18  C   UNL     1      -1.516  13.563  23.324  0.00  0.00    +0.000 C 
ATOM     19  C   UNL     1      -0.366  13.427  22.334  0.00  0.00    +0.000 C 
ATOM     20  C   UNL     1      -0.874  13.445  20.891  0.00  0.00    +0.000 C 
ENDBRANCH   6  15
BRANCH   5  21
ATOM     21  S   UNL     1      -0.871  10.913  18.147  0.00  0.00    +0.000 S 
ATOM     22  H   UNL     1      -0.322  12.124  18.211  0.00  0.00    +0.000 HD
ENDBRANCH   5  21
TORSDOF 3
ENDMDL
MODEL 9
REMARK VINA RESULT:      -6.2      2.859      4.421
REMARK  Name = 
REMARK  4 active torsions:
REMARK  status: ('A' for Active; 'I' for Inactive)
REMARK    1  A    between atoms: C_1  and  C_2
REMARK    2  A    between atoms: C_5  and  C_6
REMARK    3  A    between atoms: C_10  and  S_11
REMARK    4  A    between atoms: N_12  and  C_13
REMARK                            x       y       z     vdW  Elec       q    Type
REMARK                         _______ _______ _______ _____ _____    ______ ____
ROOT
ATOM      1  C   UNL     1      -0.097  10.278  19.799  0.00  0.00    +0.000 C 
ATOM      2  C   UNL     1      -0.365   9.283  20.924  0.00  0.00    +0.000 C 
ATOM      3  C   UNL     1       0.942   8.511  21.072  0.00  0.00    +0.000 C 
ATOM      4  N   UNL     1       1.559   8.524  19.739  0.00  0.00    +0.000 N 
ATOM      5  C   UNL     1       2.269   7.429  19.275  0.00  0.00    +0.000 C 
ATOM      6  N   UNL     1       2.303   6.328  19.952  0.00  0.00    +0.000 NA
ATOM      7  C   UNL     1       0.865   9.495  18.882  0.00  0.00    +0.000 C 
ENDROOT
BRANCH   1  12
ATOM      8  C   UNL     1       2.066  15.315  21.812  0.00  0.00    +0.000 C 
ATOM      9  C   UNL     1       1.484  14.044  21.274  0.00  0.00    +0.000 A 
ATOM     10  C   UNL     1       0.296  13.530  21.797  0.00  0.00    +0.000 A 
ATOM     11  C   UNL     1      -0.228  12.331  21.304  0.00  0.00    +0.000 A 
ATOM     12  C   UNL     1       0.428  11.613  20.297  0.00  0.00    +0.000 A 
ATOM     13  C   UNL     1       1.605  12.148  19.763  0.00  0.00    +0.000 A 
ATOM     14  C   UNL     1       2.135  13.349  20.249  0.00  0.00    +0.000 A 
ENDBRANCH   1  12
BRANCH   6  15
ATOM     15  C   UNL     1       2.855   5.078  19.422  0.00  0.00    +0.000 C 
ATOM     16  C   UNL     1       3.461   4.252  20.565  0.00  0.00    +0.000 C 
ATOM     17  C   UNL     1       2.428   3.755  21.574  0.00  0.00    +0.000 C 
ATOM     18  C   UNL     1       1.251   3.049  20.904  0.00  0.00    +0.000 C 
ATOM     19  C   UNL     1       0.642   3.892  19.788  0.00  0.00    +0.000 C 
ATOM     20  C   UNL     1       1.702   4.302  18.765  0.00  0.00    +0.000 C 
ENDBRANCH   6  15
BRANCH   5  21
ATOM     21  S   UNL     1       3.125   7.600  17.737  0.00  0.00    +0.000 S 
ATOM     22  H   UNL     1       4.065   6.675  17.916  0.00  0.00    +0.000 HD
ENDBRANCH   5  21
TORSDOF 3
ENDMDL
