MODEL 1
REMARK VINA RESULT:      -8.3      0.000      0.000
REMARK  Name = 
REMARK  5 active torsions:
REMARK  status: ('A' for Active; 'I' for Inactive)
REMARK    1  A    between atoms: C_1  and  C_2
REMARK    2  A    between atoms: C_5  and  C_6
REMARK    3  A    between atoms: C_6  and  N_7
REMARK    4  A    between atoms: C_11  and  C_12
REMARK    5  A    between atoms: N_22  and  C_23
REMARK                            x       y       z     vdW  Elec       q    Type
REMARK                         _______ _______ _______ _____ _____    ______ ____
ROOT
ATOM      1  N   UNL     1       3.921   4.190  18.919  0.00  0.00    +0.000 NA
ATOM      2  C   UNL     1       3.241   3.016  19.461  0.00  0.00    +0.000 C 
ATOM      3  C   UNL     1       2.159   2.657  18.465  0.00  0.00    +0.000 C 
ATOM      4  C   UNL     1       1.813   3.964  17.778  0.00  0.00    +0.000 C 
ATOM      5  C   UNL     1       2.985   4.918  18.056  0.00  0.00    +0.000 C 
ENDROOT
BRANCH   5   6
ATOM      6  C   UNL     1       2.496   6.228  18.669  0.00  0.00    +0.000 A 
ATOM      7  C   UNL     1       2.088   6.335  20.011  0.00  0.00    +0.000 A 
ATOM      8  C   UNL     1       1.629   7.548  20.531  0.00  0.00    +0.000 A 
ATOM      9  C   UNL     1       1.573   8.671  19.719  0.00  0.00    +0.000 A 
ATOM     10  C   UNL     1       2.005   8.598  18.393  0.00  0.00    +0.000 A 
ATOM     11  C   UNL     1       2.451   7.383  17.869  0.00  0.00    +0.000 A 
ATOM     12  O   UNL     1       2.011   9.672  17.539  0.00  0.00    +0.000 OA
ATOM     13  C   UNL     1       1.863  10.902  18.257  0.00  0.00    +0.000 C 
ATOM     14  C   UNL     1       0.755  10.794  19.292  0.00  0.00    +0.000 C 
ATOM     15  O   UNL     1       1.090   9.822  20.289  0.00  0.00    +0.000 OA
ENDBRANCH   5   6
BRANCH   1  16
ATOM     16  C   UNL     1       5.264   3.950  18.376  0.00  0.00    +0.000 C 
BRANCH  16  21
ATOM     17  C   UNL     1       7.832   8.195  17.688  0.00  0.00    +0.000 C 
ATOM     18  C   UNL     1       7.064   6.966  17.395  0.00  0.00    +0.000 A 
ATOM     19  N   UNL     1       6.348   6.735  16.318  0.00  0.00    +0.000 NA
ATOM     20  N   UNL     1       5.646   5.576  16.518  0.00  0.00    +0.000 NA
ATOM     21  C   UNL     1       5.930   5.119  17.723  0.00  0.00    +0.000 A 
ATOM     22  N   UNL     1       6.924   5.901  18.254  0.00  0.00    +0.000 N 
ATOM     23  C   UNL     1       7.689   5.699  19.455  0.00  0.00    +0.000 C 
ENDBRANCH  16  21
ENDBRANCH   1  16
TORSDOF 3
ENDMDL
MODEL 2
REMARK VINA RESULT:      -8.1      3.187      5.959
REMARK  Name = 
REMARK  5 active torsions:
REMARK  status: ('A' for Active; 'I' for Inactive)
REMARK    1  A    between atoms: C_1  and  C_2
REMARK    2  A    between atoms: C_5  and  C_6
REMARK    3  A    between atoms: C_6  and  N_7
REMARK    4  A    between atoms: C_11  and  C_12
REMARK    5  A    between atoms: N_22  and  C_23
REMARK                            x       y       z     vdW  Elec       q    Type
REMARK                         _______ _______ _______ _____ _____    ______ ____
ROOT
ATOM      1  N   UNL     1       2.753   4.847  19.073  0.00  0.00    +0.000 NA
ATOM      2  C   UNL     1       1.805   3.751  18.887  0.00  0.00    +0.000 C 
ATOM      3  C   UNL     1       2.311   2.606  19.740  0.00  0.00    +0.000 C 
ATOM      4  C   UNL     1       3.810   2.821  19.828  0.00  0.00    +0.000 C 
ATOM      5  C   UNL     1       4.059   4.284  19.431  0.00  0.00    +0.000 C 
ENDROOT
BRANCH   5   6
ATOM      6  C   UNL     1       5.086   4.382  18.306  0.00  0.00    +0.000 A 
ATOM      7  C   UNL     1       6.448   4.647  18.540  0.00  0.00    +0.000 A 
ATOM      8  C   UNL     1       7.355   4.746  17.482  0.00  0.00    +0.000 A 
ATOM      9  C   UNL     1       6.916   4.581  16.176  0.00  0.00    +0.000 A 
ATOM     10  C   UNL     1       5.575   4.283  15.922  0.00  0.00    +0.000 A 
ATOM     11  C   UNL     1       4.665   4.196  16.978  0.00  0.00    +0.000 A 
ATOM     12  O   UNL     1       5.073   4.074  14.662  0.00  0.00    +0.000 OA
ATOM     13  C   UNL     1       6.126   3.854  13.717  0.00  0.00    +0.000 C 
ATOM     14  C   UNL     1       7.239   4.872  13.903  0.00  0.00    +0.000 C 
ATOM     15  O   UNL     1       7.856   4.716  15.186  0.00  0.00    +0.000 OA
ENDBRANCH   5   6
BRANCH   1  16
ATOM     16  C   UNL     1       2.274   5.967  19.893  0.00  0.00    +0.000 C 
BRANCH  16  21
ATOM     17  C   UNL     1       0.759  10.567  18.611  0.00  0.00    +0.000 C 
ATOM     18  C   UNL     1       1.542   9.312  18.638  0.00  0.00    +0.000 A 
ATOM     19  N   UNL     1       2.257   8.821  17.651  0.00  0.00    +0.000 NA
ATOM     20  N   UNL     1       2.662   7.562  18.009  0.00  0.00    +0.000 NA
ATOM     21  C   UNL     1       2.175   7.292  19.206  0.00  0.00    +0.000 A 
ATOM     22  N   UNL     1       1.574   8.427  19.690  0.00  0.00    +0.000 N 
ATOM     23  C   UNL     1       1.063   8.686  21.008  0.00  0.00    +0.000 C 
ENDBRANCH  16  21
ENDBRANCH   1  16
TORSDOF 3
ENDMDL
MODEL 3
REMARK VINA RESULT:      -8.1      1.826      4.431
REMARK  Name = 
REMARK  5 active torsions:
REMARK  status: ('A' for Active; 'I' for Inactive)
REMARK    1  A    between atoms: C_1  and  C_2
REMARK    2  A    between atoms: C_5  and  C_6
REMARK    3  A    between atoms: C_6  and  N_7
REMARK    4  A    between atoms: C_11  and  C_12
REMARK    5  A    between atoms: N_22  and  C_23
REMARK                            x       y       z     vdW  Elec       q    Type
REMARK                         _______ _______ _______ _____ _____    ______ ____
ROOT
ATOM      1  N   UNL     1       4.272   4.238  17.099  0.00  0.00    +0.000 NA
ATOM      2  C   UNL     1       5.087   4.441  15.903  0.00  0.00    +0.000 C 
ATOM      3  C   UNL     1       6.411   4.997  16.384  0.00  0.00    +0.000 C 
ATOM      4  C   UNL     1       6.085   5.710  17.682  0.00  0.00    +0.000 C 
ATOM      5  C   UNL     1       4.721   5.171  18.138  0.00  0.00    +0.000 C 
ENDROOT
BRANCH   5   6
ATOM      6  C   UNL     1       3.736   6.309  18.390  0.00  0.00    +0.000 A 
ATOM      7  C   UNL     1       3.501   7.335  17.456  0.00  0.00    +0.000 A 
ATOM      8  C   UNL     1       2.604   8.370  17.731  0.00  0.00    +0.000 A 
ATOM      9  C   UNL     1       1.927   8.394  18.941  0.00  0.00    +0.000 A 
ATOM     10  C   UNL     1       2.116   7.368  19.871  0.00  0.00    +0.000 A 
ATOM     11  C   UNL     1       3.023   6.340  19.602  0.00  0.00    +0.000 A 
ATOM     12  O   UNL     1       1.459   7.306  21.073  0.00  0.00    +0.000 OA
ATOM     13  C   UNL     1       0.337   8.195  21.094  0.00  0.00    +0.000 C 
ATOM     14  C   UNL     1       0.717   9.557  20.536  0.00  0.00    +0.000 C 
ATOM     15  O   UNL     1       1.079   9.452  19.155  0.00  0.00    +0.000 OA
ENDBRANCH   5   6
BRANCH   1  16
ATOM     16  C   UNL     1       4.087   2.840  17.508  0.00  0.00    +0.000 C 
BRANCH  16  21
ATOM     17  C   UNL     1       1.518   2.871  21.809  0.00  0.00    +0.000 C 
ATOM     18  C   UNL     1       2.589   2.602  20.825  0.00  0.00    +0.000 A 
ATOM     19  N   UNL     1       3.851   2.359  21.098  0.00  0.00    +0.000 NA
ATOM     20  N   UNL     1       4.546   2.358  19.917  0.00  0.00    +0.000 NA
ATOM     21  C   UNL     1       3.701   2.617  18.936  0.00  0.00    +0.000 A 
ATOM     22  N   UNL     1       2.433   2.644  19.460  0.00  0.00    +0.000 N 
ATOM     23  C   UNL     1       1.173   2.709  18.771  0.00  0.00    +0.000 C 
ENDBRANCH  16  21
ENDBRANCH   1  16
TORSDOF 3
ENDMDL
MODEL 4
REMARK VINA RESULT:      -8.1      0.725      1.331
REMARK  Name = 
REMARK  5 active torsions:
REMARK  status: ('A' for Active; 'I' for Inactive)
REMARK    1  A    between atoms: C_1  and  C_2
REMARK    2  A    between atoms: C_5  and  C_6
REMARK    3  A    between atoms: C_6  and  N_7
REMARK    4  A    between atoms: C_11  and  C_12
REMARK    5  A    between atoms: N_22  and  C_23
REMARK                            x       y       z     vdW  Elec       q    Type
REMARK                         _______ _______ _______ _____ _____    ______ ____
ROOT
ATOM      1  N   UNL     1       3.707   4.239  19.041  0.00  0.00    +0.000 NA
ATOM      2  C   UNL     1       3.053   3.061  19.607  0.00  0.00    +0.000 C 
ATOM      3  C   UNL     1       1.918   2.716  18.667  0.00  0.00    +0.000 C 
ATOM      4  C   UNL     1       1.541   4.031  18.012  0.00  0.00    +0.000 C 
ATOM      5  C   UNL     1       2.729   4.978  18.236  0.00  0.00    +0.000 C 
ENDROOT
BRANCH   5   6
ATOM      6  C   UNL     1       2.278   6.283  18.886  0.00  0.00    +0.000 A 
ATOM      7  C   UNL     1       1.945   6.379  20.250  0.00  0.00    +0.000 A 
ATOM      8  C   UNL     1       1.520   7.589  20.805  0.00  0.00    +0.000 A 
ATOM      9  C   UNL     1       1.422   8.719  20.008  0.00  0.00    +0.000 A 
ATOM     10  C   UNL     1       1.780   8.657  18.659  0.00  0.00    +0.000 A 
ATOM     11  C   UNL     1       2.194   7.446  18.100  0.00  0.00    +0.000 A 
ATOM     12  O   UNL     1       1.743   9.739  17.816  0.00  0.00    +0.000 OA
ATOM     13  C   UNL     1       1.638  10.963  18.552  0.00  0.00    +0.000 C 
ATOM     14  C   UNL     1       0.588  10.848  19.645  0.00  0.00    +0.000 C 
ATOM     15  O   UNL     1       0.974   9.866  20.613  0.00  0.00    +0.000 OA
ENDBRANCH   5   6
BRANCH   1  16
ATOM     16  C   UNL     1       5.018   3.999  18.424  0.00  0.00    +0.000 C 
BRANCH  16  21
ATOM     17  C   UNL     1       8.128   7.823  17.525  0.00  0.00    +0.000 C 
ATOM     18  C   UNL     1       7.397   6.758  18.246  0.00  0.00    +0.000 A 
ATOM     19  N   UNL     1       7.788   6.156  19.347  0.00  0.00    +0.000 NA
ATOM     20  N   UNL     1       6.935   5.110  19.581  0.00  0.00    +0.000 NA
ATOM     21  C   UNL     1       6.040   5.075  18.610  0.00  0.00    +0.000 A 
ATOM     22  N   UNL     1       6.222   6.183  17.822  0.00  0.00    +0.000 N 
ATOM     23  C   UNL     1       5.393   6.681  16.758  0.00  0.00    +0.000 C 
ENDBRANCH  16  21
ENDBRANCH   1  16
TORSDOF 3
ENDMDL
MODEL 5
REMARK VINA RESULT:      -8.0      1.504      2.456
REMARK  Name = 
REMARK  5 active torsions:
REMARK  status: ('A' for Active; 'I' for Inactive)
REMARK    1  A    between atoms: C_1  and  C_2
REMARK    2  A    between atoms: C_5  and  C_6
REMARK    3  A    between atoms: C_6  and  N_7
REMARK    4  A    between atoms: C_11  and  C_12
REMARK    5  A    between atoms: N_22  and  C_23
REMARK                            x       y       z     vdW  Elec       q    Type
REMARK                         _______ _______ _______ _____ _____    ______ ____
ROOT
ATOM      1  N   UNL     1       3.752   5.436  19.478  0.00  0.00    +0.000 NA
ATOM      2  C   UNL     1       3.022   4.274  19.979  0.00  0.00    +0.000 C 
ATOM      3  C   UNL     1       2.202   3.757  18.815  0.00  0.00    +0.000 C 
ATOM      4  C   UNL     1       1.960   4.972  17.940  0.00  0.00    +0.000 C 
ATOM      5  C   UNL     1       2.999   6.021  18.364  0.00  0.00    +0.000 C 
ENDROOT
BRANCH   5   6
ATOM      6  C   UNL     1       2.330   7.346  18.721  0.00  0.00    +0.000 A 
ATOM      7  C   UNL     1       2.100   8.362  17.775  0.00  0.00    +0.000 A 
ATOM      8  C   UNL     1       1.501   9.569  18.143  0.00  0.00    +0.000 A 
ATOM      9  C   UNL     1       1.120   9.778  19.460  0.00  0.00    +0.000 A 
ATOM     10  C   UNL     1       1.306   8.771  20.411  0.00  0.00    +0.000 A 
ATOM     11  C   UNL     1       1.917   7.570  20.046  0.00  0.00    +0.000 A 
ATOM     12  O   UNL     1       0.926   8.891  21.723  0.00  0.00    +0.000 OA
ATOM     13  C   UNL     1       0.028   9.992  21.902  0.00  0.00    +0.000 C 
ATOM     14  C   UNL     1       0.533  11.225  21.169  0.00  0.00    +0.000 C 
ATOM     15  O   UNL     1       0.560  10.995  19.756  0.00  0.00    +0.000 OA
ENDBRANCH   5   6
BRANCH   1  16
ATOM     16  C   UNL     1       5.191   5.235  19.263  0.00  0.00    +0.000 C 
BRANCH  16  21
ATOM     17  C   UNL     1       6.953   4.825  14.592  0.00  0.00    +0.000 C 
ATOM     18  C   UNL     1       6.465   5.427  15.852  0.00  0.00    +0.000 A 
ATOM     19  N   UNL     1       6.743   6.632  16.295  0.00  0.00    +0.000 NA
ATOM     20  N   UNL     1       6.263   6.733  17.574  0.00  0.00    +0.000 NA
ATOM     21  C   UNL     1       5.709   5.580  17.904  0.00  0.00    +0.000 A 
ATOM     22  N   UNL     1       5.701   4.776  16.791  0.00  0.00    +0.000 N 
ATOM     23  C   UNL     1       5.051   3.509  16.598  0.00  0.00    +0.000 C 
ENDBRANCH  16  21
ENDBRANCH   1  16
TORSDOF 3
ENDMDL
MODEL 6
REMARK VINA RESULT:      -8.0      1.672      4.085
REMARK  Name = 
REMARK  5 active torsions:
REMARK  status: ('A' for Active; 'I' for Inactive)
REMARK    1  A    between atoms: C_1  and  C_2
REMARK    2  A    between atoms: C_5  and  C_6
REMARK    3  A    between atoms: C_6  and  N_7
REMARK    4  A    between atoms: C_11  and  C_12
REMARK    5  A    between atoms: N_22  and  C_23
REMARK                            x       y       z     vdW  Elec       q    Type
REMARK                         _______ _______ _______ _____ _____    ______ ____
ROOT
ATOM      1  N   UNL     1       4.167   4.423  17.137  0.00  0.00    +0.000 NA
ATOM      2  C   UNL     1       4.664   4.726  15.796  0.00  0.00    +0.000 C 
ATOM      3  C   UNL     1       5.974   5.461  15.988  0.00  0.00    +0.000 C 
ATOM      4  C   UNL     1       5.848   6.134  17.341  0.00  0.00    +0.000 C 
ATOM      5  C   UNL     1       4.702   5.418  18.072  0.00  0.00    +0.000 C 
ENDROOT
BRANCH   5   6
ATOM      6  C   UNL     1       3.652   6.413  18.559  0.00  0.00    +0.000 A 
ATOM      7  C   UNL     1       2.925   6.232  19.750  0.00  0.00    +0.000 A 
ATOM      8  C   UNL     1       1.959   7.156  20.154  0.00  0.00    +0.000 A 
ATOM      9  C   UNL     1       1.706   8.276  19.375  0.00  0.00    +0.000 A 
ATOM     10  C   UNL     1       2.438   8.495  18.205  0.00  0.00    +0.000 A 
ATOM     11  C   UNL     1       3.395   7.565  17.795  0.00  0.00    +0.000 A 
ATOM     12  O   UNL     1       2.268   9.594  17.401  0.00  0.00    +0.000 OA
ATOM     13  C   UNL     1       1.530  10.618  18.078  0.00  0.00    +0.000 C 
ATOM     14  C   UNL     1       0.319  10.033  18.786  0.00  0.00    +0.000 C 
ATOM     15  O   UNL     1       0.727   9.129  19.818  0.00  0.00    +0.000 OA
ENDBRANCH   5   6
BRANCH   1  16
ATOM     16  C   UNL     1       4.267   3.017  17.546  0.00  0.00    +0.000 C 
BRANCH  16  21
ATOM     17  C   UNL     1       1.509   2.746  21.719  0.00  0.00    +0.000 C 
ATOM     18  C   UNL     1       2.629   2.556  20.772  0.00  0.00    +0.000 A 
ATOM     19  N   UNL     1       3.882   2.321  21.087  0.00  0.00    +0.000 NA
ATOM     20  N   UNL     1       4.628   2.403  19.941  0.00  0.00    +0.000 NA
ATOM     21  C   UNL     1       3.823   2.703  18.939  0.00  0.00    +0.000 A 
ATOM     22  N   UNL     1       2.532   2.676  19.405  0.00  0.00    +0.000 N 
ATOM     23  C   UNL     1       1.302   2.757  18.665  0.00  0.00    +0.000 C 
ENDBRANCH  16  21
ENDBRANCH   1  16
TORSDOF 3
ENDMDL
MODEL 7
REMARK VINA RESULT:      -8.0      1.407      1.898
REMARK  Name = 
REMARK  5 active torsions:
REMARK  status: ('A' for Active; 'I' for Inactive)
REMARK    1  A    between atoms: C_1  and  C_2
REMARK    2  A    between atoms: C_5  and  C_6
REMARK    3  A    between atoms: C_6  and  N_7
REMARK    4  A    between atoms: C_11  and  C_12
REMARK    5  A    between atoms: N_22  and  C_23
REMARK                            x       y       z     vdW  Elec       q    Type
REMARK                         _______ _______ _______ _____ _____    ______ ____
ROOT
ATOM      1  N   UNL     1       3.272   3.905  20.277  0.00  0.00    +0.000 NA
ATOM      2  C   UNL     1       2.599   3.068  21.268  0.00  0.00    +0.000 C 
ATOM      3  C   UNL     1       1.335   2.563  20.606  0.00  0.00    +0.000 C 
ATOM      4  C   UNL     1       0.988   3.619  19.574  0.00  0.00    +0.000 C 
ATOM      5  C   UNL     1       2.267   4.442  19.355  0.00  0.00    +0.000 C 
ENDROOT
BRANCH   5   6
ATOM      6  C   UNL     1       2.004   5.932  19.553  0.00  0.00    +0.000 A 
ATOM      7  C   UNL     1       1.573   6.473  20.779  0.00  0.00    +0.000 A 
ATOM      8  C   UNL     1       1.326   7.841  20.917  0.00  0.00    +0.000 A 
ATOM      9  C   UNL     1       1.506   8.689  19.834  0.00  0.00    +0.000 A 
ATOM     10  C   UNL     1       1.966   8.181  18.616  0.00  0.00    +0.000 A 
ATOM     11  C   UNL     1       2.201   6.812  18.474  0.00  0.00    +0.000 A 
ATOM     12  O   UNL     1       2.200   8.960  17.512  0.00  0.00    +0.000 OA
ATOM     13  C   UNL     1       2.254  10.348  17.862  0.00  0.00    +0.000 C 
ATOM     14  C   UNL     1       1.108  10.716  18.790  0.00  0.00    +0.000 C 
ATOM     15  O   UNL     1       1.222  10.016  20.034  0.00  0.00    +0.000 OA
ENDBRANCH   5   6
BRANCH   1  16
ATOM     16  C   UNL     1       4.476   3.322  19.670  0.00  0.00    +0.000 C 
BRANCH  16  21
ATOM     17  C   UNL     1       7.187   5.557  16.099  0.00  0.00    +0.000 C 
ATOM     18  C   UNL     1       6.565   5.282  17.412  0.00  0.00    +0.000 A 
ATOM     19  N   UNL     1       7.010   5.681  18.581  0.00  0.00    +0.000 NA
ATOM     20  N   UNL     1       6.267   5.061  19.551  0.00  0.00    +0.000 NA
ATOM     21  C   UNL     1       5.384   4.276  18.961  0.00  0.00    +0.000 A 
ATOM     22  N   UNL     1       5.456   4.493  17.608  0.00  0.00    +0.000 N 
ATOM     23  C   UNL     1       4.584   4.016  16.569  0.00  0.00    +0.000 C 
ENDBRANCH  16  21
ENDBRANCH   1  16
TORSDOF 3
ENDMDL
MODEL 8
REMARK VINA RESULT:      -7.9      0.913      1.722
REMARK  Name = 
REMARK  5 active torsions:
REMARK  status: ('A' for Active; 'I' for Inactive)
REMARK    1  A    between atoms: C_1  and  C_2
REMARK    2  A    between atoms: C_5  and  C_6
REMARK    3  A    between atoms: C_6  and  N_7
REMARK    4  A    between atoms: C_11  and  C_12
REMARK    5  A    between atoms: N_22  and  C_23
REMARK                            x       y       z     vdW  Elec       q    Type
REMARK                         _______ _______ _______ _____ _____    ______ ____
ROOT
ATOM      1  N   UNL     1       3.834   4.623  19.233  0.00  0.00    +0.000 NA
ATOM      2  C   UNL     1       3.209   3.571  20.032  0.00  0.00    +0.000 C 
ATOM      3  C   UNL     1       2.090   3.004  19.184  0.00  0.00    +0.000 C 
ATOM      4  C   UNL     1       1.681   4.142  18.268  0.00  0.00    +0.000 C 
ATOM      5  C   UNL     1       2.841   5.149  18.290  0.00  0.00    +0.000 C 
ENDROOT
BRANCH   5   6
ATOM      6  C   UNL     1       2.349   6.548  18.653  0.00  0.00    +0.000 A 
ATOM      7  C   UNL     1       2.243   7.587  17.710  0.00  0.00    +0.000 A 
ATOM      8  C   UNL     1       1.804   8.859  18.084  0.00  0.00    +0.000 A 
ATOM      9  C   UNL     1       1.463   9.112  19.405  0.00  0.00    +0.000 A 
ATOM     10  C   UNL     1       1.527   8.087  20.353  0.00  0.00    +0.000 A 
ATOM     11  C   UNL     1       1.977   6.819  19.982  0.00  0.00    +0.000 A 
ATOM     12  O   UNL     1       1.175   8.252  21.668  0.00  0.00    +0.000 OA
ATOM     13  C   UNL     1       0.425   9.458  21.855  0.00  0.00    +0.000 C 
ATOM     14  C   UNL     1       1.077  10.618  21.120  0.00  0.00    +0.000 C 
ATOM     15  O   UNL     1       1.064  10.390  19.706  0.00  0.00    +0.000 OA
ENDBRANCH   5   6
BRANCH   1  16
ATOM     16  C   UNL     1       5.155   4.298  18.681  0.00  0.00    +0.000 C 
BRANCH  16  21
ATOM     17  C   UNL     1       8.034   8.278  17.697  0.00  0.00    +0.000 C 
ATOM     18  C   UNL     1       7.121   7.131  17.496  0.00  0.00    +0.000 A 
ATOM     19  N   UNL     1       6.270   6.980  16.506  0.00  0.00    +0.000 NA
ATOM     20  N   UNL     1       5.485   5.894  16.787  0.00  0.00    +0.000 NA
ATOM     21  C   UNL     1       5.855   5.402  17.955  0.00  0.00    +0.000 A 
ATOM     22  N   UNL     1       6.975   6.079  18.368  0.00  0.00    +0.000 N 
ATOM     23  C   UNL     1       7.845   5.793  19.476  0.00  0.00    +0.000 C 
ENDBRANCH  16  21
ENDBRANCH   1  16
TORSDOF 3
ENDMDL
MODEL 9
REMARK VINA RESULT:      -7.7      1.525      2.412
REMARK  Name = 
REMARK  5 active torsions:
REMARK  status: ('A' for Active; 'I' for Inactive)
REMARK    1  A    between atoms: C_1  and  C_2
REMARK    2  A    between atoms: C_5  and  C_6
REMARK    3  A    between atoms: C_6  and  N_7
REMARK    4  A    between atoms: C_11  and  C_12
REMARK    5  A    between atoms: N_22  and  C_23
REMARK                            x       y       z     vdW  Elec       q    Type
REMARK                         _______ _______ _______ _____ _____    ______ ____
ROOT
ATOM      1  N   UNL     1       3.736   5.432  19.472  0.00  0.00    +0.000 NA
ATOM      2  C   UNL     1       2.980   4.295  19.992  0.00  0.00    +0.000 C 
ATOM      3  C   UNL     1       2.155   3.773  18.834  0.00  0.00    +0.000 C 
ATOM      4  C   UNL     1       1.941   4.976  17.935  0.00  0.00    +0.000 C 
ATOM      5  C   UNL     1       3.000   6.011  18.344  0.00  0.00    +0.000 C 
ENDROOT
BRANCH   5   6
ATOM      6  C   UNL     1       2.357   7.356  18.672  0.00  0.00    +0.000 A 
ATOM      7  C   UNL     1       2.164   8.363  17.709  0.00  0.00    +0.000 A 
ATOM      8  C   UNL     1       1.587   9.589  18.051  0.00  0.00    +0.000 A 
ATOM      9  C   UNL     1       1.193   9.825  19.360  0.00  0.00    +0.000 A 
ATOM     10  C   UNL     1       1.342   8.828  20.327  0.00  0.00    +0.000 A 
ATOM     11  C   UNL     1       1.930   7.608  19.988  0.00  0.00    +0.000 A 
ATOM     12  O   UNL     1       0.946   8.976  21.632  0.00  0.00    +0.000 OA
ATOM     13  C   UNL     1       0.072  10.100  21.782  0.00  0.00    +0.000 C 
ATOM     14  C   UNL     1       0.615  11.309  21.039  0.00  0.00    +0.000 C 
ATOM     15  O   UNL     1       0.657  11.059  19.630  0.00  0.00    +0.000 OA
ENDBRANCH   5   6
BRANCH   1  16
ATOM     16  C   UNL     1       5.171   5.197  19.269  0.00  0.00    +0.000 C 
BRANCH  16  21
ATOM     17  C   UNL     1       6.834   5.136  14.543  0.00  0.00    +0.000 C 
ATOM     18  C   UNL     1       6.314   4.667  15.846  0.00  0.00    +0.000 A 
ATOM     19  N   UNL     1       5.625   3.568  16.057  0.00  0.00    +0.000 NA
ATOM     20  N   UNL     1       5.171   3.597  17.349  0.00  0.00    +0.000 NA
ATOM     21  C   UNL     1       5.575   4.722  17.909  0.00  0.00    +0.000 A 
ATOM     22  N   UNL     1       6.412   5.361  17.029  0.00  0.00    +0.000 N 
ATOM     23  C   UNL     1       7.237   6.518  17.245  0.00  0.00    +0.000 C 
ENDBRANCH  16  21
ENDBRANCH   1  16
TORSDOF 3
ENDMDL
