MODEL 1
REMARK VINA RESULT:      -8.4      0.000      0.000
REMARK  Name = 
REMARK  8 active torsions:
REMARK  status: ('A' for Active; 'I' for Inactive)
REMARK    1  A    between atoms: C_2  and  N_3
REMARK    2  A    between atoms: C_2  and  N_12
REMARK    3  A    between atoms: N_3  and  C_4
REMARK    4  A    between atoms: C_4  and  C_5
REMARK    5  A    between atoms: C_5  and  C_6
REMARK    6  A    between atoms: N_12  and  C_13
REMARK    7  A    between atoms: C_13  and  C_14
REMARK    8  A    between atoms: C_14  and  C_15
REMARK                            x       y       z     vdW  Elec       q    Type
REMARK                         _______ _______ _______ _____ _____    ______ ____
ROOT
ATOM      1  N   UNL     1       5.813   6.787  16.926  0.00  0.00    +0.000 N 
ATOM      2  H   UNL     1       5.832   7.152  15.985  0.00  0.00    +0.000 HD
ENDROOT
BRANCH   1   4
ATOM      3  S   UNL     1       7.559   5.778  18.746  0.00  0.00    +0.000 S 
ATOM      4  C   UNL     1       6.977   6.909  17.661  0.00  0.00    +0.000 C 
BRANCH   4   5
ATOM      5  N   UNL     1       7.611   8.097  17.346  0.00  0.00    +0.000 N 
ATOM      6  H   UNL     1       7.120   8.649  16.655  0.00  0.00    +0.000 HD
BRANCH   5   7
ATOM      7  C   UNL     1       8.448   8.851  18.276  0.00  0.00    +0.000 C 
BRANCH   7   8
ATOM      8  C   UNL     1       8.441  10.345  17.960  0.00  0.00    +0.000 C 
BRANCH   8   9
ATOM      9  C   UNL     1       9.622  11.034  18.594  0.00  0.00    +0.000 A 
ATOM     10  C   UNL     1      10.687  11.475  17.795  0.00  0.00    +0.000 A 
ATOM     11  C   UNL     1      11.811  12.061  18.375  0.00  0.00    +0.000 A 
ATOM     12  C   UNL     1      11.883  12.206  19.759  0.00  0.00    +0.000 A 
ATOM     13  C   UNL     1      10.832  11.767  20.563  0.00  0.00    +0.000 A 
ATOM     14  C   UNL     1       9.705  11.177  19.984  0.00  0.00    +0.000 A 
ENDBRANCH   8   9
ENDBRANCH   7   8
ENDBRANCH   5   7
ENDBRANCH   4   5
ENDBRANCH   1   4
BRANCH   1  15
ATOM     15  C   UNL     1       4.517   6.403  17.458  0.00  0.00    +0.000 C 
BRANCH  15  16
ATOM     16  C   UNL     1       4.072   5.001  17.032  0.00  0.00    +0.000 C 
BRANCH  16  17
ATOM     17  C   UNL     1       3.258   4.255  18.124  0.00  0.00    +0.000 C 
ATOM     18  C   UNL     1       3.434   4.932  19.509  0.00  0.00    +0.000 C 
ATOM     19  C   UNL     1       2.621   4.200  20.586  0.00  0.00    +0.000 C 
ATOM     20  C   UNL     1       1.134   4.236  20.208  0.00  0.00    +0.000 C 
ATOM     21  C   UNL     1       0.920   3.548  18.850  0.00  0.00    +0.000 C 
ATOM     22  C   UNL     1       1.388   2.087  18.949  0.00  0.00    +0.000 C 
ATOM     23  C   UNL     1       2.877   2.038  19.316  0.00  0.00    +0.000 C 
ATOM     24  C   UNL     1       3.097   2.741  20.666  0.00  0.00    +0.000 C 
ATOM     25  C   UNL     1       3.691   2.767  18.236  0.00  0.00    +0.000 C 
ATOM     26  C   UNL     1       1.745   4.278  17.772  0.00  0.00    +0.000 C 
ENDBRANCH  16  17
ENDBRANCH  15  16
ENDBRANCH   1  15
TORSDOF 8
ENDMDL
MODEL 2
REMARK VINA RESULT:      -8.3      0.966      1.983
REMARK  Name = 
REMARK  8 active torsions:
REMARK  status: ('A' for Active; 'I' for Inactive)
REMARK    1  A    between atoms: C_2  and  N_3
REMARK    2  A    between atoms: C_2  and  N_12
REMARK    3  A    between atoms: N_3  and  C_4
REMARK    4  A    between atoms: C_4  and  C_5
REMARK    5  A    between atoms: C_5  and  C_6
REMARK    6  A    between atoms: N_12  and  C_13
REMARK    7  A    between atoms: C_13  and  C_14
REMARK    8  A    between atoms: C_14  and  C_15
REMARK                            x       y       z     vdW  Elec       q    Type
REMARK                         _______ _______ _______ _____ _____    ______ ____
ROOT
ATOM      1  N   UNL     1       6.133   6.883  16.590  0.00  0.00    +0.000 N 
ATOM      2  H   UNL     1       6.000   7.699  16.011  0.00  0.00    +0.000 HD
ENDROOT
BRANCH   1   4
ATOM      3  S   UNL     1       7.446   5.819  18.715  0.00  0.00    +0.000 S 
ATOM      4  C   UNL     1       7.172   6.933  17.499  0.00  0.00    +0.000 C 
BRANCH   4   5
ATOM      5  N   UNL     1       7.975   8.028  17.239  0.00  0.00    +0.000 N 
ATOM      6  H   UNL     1       8.369   8.031  16.307  0.00  0.00    +0.000 HD
BRANCH   5   7
ATOM      7  C   UNL     1       7.792   9.342  17.850  0.00  0.00    +0.000 C 
BRANCH   7   8
ATOM      8  C   UNL     1       8.974   9.723  18.737  0.00  0.00    +0.000 C 
BRANCH   8   9
ATOM      9  C   UNL     1       9.598  11.016  18.276  0.00  0.00    +0.000 A 
ATOM     10  C   UNL     1      10.991  11.173  18.310  0.00  0.00    +0.000 A 
ATOM     11  C   UNL     1      11.576  12.383  17.941  0.00  0.00    +0.000 A 
ATOM     12  C   UNL     1      10.773  13.449  17.540  0.00  0.00    +0.000 A 
ATOM     13  C   UNL     1       9.387  13.306  17.507  0.00  0.00    +0.000 A 
ATOM     14  C   UNL     1       8.797  12.093  17.878  0.00  0.00    +0.000 A 
ENDBRANCH   8   9
ENDBRANCH   7   8
ENDBRANCH   5   7
ENDBRANCH   4   5
ENDBRANCH   1   4
BRANCH   1  15
ATOM     15  C   UNL     1       5.087   5.876  16.559  0.00  0.00    +0.000 C 
BRANCH  15  16
ATOM     16  C   UNL     1       3.899   6.200  17.468  0.00  0.00    +0.000 C 
BRANCH  16  17
ATOM     17  C   UNL     1       3.323   4.956  18.198  0.00  0.00    +0.000 C 
ATOM     18  C   UNL     1       1.849   4.701  17.784  0.00  0.00    +0.000 C 
ATOM     19  C   UNL     1       1.283   3.466  18.498  0.00  0.00    +0.000 C 
ATOM     20  C   UNL     1       2.119   2.236  18.117  0.00  0.00    +0.000 C 
ATOM     21  C   UNL     1       3.583   2.445  18.538  0.00  0.00    +0.000 C 
ATOM     22  C   UNL     1       3.641   2.653  20.060  0.00  0.00    +0.000 C 
ATOM     23  C   UNL     1       2.817   3.886  20.452  0.00  0.00    +0.000 C 
ATOM     24  C   UNL     1       1.356   3.688  20.017  0.00  0.00    +0.000 C 
ATOM     25  C   UNL     1       3.387   5.124  19.741  0.00  0.00    +0.000 C 
ATOM     26  C   UNL     1       4.146   3.691  17.828  0.00  0.00    +0.000 C 
ENDBRANCH  16  17
ENDBRANCH  15  16
ENDBRANCH   1  15
TORSDOF 8
ENDMDL
MODEL 3
REMARK VINA RESULT:      -8.1      0.995      1.949
REMARK  Name = 
REMARK  8 active torsions:
REMARK  status: ('A' for Active; 'I' for Inactive)
REMARK    1  A    between atoms: C_2  and  N_3
REMARK    2  A    between atoms: C_2  and  N_12
REMARK    3  A    between atoms: N_3  and  C_4
REMARK    4  A    between atoms: C_4  and  C_5
REMARK    5  A    between atoms: C_5  and  C_6
REMARK    6  A    between atoms: N_12  and  C_13
REMARK    7  A    between atoms: C_13  and  C_14
REMARK    8  A    between atoms: C_14  and  C_15
REMARK                            x       y       z     vdW  Elec       q    Type
REMARK                         _______ _______ _______ _____ _____    ______ ____
ROOT
ATOM      1  N   UNL     1       5.959   7.038  17.263  0.00  0.00    +0.000 N 
ATOM      2  H   UNL     1       5.612   7.975  17.114  0.00  0.00    +0.000 HD
ENDROOT
BRANCH   1   4
ATOM      3  S   UNL     1       7.642   5.760  18.969  0.00  0.00    +0.000 S 
ATOM      4  C   UNL     1       7.203   6.926  17.853  0.00  0.00    +0.000 C 
BRANCH   4   5
ATOM      5  N   UNL     1       8.048   7.905  17.364  0.00  0.00    +0.000 N 
ATOM      6  H   UNL     1       8.443   7.685  16.460  0.00  0.00    +0.000 HD
BRANCH   5   7
ATOM      7  C   UNL     1       7.913   9.329  17.664  0.00  0.00    +0.000 C 
BRANCH   7   8
ATOM      8  C   UNL     1       8.922   9.782  18.716  0.00  0.00    +0.000 C 
BRANCH   8   9
ATOM      9  C   UNL     1       9.569  11.084  18.315  0.00  0.00    +0.000 A 
ATOM     10  C   UNL     1       8.772  12.199  18.019  0.00  0.00    +0.000 A 
ATOM     11  C   UNL     1       9.355  13.390  17.590  0.00  0.00    +0.000 A 
ATOM     12  C   UNL     1      10.739  13.475  17.448  0.00  0.00    +0.000 A 
ATOM     13  C   UNL     1      11.540  12.372  17.735  0.00  0.00    +0.000 A 
ATOM     14  C   UNL     1      10.958  11.175  18.164  0.00  0.00    +0.000 A 
ENDBRANCH   8   9
ENDBRANCH   7   8
ENDBRANCH   5   7
ENDBRANCH   4   5
ENDBRANCH   1   4
BRANCH   1  15
ATOM     15  C   UNL     1       5.020   5.949  17.062  0.00  0.00    +0.000 C 
BRANCH  15  16
ATOM     16  C   UNL     1       3.659   6.184  17.724  0.00  0.00    +0.000 C 
BRANCH  16  17
ATOM     17  C   UNL     1       3.085   4.919  18.418  0.00  0.00    +0.000 C 
ATOM     18  C   UNL     1       4.069   3.724  18.300  0.00  0.00    +0.000 C 
ATOM     19  C   UNL     1       3.505   2.477  18.995  0.00  0.00    +0.000 C 
ATOM     20  C   UNL     1       3.284   2.785  20.483  0.00  0.00    +0.000 C 
ATOM     21  C   UNL     1       2.291   3.949  20.636  0.00  0.00    +0.000 C 
ATOM     22  C   UNL     1       0.953   3.555  19.990  0.00  0.00    +0.000 C 
ATOM     23  C   UNL     1       1.160   3.255  18.499  0.00  0.00    +0.000 C 
ATOM     24  C   UNL     1       2.166   2.102  18.341  0.00  0.00    +0.000 C 
ATOM     25  C   UNL     1       1.720   4.505  17.803  0.00  0.00    +0.000 C 
ATOM     26  C   UNL     1       2.854   5.197  19.929  0.00  0.00    +0.000 C 
ENDBRANCH  16  17
ENDBRANCH  15  16
ENDBRANCH   1  15
TORSDOF 8
ENDMDL
MODEL 4
REMARK VINA RESULT:      -8.1      1.381      9.865
REMARK  Name = 
REMARK  8 active torsions:
REMARK  status: ('A' for Active; 'I' for Inactive)
REMARK    1  A    between atoms: C_2  and  N_3
REMARK    2  A    between atoms: C_2  and  N_12
REMARK    3  A    between atoms: N_3  and  C_4
REMARK    4  A    between atoms: C_4  and  C_5
REMARK    5  A    between atoms: C_5  and  C_6
REMARK    6  A    between atoms: N_12  and  C_13
REMARK    7  A    between atoms: C_13  and  C_14
REMARK    8  A    between atoms: C_14  and  C_15
REMARK                            x       y       z     vdW  Elec       q    Type
REMARK                         _______ _______ _______ _____ _____    ______ ____
ROOT
ATOM      1  N   UNL     1       7.571   8.119  17.451  0.00  0.00    +0.000 N 
ATOM      2  H   UNL     1       7.053   8.525  16.685  0.00  0.00    +0.000 HD
ENDROOT
BRANCH   1   4
ATOM      3  S   UNL     1       7.660   5.893  19.003  0.00  0.00    +0.000 S 
ATOM      4  C   UNL     1       7.522   6.744  17.571  0.00  0.00    +0.000 C 
BRANCH   4   5
ATOM      5  N   UNL     1       7.311   6.170  16.331  0.00  0.00    +0.000 N 
ATOM      6  H   UNL     1       8.109   5.656  15.980  0.00  0.00    +0.000 HD
BRANCH   5   7
ATOM      7  C   UNL     1       6.009   5.719  15.846  0.00  0.00    +0.000 C 
BRANCH   7   8
ATOM      8  C   UNL     1       5.619   4.369  16.444  0.00  0.00    +0.000 C 
BRANCH   8   9
ATOM      9  C   UNL     1       4.259   4.440  17.090  0.00  0.00    +0.000 A 
ATOM     10  C   UNL     1       3.429   3.310  17.102  0.00  0.00    +0.000 A 
ATOM     11  C   UNL     1       2.147   3.379  17.643  0.00  0.00    +0.000 A 
ATOM     12  C   UNL     1       1.680   4.580  18.172  0.00  0.00    +0.000 A 
ATOM     13  C   UNL     1       2.494   5.712  18.162  0.00  0.00    +0.000 A 
ATOM     14  C   UNL     1       3.780   5.646  17.617  0.00  0.00    +0.000 A 
ENDBRANCH   8   9
ENDBRANCH   7   8
ENDBRANCH   5   7
ENDBRANCH   4   5
ENDBRANCH   1   4
BRANCH   1  15
ATOM     15  C   UNL     1       8.477   8.997  18.172  0.00  0.00    +0.000 C 
BRANCH  15  16
ATOM     16  C   UNL     1       8.354  10.468  17.768  0.00  0.00    +0.000 C 
BRANCH  16  17
ATOM     17  C   UNL     1       9.379  11.392  18.482  0.00  0.00    +0.000 C 
ATOM     18  C   UNL     1      10.737  11.400  17.729  0.00  0.00    +0.000 C 
ATOM     19  C   UNL     1      11.747  12.320  18.429  0.00  0.00    +0.000 C 
ATOM     20  C   UNL     1      11.193  13.751  18.455  0.00  0.00    +0.000 C 
ATOM     21  C   UNL     1       9.858  13.783  19.217  0.00  0.00    +0.000 C 
ATOM     22  C   UNL     1      10.091  13.297  20.657  0.00  0.00    +0.000 C 
ATOM     23  C   UNL     1      10.636  11.863  20.644  0.00  0.00    +0.000 C 
ATOM     24  C   UNL     1      11.962  11.824  19.868  0.00  0.00    +0.000 C 
ATOM     25  C   UNL     1       9.622  10.941  19.948  0.00  0.00    +0.000 C 
ATOM     26  C   UNL     1       8.848  12.851  18.519  0.00  0.00    +0.000 C 
ENDBRANCH  16  17
ENDBRANCH  15  16
ENDBRANCH   1  15
TORSDOF 8
ENDMDL
MODEL 5
REMARK VINA RESULT:      -8.1      3.742      5.726
REMARK  Name = 
REMARK  8 active torsions:
REMARK  status: ('A' for Active; 'I' for Inactive)
REMARK    1  A    between atoms: C_2  and  N_3
REMARK    2  A    between atoms: C_2  and  N_12
REMARK    3  A    between atoms: N_3  and  C_4
REMARK    4  A    between atoms: C_4  and  C_5
REMARK    5  A    between atoms: C_5  and  C_6
REMARK    6  A    between atoms: N_12  and  C_13
REMARK    7  A    between atoms: C_13  and  C_14
REMARK    8  A    between atoms: C_14  and  C_15
REMARK                            x       y       z     vdW  Elec       q    Type
REMARK                         _______ _______ _______ _____ _____    ______ ____
ROOT
ATOM      1  N   UNL     1       5.056   7.258  17.310  0.00  0.00    +0.000 N 
ATOM      2  H   UNL     1       4.938   8.258  17.235  0.00  0.00    +0.000 HD
ENDROOT
BRANCH   1   4
ATOM      3  S   UNL     1       7.708   7.761  17.607  0.00  0.00    +0.000 S 
ATOM      4  C   UNL     1       6.341   6.801  17.531  0.00  0.00    +0.000 C 
BRANCH   4   5
ATOM      5  N   UNL     1       6.331   5.431  17.710  0.00  0.00    +0.000 N 
ATOM      6  H   UNL     1       5.532   5.095  18.232  0.00  0.00    +0.000 HD
BRANCH   5   7
ATOM      7  C   UNL     1       6.916   4.476  16.771  0.00  0.00    +0.000 C 
BRANCH   7   8
ATOM      8  C   UNL     1       5.902   4.018  15.726  0.00  0.00    +0.000 C 
BRANCH   8   9
ATOM      9  C   UNL     1       6.455   4.180  14.333  0.00  0.00    +0.000 A 
ATOM     10  C   UNL     1       7.423   5.161  14.074  0.00  0.00    +0.000 A 
ATOM     11  C   UNL     1       7.900   5.360  12.779  0.00  0.00    +0.000 A 
ATOM     12  C   UNL     1       7.409   4.584  11.731  0.00  0.00    +0.000 A 
ATOM     13  C   UNL     1       6.444   3.608  11.976  0.00  0.00    +0.000 A 
ATOM     14  C   UNL     1       5.962   3.409  13.274  0.00  0.00    +0.000 A 
ENDBRANCH   8   9
ENDBRANCH   7   8
ENDBRANCH   5   7
ENDBRANCH   4   5
ENDBRANCH   1   4
BRANCH   1  15
ATOM     15  C   UNL     1       3.848   6.458  17.413  0.00  0.00    +0.000 C 
BRANCH  15  16
ATOM     16  C   UNL     1       3.285   6.382  18.835  0.00  0.00    +0.000 C 
BRANCH  16  17
ATOM     17  C   UNL     1       2.780   4.964  19.223  0.00  0.00    +0.000 C 
ATOM     18  C   UNL     1       3.961   4.051  19.647  0.00  0.00    +0.000 C 
ATOM     19  C   UNL     1       3.462   2.654  20.039  0.00  0.00    +0.000 C 
ATOM     20  C   UNL     1       2.490   2.778  21.221  0.00  0.00    +0.000 C 
ATOM     21  C   UNL     1       1.292   3.658  20.825  0.00  0.00    +0.000 C 
ATOM     22  C   UNL     1       0.569   3.012  19.632  0.00  0.00    +0.000 C 
ATOM     23  C   UNL     1       1.528   2.891  18.441  0.00  0.00    +0.000 C 
ATOM     24  C   UNL     1       2.735   2.026  18.839  0.00  0.00    +0.000 C 
ATOM     25  C   UNL     1       2.025   4.291  18.045  0.00  0.00    +0.000 C 
ATOM     26  C   UNL     1       1.797   5.057  20.421  0.00  0.00    +0.000 C 
ENDBRANCH  16  17
ENDBRANCH  15  16
ENDBRANCH   1  15
TORSDOF 8
ENDMDL
MODEL 6
REMARK VINA RESULT:      -8.1      1.290      1.993
REMARK  Name = 
REMARK  8 active torsions:
REMARK  status: ('A' for Active; 'I' for Inactive)
REMARK    1  A    between atoms: C_2  and  N_3
REMARK    2  A    between atoms: C_2  and  N_12
REMARK    3  A    between atoms: N_3  and  C_4
REMARK    4  A    between atoms: C_4  and  C_5
REMARK    5  A    between atoms: C_5  and  C_6
REMARK    6  A    between atoms: N_12  and  C_13
REMARK    7  A    between atoms: C_13  and  C_14
REMARK    8  A    between atoms: C_14  and  C_15
REMARK                            x       y       z     vdW  Elec       q    Type
REMARK                         _______ _______ _______ _____ _____    ______ ____
ROOT
ATOM      1  N   UNL     1       7.051   5.912  18.215  0.00  0.00    +0.000 N 
ATOM      2  H   UNL     1       7.982   5.537  18.330  0.00  0.00    +0.000 HD
ENDROOT
BRANCH   1   4
ATOM      3  S   UNL     1       5.642   6.056  15.899  0.00  0.00    +0.000 S 
ATOM      4  C   UNL     1       6.784   6.546  17.018  0.00  0.00    +0.000 C 
BRANCH   4   5
ATOM      5  N   UNL     1       7.581   7.668  16.889  0.00  0.00    +0.000 N 
ATOM      6  H   UNL     1       7.316   8.269  16.120  0.00  0.00    +0.000 HD
BRANCH   5   7
ATOM      7  C   UNL     1       8.249   8.332  18.006  0.00  0.00    +0.000 C 
BRANCH   7   8
ATOM      8  C   UNL     1       8.101   9.850  17.932  0.00  0.00    +0.000 C 
BRANCH   8   9
ATOM      9  C   UNL     1       9.269  10.536  18.594  0.00  0.00    +0.000 A 
ATOM     10  C   UNL     1       9.265  10.742  19.982  0.00  0.00    +0.000 A 
ATOM     11  C   UNL     1      10.311  11.427  20.597  0.00  0.00    +0.000 A 
ATOM     12  C   UNL     1      11.368  11.916  19.831  0.00  0.00    +0.000 A 
ATOM     13  C   UNL     1      11.380  11.721  18.451  0.00  0.00    +0.000 A 
ATOM     14  C   UNL     1      10.330  11.036  17.831  0.00  0.00    +0.000 A 
ENDBRANCH   8   9
ENDBRANCH   7   8
ENDBRANCH   5   7
ENDBRANCH   4   5
ENDBRANCH   1   4
BRANCH   1  15
ATOM     15  C   UNL     1       6.061   5.533  19.209  0.00  0.00    +0.000 C 
BRANCH  15  16
ATOM     16  C   UNL     1       5.694   4.047  19.169  0.00  0.00    +0.000 C 
BRANCH  16  17
ATOM     17  C   UNL     1       4.168   3.793  19.026  0.00  0.00    +0.000 C 
ATOM     18  C   UNL     1       3.679   2.746  20.063  0.00  0.00    +0.000 C 
ATOM     19  C   UNL     1       2.170   2.503  19.928  0.00  0.00    +0.000 C 
ATOM     20  C   UNL     1       1.422   3.821  20.173  0.00  0.00    +0.000 C 
ATOM     21  C   UNL     1       1.864   4.875  19.145  0.00  0.00    +0.000 C 
ATOM     22  C   UNL     1       1.546   4.360  17.731  0.00  0.00    +0.000 C 
ATOM     23  C   UNL     1       2.297   3.047  17.471  0.00  0.00    +0.000 C 
ATOM     24  C   UNL     1       1.869   1.996  18.508  0.00  0.00    +0.000 C 
ATOM     25  C   UNL     1       3.808   3.292  17.601  0.00  0.00    +0.000 C 
ATOM     26  C   UNL     1       3.382   5.110  19.274  0.00  0.00    +0.000 C 
ENDBRANCH  16  17
ENDBRANCH  15  16
ENDBRANCH   1  15
TORSDOF 8
ENDMDL
MODEL 7
REMARK VINA RESULT:      -8.1      1.039      2.174
REMARK  Name = 
REMARK  8 active torsions:
REMARK  status: ('A' for Active; 'I' for Inactive)
REMARK    1  A    between atoms: C_2  and  N_3
REMARK    2  A    between atoms: C_2  and  N_12
REMARK    3  A    between atoms: N_3  and  C_4
REMARK    4  A    between atoms: C_4  and  C_5
REMARK    5  A    between atoms: C_5  and  C_6
REMARK    6  A    between atoms: N_12  and  C_13
REMARK    7  A    between atoms: C_13  and  C_14
REMARK    8  A    between atoms: C_14  and  C_15
REMARK                            x       y       z     vdW  Elec       q    Type
REMARK                         _______ _______ _______ _____ _____    ______ ____
ROOT
ATOM      1  N   UNL     1       5.998   6.963  16.911  0.00  0.00    +0.000 N 
ATOM      2  H   UNL     1       5.773   7.853  16.489  0.00  0.00    +0.000 HD
ENDROOT
BRANCH   1   4
ATOM      3  S   UNL     1       7.572   5.719  18.741  0.00  0.00    +0.000 S 
ATOM      4  C   UNL     1       7.181   6.899  17.622  0.00  0.00    +0.000 C 
BRANCH   4   5
ATOM      5  N   UNL     1       8.011   7.940  17.253  0.00  0.00    +0.000 N 
ATOM      6  H   UNL     1       8.436   7.818  16.344  0.00  0.00    +0.000 HD
BRANCH   5   7
ATOM      7  C   UNL     1       7.832   9.325  17.685  0.00  0.00    +0.000 C 
BRANCH   7   8
ATOM      8  C   UNL     1       8.856   9.724  18.745  0.00  0.00    +0.000 C 
BRANCH   8   9
ATOM      9  C   UNL     1       9.547  11.009  18.366  0.00  0.00    +0.000 A 
ATOM     10  C   UNL     1       8.794  12.106  17.925  0.00  0.00    +0.000 A 
ATOM     11  C   UNL     1       9.426  13.280  17.517  0.00  0.00    +0.000 A 
ATOM     12  C   UNL     1      10.816  13.365  17.541  0.00  0.00    +0.000 A 
ATOM     13  C   UNL     1      11.576  12.279  17.974  0.00  0.00    +0.000 A 
ATOM     14  C   UNL     1      10.944  11.099  18.382  0.00  0.00    +0.000 A 
ENDBRANCH   8   9
ENDBRANCH   7   8
ENDBRANCH   5   7
ENDBRANCH   4   5
ENDBRANCH   1   4
BRANCH   1  15
ATOM     15  C   UNL     1       4.954   5.953  16.916  0.00  0.00    +0.000 C 
BRANCH  15  16
ATOM     16  C   UNL     1       3.936   6.133  18.046  0.00  0.00    +0.000 C 
BRANCH  16  17
ATOM     17  C   UNL     1       3.308   4.796  18.528  0.00  0.00    +0.000 C 
ATOM     18  C   UNL     1       2.948   3.885  17.323  0.00  0.00    +0.000 C 
ATOM     19  C   UNL     1       2.337   2.561  17.800  0.00  0.00    +0.000 C 
ATOM     20  C   UNL     1       3.353   1.825  18.685  0.00  0.00    +0.000 C 
ATOM     21  C   UNL     1       3.711   2.691  19.904  0.00  0.00    +0.000 C 
ATOM     22  C   UNL     1       2.435   2.971  20.713  0.00  0.00    +0.000 C 
ATOM     23  C   UNL     1       1.415   3.715  19.841  0.00  0.00    +0.000 C 
ATOM     24  C   UNL     1       1.067   2.859  18.613  0.00  0.00    +0.000 C 
ATOM     25  C   UNL     1       2.025   5.044  19.368  0.00  0.00    +0.000 C 
ATOM     26  C   UNL     1       4.316   4.025  19.423  0.00  0.00    +0.000 C 
ENDBRANCH  16  17
ENDBRANCH  15  16
ENDBRANCH   1  15
TORSDOF 8
ENDMDL
MODEL 8
REMARK VINA RESULT:      -8.0      1.105      9.998
REMARK  Name = 
REMARK  8 active torsions:
REMARK  status: ('A' for Active; 'I' for Inactive)
REMARK    1  A    between atoms: C_2  and  N_3
REMARK    2  A    between atoms: C_2  and  N_12
REMARK    3  A    between atoms: N_3  and  C_4
REMARK    4  A    between atoms: C_4  and  C_5
REMARK    5  A    between atoms: C_5  and  C_6
REMARK    6  A    between atoms: N_12  and  C_13
REMARK    7  A    between atoms: C_13  and  C_14
REMARK    8  A    between atoms: C_14  and  C_15
REMARK                            x       y       z     vdW  Elec       q    Type
REMARK                         _______ _______ _______ _____ _____    ______ ____
ROOT
ATOM      1  N   UNL     1       7.670   8.191  17.239  0.00  0.00    +0.000 N 
ATOM      2  H   UNL     1       7.719   8.436  16.261  0.00  0.00    +0.000 HD
ENDROOT
BRANCH   1   4
ATOM      3  S   UNL     1       7.599   5.923  18.730  0.00  0.00    +0.000 S 
ATOM      4  C   UNL     1       7.078   6.981  17.545  0.00  0.00    +0.000 C 
BRANCH   4   5
ATOM      5  N   UNL     1       5.970   6.782  16.744  0.00  0.00    +0.000 N 
ATOM      6  H   UNL     1       6.158   6.888  15.756  0.00  0.00    +0.000 HD
BRANCH   5   7
ATOM      7  C   UNL     1       4.863   5.890  17.082  0.00  0.00    +0.000 C 
BRANCH   7   8
ATOM      8  C   UNL     1       3.676   6.655  17.660  0.00  0.00    +0.000 C 
BRANCH   8   9
ATOM      9  C   UNL     1       2.777   5.737  18.448  0.00  0.00    +0.000 A 
ATOM     10  C   UNL     1       2.673   5.881  19.839  0.00  0.00    +0.000 A 
ATOM     11  C   UNL     1       1.891   5.001  20.585  0.00  0.00    +0.000 A 
ATOM     12  C   UNL     1       1.209   3.967  19.948  0.00  0.00    +0.000 A 
ATOM     13  C   UNL     1       1.308   3.811  18.566  0.00  0.00    +0.000 A 
ATOM     14  C   UNL     1       2.094   4.691  17.816  0.00  0.00    +0.000 A 
ENDBRANCH   8   9
ENDBRANCH   7   8
ENDBRANCH   5   7
ENDBRANCH   4   5
ENDBRANCH   1   4
BRANCH   1  15
ATOM     15  C   UNL     1       8.428   9.017  18.163  0.00  0.00    +0.000 C 
BRANCH  15  16
ATOM     16  C   UNL     1       8.166  10.517  17.999  0.00  0.00    +0.000 C 
BRANCH  16  17
ATOM     17  C   UNL     1       9.315  11.407  18.547  0.00  0.00    +0.000 C 
ATOM     18  C   UNL     1      10.620  11.191  17.736  0.00  0.00    +0.000 C 
ATOM     19  C   UNL     1      11.753  12.078  18.271  0.00  0.00    +0.000 C 
ATOM     20  C   UNL     1      11.340  13.552  18.151  0.00  0.00    +0.000 C 
ATOM     21  C   UNL     1      10.061  13.806  18.967  0.00  0.00    +0.000 C 
ATOM     22  C   UNL     1      10.332  13.468  20.442  0.00  0.00    +0.000 C 
ATOM     23  C   UNL     1      10.737  11.994  20.575  0.00  0.00    +0.000 C 
ATOM     24  C   UNL     1      12.005  11.732  19.747  0.00  0.00    +0.000 C 
ATOM     25  C   UNL     1       9.601  11.106  20.044  0.00  0.00    +0.000 C 
ATOM     26  C   UNL     1       8.928  12.907  18.435  0.00  0.00    +0.000 C 
ENDBRANCH  16  17
ENDBRANCH  15  16
ENDBRANCH   1  15
TORSDOF 8
ENDMDL
MODEL 9
REMARK VINA RESULT:      -8.0      1.088      2.017
REMARK  Name = 
REMARK  8 active torsions:
REMARK  status: ('A' for Active; 'I' for Inactive)
REMARK    1  A    between atoms: C_2  and  N_3
REMARK    2  A    between atoms: C_2  and  N_12
REMARK    3  A    between atoms: N_3  and  C_4
REMARK    4  A    between atoms: C_4  and  C_5
REMARK    5  A    between atoms: C_5  and  C_6
REMARK    6  A    between atoms: N_12  and  C_13
REMARK    7  A    between atoms: C_13  and  C_14
REMARK    8  A    between atoms: C_14  and  C_15
REMARK                            x       y       z     vdW  Elec       q    Type
REMARK                         _______ _______ _______ _____ _____    ______ ____
ROOT
ATOM      1  N   UNL     1       5.524   6.878  17.403  0.00  0.00    +0.000 N 
ATOM      2  H   UNL     1       5.227   7.701  16.898  0.00  0.00    +0.000 HD
ENDROOT
BRANCH   1   4
ATOM      3  S   UNL     1       7.244   4.804  17.066  0.00  0.00    +0.000 S 
ATOM      4  C   UNL     1       6.797   6.414  17.134  0.00  0.00    +0.000 C 
BRANCH   4   5
ATOM      5  N   UNL     1       7.648   7.478  16.898  0.00  0.00    +0.000 N 
ATOM      6  H   UNL     1       7.947   7.554  15.935  0.00  0.00    +0.000 HD
BRANCH   5   7
ATOM      7  C   UNL     1       7.623   8.730  17.651  0.00  0.00    +0.000 C 
BRANCH   7   8
ATOM      8  C   UNL     1       8.661   8.738  18.770  0.00  0.00    +0.000 C 
BRANCH   8   9
ATOM      9  C   UNL     1       9.200  10.128  18.992  0.00  0.00    +0.000 A 
ATOM     10  C   UNL     1       9.595  10.910  17.897  0.00  0.00    +0.000 A 
ATOM     11  C   UNL     1      10.150  12.173  18.093  0.00  0.00    +0.000 A 
ATOM     12  C   UNL     1      10.318  12.665  19.386  0.00  0.00    +0.000 A 
ATOM     13  C   UNL     1       9.933  11.896  20.482  0.00  0.00    +0.000 A 
ATOM     14  C   UNL     1       9.379  10.627  20.288  0.00  0.00    +0.000 A 
ENDBRANCH   8   9
ENDBRANCH   7   8
ENDBRANCH   5   7
ENDBRANCH   4   5
ENDBRANCH   1   4
BRANCH   1  15
ATOM     15  C   UNL     1       4.681   6.440  18.501  0.00  0.00    +0.000 C 
BRANCH  15  16
ATOM     16  C   UNL     1       3.269   6.039  18.065  0.00  0.00    +0.000 C 
BRANCH  16  17
ATOM     17  C   UNL     1       2.754   4.746  18.754  0.00  0.00    +0.000 C 
ATOM     18  C   UNL     1       1.876   3.911  17.784  0.00  0.00    +0.000 C 
ATOM     19  C   UNL     1       1.376   2.628  18.462  0.00  0.00    +0.000 C 
ATOM     20  C   UNL     1       2.582   1.778  18.887  0.00  0.00    +0.000 C 
ATOM     21  C   UNL     1       3.460   2.568  19.872  0.00  0.00    +0.000 C 
ATOM     22  C   UNL     1       2.624   2.929  21.111  0.00  0.00    +0.000 C 
ATOM     23  C   UNL     1       1.421   3.787  20.699  0.00  0.00    +0.000 C 
ATOM     24  C   UNL     1       0.550   3.006  19.702  0.00  0.00    +0.000 C 
ATOM     25  C   UNL     1       1.922   5.074  20.024  0.00  0.00    +0.000 C 
ATOM     26  C   UNL     1       3.953   3.861  19.193  0.00  0.00    +0.000 C 
ENDBRANCH  16  17
ENDBRANCH  15  16
ENDBRANCH   1  15
TORSDOF 8
ENDMDL
