MODEL 1
REMARK VINA RESULT:      -6.2      0.000      0.000
REMARK  Name = 
REMARK  11 active torsions:
REMARK  status: ('A' for Active; 'I' for Inactive)
REMARK    1  A    between atoms: C_1  and  O_2
REMARK    2  A    between atoms: O_2  and  C_3
REMARK    3  A    between atoms: C_3  and  C_4
REMARK    4  A    between atoms: C_5  and  C_6
REMARK    5  A    between atoms: C_6  and  O_7
REMARK    6  A    between atoms: C_12  and  C_13
REMARK    7  A    between atoms: C_13  and  C_14
REMARK    8  A    between atoms: C_14  and  O_15
REMARK    9  A    between atoms: C_14  and  O_17
REMARK   10  A    between atoms: O_15  and  C_16
REMARK   11  A    between atoms: O_17  and  C_18
REMARK                            x       y       z     vdW  Elec       q    Type
REMARK                         _______ _______ _______ _____ _____    ______ ____
ROOT
ATOM      1  C   UNL     1       5.651   5.060  15.790  0.00  0.00    +0.000 C 
ATOM      2  C   UNL     1       6.970   4.502  16.376  0.00  0.00    +0.000 C 
ATOM      3  C   UNL     1       7.413   5.195  17.666  0.00  0.00    +0.000 C 
ATOM      4  C   UNL     1       6.299   5.357  18.697  0.00  0.00    +0.000 C 
ATOM      5  C   UNL     1       4.994   5.876  18.091  0.00  0.00    +0.000 C 
ATOM      6  C   UNL     1       4.523   5.025  16.880  0.00  0.00    +0.000 C 
ENDROOT
BRANCH   1   8
ATOM      7  C   UNL     1       6.307   3.925  13.531  0.00  0.00    +0.000 C 
ATOM      8  C   UNL     1       5.448   4.420  14.438  0.00  0.00    +0.000 C 
BRANCH   7   9
ATOM      9  C   UNL     1       5.835   3.281  12.257  0.00  0.00    +0.000 C 
BRANCH   9  11
ATOM     10  C   UNL     1       3.927   3.393  10.855  0.00  0.00    +0.000 C 
ATOM     11  O   UNL     1       4.413   3.274  12.188  0.00  0.00    +0.000 OA
ENDBRANCH   9  11
ENDBRANCH   7   9
ENDBRANCH   1   8
BRANCH   1  12
ATOM     12  O   UNL     1       5.862   6.436  15.412  0.00  0.00    +0.000 OA
ATOM     13  H   UNL     1       6.544   6.828  15.976  0.00  0.00    +0.000 HD
ENDBRANCH   1  12
BRANCH   6  14
ATOM     14  C   UNL     1       4.122   3.597  17.353  0.00  0.00    +0.000 C 
BRANCH  14  15
ATOM     15  C   UNL     1       2.608   3.291  17.283  0.00  0.00    +0.000 C 
BRANCH  15  16
ATOM     16  O   UNL     1       2.375   2.084  18.015  0.00  0.00    +0.000 OA
ATOM     17  C   UNL     1       3.582   1.426  18.372  0.00  0.00    +0.000 C 
ENDBRANCH  15  16
BRANCH  15  18
ATOM     18  O   UNL     1       1.853   4.363  17.854  0.00  0.00    +0.000 OA
ATOM     19  C   UNL     1       1.344   4.068  19.147  0.00  0.00    +0.000 C 
ENDBRANCH  15  18
ENDBRANCH  14  15
ENDBRANCH   6  14
TORSDOF 8
ENDMDL
MODEL 2
REMARK VINA RESULT:      -6.1      2.499      4.721
REMARK  Name = 
REMARK  11 active torsions:
REMARK  status: ('A' for Active; 'I' for Inactive)
REMARK    1  A    between atoms: C_1  and  O_2
REMARK    2  A    between atoms: O_2  and  C_3
REMARK    3  A    between atoms: C_3  and  C_4
REMARK    4  A    between atoms: C_5  and  C_6
REMARK    5  A    between atoms: C_6  and  O_7
REMARK    6  A    between atoms: C_12  and  C_13
REMARK    7  A    between atoms: C_13  and  C_14
REMARK    8  A    between atoms: C_14  and  O_15
REMARK    9  A    between atoms: C_14  and  O_17
REMARK   10  A    between atoms: O_15  and  C_16
REMARK   11  A    between atoms: O_17  and  C_18
REMARK                            x       y       z     vdW  Elec       q    Type
REMARK                         _______ _______ _______ _____ _____    ______ ____
ROOT
ATOM      1  C   UNL     1       4.339   3.786  18.716  0.00  0.00    +0.000 C 
ATOM      2  C   UNL     1       3.677   3.122  17.485  0.00  0.00    +0.000 C 
ATOM      3  C   UNL     1       2.614   2.081  17.843  0.00  0.00    +0.000 C 
ATOM      4  C   UNL     1       1.619   2.550  18.901  0.00  0.00    +0.000 C 
ATOM      5  C   UNL     1       2.291   3.235  20.092  0.00  0.00    +0.000 C 
ATOM      6  C   UNL     1       3.238   4.387  19.657  0.00  0.00    +0.000 C 
ENDROOT
BRANCH   1   8
ATOM      7  C   UNL     1       5.729   5.214  17.027  0.00  0.00    +0.000 C 
ATOM      8  C   UNL     1       5.483   4.634  18.215  0.00  0.00    +0.000 C 
BRANCH   7   9
ATOM      9  C   UNL     1       6.944   6.067  16.796  0.00  0.00    +0.000 C 
BRANCH   9  11
ATOM     10  C   UNL     1       6.867   4.745  14.830  0.00  0.00    +0.000 C 
ATOM     11  O   UNL     1       7.609   5.689  15.594  0.00  0.00    +0.000 OA
ENDBRANCH   9  11
ENDBRANCH   7   9
ENDBRANCH   1   8
BRANCH   1  12
ATOM     12  O   UNL     1       5.052   2.774  19.456  0.00  0.00    +0.000 OA
ATOM     13  H   UNL     1       5.515   2.186  18.841  0.00  0.00    +0.000 HD
ENDBRANCH   1  12
BRANCH   6  14
ATOM     14  C   UNL     1       2.413   5.550  19.031  0.00  0.00    +0.000 C 
BRANCH  14  15
ATOM     15  C   UNL     1       2.455   6.877  19.823  0.00  0.00    +0.000 C 
BRANCH  15  16
ATOM     16  O   UNL     1       2.271   7.945  18.890  0.00  0.00    +0.000 OA
ATOM     17  C   UNL     1       3.054   7.780  17.717  0.00  0.00    +0.000 C 
ENDBRANCH  15  16
BRANCH  15  18
ATOM     18  O   UNL     1       1.420   6.905  20.810  0.00  0.00    +0.000 OA
ATOM     19  C   UNL     1       1.095   8.217  21.249  0.00  0.00    +0.000 C 
ENDBRANCH  15  18
ENDBRANCH  14  15
ENDBRANCH   6  14
TORSDOF 8
ENDMDL
MODEL 3
REMARK VINA RESULT:      -6.1      0.987      1.354
REMARK  Name = 
REMARK  11 active torsions:
REMARK  status: ('A' for Active; 'I' for Inactive)
REMARK    1  A    between atoms: C_1  and  O_2
REMARK    2  A    between atoms: O_2  and  C_3
REMARK    3  A    between atoms: C_3  and  C_4
REMARK    4  A    between atoms: C_5  and  C_6
REMARK    5  A    between atoms: C_6  and  O_7
REMARK    6  A    between atoms: C_12  and  C_13
REMARK    7  A    between atoms: C_13  and  C_14
REMARK    8  A    between atoms: C_14  and  O_15
REMARK    9  A    between atoms: C_14  and  O_17
REMARK   10  A    between atoms: O_15  and  C_16
REMARK   11  A    between atoms: O_17  and  C_18
REMARK                            x       y       z     vdW  Elec       q    Type
REMARK                         _______ _______ _______ _____ _____    ______ ____
ROOT
ATOM      1  C   UNL     1       6.049   4.862  15.910  0.00  0.00    +0.000 C 
ATOM      2  C   UNL     1       7.170   4.542  16.928  0.00  0.00    +0.000 C 
ATOM      3  C   UNL     1       7.193   5.481  18.136  0.00  0.00    +0.000 C 
ATOM      4  C   UNL     1       5.826   5.704  18.774  0.00  0.00    +0.000 C 
ATOM      5  C   UNL     1       4.725   5.984  17.749  0.00  0.00    +0.000 C 
ATOM      6  C   UNL     1       4.660   4.900  16.638  0.00  0.00    +0.000 C 
ENDROOT
BRANCH   1   8
ATOM      7  C   UNL     1       5.812   4.051  13.438  0.00  0.00    +0.000 C 
ATOM      8  C   UNL     1       6.270   3.987  14.700  0.00  0.00    +0.000 C 
BRANCH   7   9
ATOM      9  C   UNL     1       6.232   3.062  12.388  0.00  0.00    +0.000 C 
BRANCH   9  11
ATOM     10  C   UNL     1       4.141   3.415  11.329  0.00  0.00    +0.000 C 
ATOM     11  O   UNL     1       5.097   2.459  11.775  0.00  0.00    +0.000 OA
ENDBRANCH   9  11
ENDBRANCH   7   9
ENDBRANCH   1   8
BRANCH   1  12
ATOM     12  O   UNL     1       6.296   6.169  15.352  0.00  0.00    +0.000 OA
ATOM     13  H   UNL     1       5.611   6.785  15.650  0.00  0.00    +0.000 HD
ENDBRANCH   1  12
BRANCH   6  14
ATOM     14  C   UNL     1       4.207   3.538  17.244  0.00  0.00    +0.000 C 
BRANCH  14  15
ATOM     15  C   UNL     1       2.960   3.615  18.155  0.00  0.00    +0.000 C 
BRANCH  15  16
ATOM     16  O   UNL     1       1.972   2.735  17.612  0.00  0.00    +0.000 OA
ATOM     17  C   UNL     1       0.982   2.379  18.565  0.00  0.00    +0.000 C 
ENDBRANCH  15  16
BRANCH  15  18
ATOM     18  O   UNL     1       3.289   3.220  19.490  0.00  0.00    +0.000 OA
ATOM     19  C   UNL     1       4.490   2.465  19.574  0.00  0.00    +0.000 C 
ENDBRANCH  15  18
ENDBRANCH  14  15
ENDBRANCH   6  14
TORSDOF 8
ENDMDL
MODEL 4
REMARK VINA RESULT:      -6.0      1.216      1.392
REMARK  Name = 
REMARK  11 active torsions:
REMARK  status: ('A' for Active; 'I' for Inactive)
REMARK    1  A    between atoms: C_1  and  O_2
REMARK    2  A    between atoms: O_2  and  C_3
REMARK    3  A    between atoms: C_3  and  C_4
REMARK    4  A    between atoms: C_5  and  C_6
REMARK    5  A    between atoms: C_6  and  O_7
REMARK    6  A    between atoms: C_12  and  C_13
REMARK    7  A    between atoms: C_13  and  C_14
REMARK    8  A    between atoms: C_14  and  O_15
REMARK    9  A    between atoms: C_14  and  O_17
REMARK   10  A    between atoms: O_15  and  C_16
REMARK   11  A    between atoms: O_17  and  C_18
REMARK                            x       y       z     vdW  Elec       q    Type
REMARK                         _______ _______ _______ _____ _____    ______ ____
ROOT
ATOM      1  C   UNL     1       5.705   4.982  15.866  0.00  0.00    +0.000 C 
ATOM      2  C   UNL     1       6.847   4.216  16.577  0.00  0.00    +0.000 C 
ATOM      3  C   UNL     1       7.354   4.905  17.846  0.00  0.00    +0.000 C 
ATOM      4  C   UNL     1       6.245   5.369  18.785  0.00  0.00    +0.000 C 
ATOM      5  C   UNL     1       5.110   6.093  18.059  0.00  0.00    +0.000 C 
ATOM      6  C   UNL     1       4.538   5.262  16.876  0.00  0.00    +0.000 C 
ENDROOT
BRANCH   1   8
ATOM      7  C   UNL     1       6.252   3.958  13.526  0.00  0.00    +0.000 C 
ATOM      8  C   UNL     1       5.446   4.291  14.550  0.00  0.00    +0.000 C 
BRANCH   7   9
ATOM      9  C   UNL     1       5.744   3.213  12.324  0.00  0.00    +0.000 C 
BRANCH   9  11
ATOM     10  C   UNL     1       6.412   1.268  11.144  0.00  0.00    +0.000 C 
ATOM     11  O   UNL     1       6.806   2.535  11.660  0.00  0.00    +0.000 OA
ENDBRANCH   9  11
ENDBRANCH   7   9
ENDBRANCH   1   8
BRANCH   1  12
ATOM     12  O   UNL     1       6.217   6.252  15.414  0.00  0.00    +0.000 OA
ATOM     13  H   UNL     1       6.067   6.925  16.093  0.00  0.00    +0.000 HD
ENDBRANCH   1  12
BRANCH   6  14
ATOM     14  C   UNL     1       3.825   3.986  17.414  0.00  0.00    +0.000 C 
BRANCH  14  15
ATOM     15  C   UNL     1       2.447   4.239  18.068  0.00  0.00    +0.000 C 
BRANCH  15  16
ATOM     16  O   UNL     1       1.557   3.217  17.612  0.00  0.00    +0.000 OA
ATOM     17  C   UNL     1       1.282   2.250  18.614  0.00  0.00    +0.000 C 
ENDBRANCH  15  16
BRANCH  15  18
ATOM     18  O   UNL     1       2.553   4.195  19.494  0.00  0.00    +0.000 OA
ATOM     19  C   UNL     1       2.317   5.452  20.115  0.00  0.00    +0.000 C 
ENDBRANCH  15  18
ENDBRANCH  14  15
ENDBRANCH   6  14
TORSDOF 8
ENDMDL
MODEL 5
REMARK VINA RESULT:      -5.9      3.004      5.059
REMARK  Name = 
REMARK  11 active torsions:
REMARK  status: ('A' for Active; 'I' for Inactive)
REMARK    1  A    between atoms: C_1  and  O_2
REMARK    2  A    between atoms: O_2  and  C_3
REMARK    3  A    between atoms: C_3  and  C_4
REMARK    4  A    between atoms: C_5  and  C_6
REMARK    5  A    between atoms: C_6  and  O_7
REMARK    6  A    between atoms: C_12  and  C_13
REMARK    7  A    between atoms: C_13  and  C_14
REMARK    8  A    between atoms: C_14  and  O_15
REMARK    9  A    between atoms: C_14  and  O_17
REMARK   10  A    between atoms: O_15  and  C_16
REMARK   11  A    between atoms: O_17  and  C_18
REMARK                            x       y       z     vdW  Elec       q    Type
REMARK                         _______ _______ _______ _____ _____    ______ ____
ROOT
ATOM      1  C   UNL     1       4.300   3.698  18.810  0.00  0.00    +0.000 C 
ATOM      2  C   UNL     1       3.521   2.910  17.729  0.00  0.00    +0.000 C 
ATOM      3  C   UNL     1       2.498   1.926  18.300  0.00  0.00    +0.000 C 
ATOM      4  C   UNL     1       1.611   2.517  19.391  0.00  0.00    +0.000 C 
ATOM      5  C   UNL     1       2.395   3.320  20.430  0.00  0.00    +0.000 C 
ATOM      6  C   UNL     1       3.295   4.409  19.782  0.00  0.00    +0.000 C 
ENDROOT
BRANCH   1   8
ATOM      7  C   UNL     1       5.573   4.819  16.825  0.00  0.00    +0.000 C 
ATOM      8  C   UNL     1       5.388   4.475  18.111  0.00  0.00    +0.000 C 
BRANCH   7   9
ATOM      9  C   UNL     1       6.741   5.657  16.386  0.00  0.00    +0.000 C 
BRANCH   9  11
ATOM     10  C   UNL     1       7.568   7.548  17.552  0.00  0.00    +0.000 C 
ATOM     11  O   UNL     1       6.538   7.027  16.720  0.00  0.00    +0.000 OA
ENDBRANCH   9  11
ENDBRANCH   7   9
ENDBRANCH   1   8
BRANCH   1  12
ATOM     12  O   UNL     1       5.082   2.765  19.583  0.00  0.00    +0.000 OA
ATOM     13  H   UNL     1       4.493   2.171  20.072  0.00  0.00    +0.000 HD
ENDBRANCH   1  12
BRANCH   6  14
ATOM     14  C   UNL     1       2.412   5.506  19.116  0.00  0.00    +0.000 C 
BRANCH  14  15
ATOM     15  C   UNL     1       2.457   6.886  19.809  0.00  0.00    +0.000 C 
BRANCH  15  16
ATOM     16  O   UNL     1       2.272   7.884  18.801  0.00  0.00    +0.000 OA
ATOM     17  C   UNL     1       3.151   7.711  17.700  0.00  0.00    +0.000 C 
ENDBRANCH  15  16
BRANCH  15  18
ATOM     18  O   UNL     1       1.424   6.987  20.794  0.00  0.00    +0.000 OA
ATOM     19  C   UNL     1       1.181   8.320  21.222  0.00  0.00    +0.000 C 
ENDBRANCH  15  18
ENDBRANCH  14  15
ENDBRANCH   6  14
TORSDOF 8
ENDMDL
MODEL 6
REMARK VINA RESULT:      -5.9      2.864      6.122
REMARK  Name = 
REMARK  11 active torsions:
REMARK  status: ('A' for Active; 'I' for Inactive)
REMARK    1  A    between atoms: C_1  and  O_2
REMARK    2  A    between atoms: O_2  and  C_3
REMARK    3  A    between atoms: C_3  and  C_4
REMARK    4  A    between atoms: C_5  and  C_6
REMARK    5  A    between atoms: C_6  and  O_7
REMARK    6  A    between atoms: C_12  and  C_13
REMARK    7  A    between atoms: C_13  and  C_14
REMARK    8  A    between atoms: C_14  and  O_15
REMARK    9  A    between atoms: C_14  and  O_17
REMARK   10  A    between atoms: O_15  and  C_16
REMARK   11  A    between atoms: O_17  and  C_18
REMARK                            x       y       z     vdW  Elec       q    Type
REMARK                         _______ _______ _______ _____ _____    ______ ____
ROOT
ATOM      1  C   UNL     1       2.183   4.456  18.113  0.00  0.00    +0.000 C 
ATOM      2  C   UNL     1       1.783   4.126  19.572  0.00  0.00    +0.000 C 
ATOM      3  C   UNL     1       1.647   2.627  19.850  0.00  0.00    +0.000 C 
ATOM      4  C   UNL     1       2.811   1.791  19.324  0.00  0.00    +0.000 C 
ATOM      5  C   UNL     1       3.212   2.157  17.895  0.00  0.00    +0.000 C 
ATOM      6  C   UNL     1       3.487   3.677  17.726  0.00  0.00    +0.000 C 
ENDROOT
BRANCH   1   8
ATOM      7  C   UNL     1       2.553   6.978  18.681  0.00  0.00    +0.000 C 
ATOM      8  C   UNL     1       2.090   5.953  17.945  0.00  0.00    +0.000 C 
BRANCH   7   9
ATOM      9  C   UNL     1       2.365   8.409  18.258  0.00  0.00    +0.000 C 
BRANCH   9  11
ATOM     10  C   UNL     1       0.700  10.089  18.425  0.00  0.00    +0.000 C 
ATOM     11  O   UNL     1       1.426   9.068  19.102  0.00  0.00    +0.000 OA
ENDBRANCH   9  11
ENDBRANCH   7   9
ENDBRANCH   1   8
BRANCH   1  12
ATOM     12  O   UNL     1       1.125   4.016  17.238  0.00  0.00    +0.000 OA
ATOM     13  H   UNL     1       0.636   4.782  16.905  0.00  0.00    +0.000 HD
ENDBRANCH   1  12
BRANCH   6  14
ATOM     14  C   UNL     1       4.753   4.085  18.538  0.00  0.00    +0.000 C 
BRANCH  14  15
ATOM     15  C   UNL     1       5.918   4.643  17.689  0.00  0.00    +0.000 C 
BRANCH  15  16
ATOM     16  O   UNL     1       5.670   6.036  17.475  0.00  0.00    +0.000 OA
ATOM     17  C   UNL     1       5.330   6.325  16.128  0.00  0.00    +0.000 C 
ENDBRANCH  15  16
BRANCH  15  18
ATOM     18  O   UNL     1       7.164   4.466  18.369  0.00  0.00    +0.000 OA
ATOM     19  C   UNL     1       7.631   5.647  19.006  0.00  0.00    +0.000 C 
ENDBRANCH  15  18
ENDBRANCH  14  15
ENDBRANCH   6  14
TORSDOF 8
ENDMDL
MODEL 7
REMARK VINA RESULT:      -5.8      2.523      5.925
REMARK  Name = 
REMARK  11 active torsions:
REMARK  status: ('A' for Active; 'I' for Inactive)
REMARK    1  A    between atoms: C_1  and  O_2
REMARK    2  A    between atoms: O_2  and  C_3
REMARK    3  A    between atoms: C_3  and  C_4
REMARK    4  A    between atoms: C_5  and  C_6
REMARK    5  A    between atoms: C_6  and  O_7
REMARK    6  A    between atoms: C_12  and  C_13
REMARK    7  A    between atoms: C_13  and  C_14
REMARK    8  A    between atoms: C_14  and  O_15
REMARK    9  A    between atoms: C_14  and  O_17
REMARK   10  A    between atoms: O_15  and  C_16
REMARK   11  A    between atoms: O_17  and  C_18
REMARK                            x       y       z     vdW  Elec       q    Type
REMARK                         _______ _______ _______ _____ _____    ______ ____
ROOT
ATOM      1  C   UNL     1       2.217   4.613  18.291  0.00  0.00    +0.000 C 
ATOM      2  C   UNL     1       1.754   4.097  19.675  0.00  0.00    +0.000 C 
ATOM      3  C   UNL     1       1.488   2.590  19.714  0.00  0.00    +0.000 C 
ATOM      4  C   UNL     1       2.593   1.750  19.080  0.00  0.00    +0.000 C 
ATOM      5  C   UNL     1       3.061   2.296  17.730  0.00  0.00    +0.000 C 
ATOM      6  C   UNL     1       3.464   3.795  17.805  0.00  0.00    +0.000 C 
ENDROOT
BRANCH   1   8
ATOM      7  C   UNL     1       2.941   7.043  17.663  0.00  0.00    +0.000 C 
ATOM      8  C   UNL     1       2.252   6.120  18.358  0.00  0.00    +0.000 C 
BRANCH   7   9
ATOM      9  C   UNL     1       2.753   8.516  17.895  0.00  0.00    +0.000 C 
BRANCH   9  11
ATOM     10  C   UNL     1       0.886   9.773  18.640  0.00  0.00    +0.000 C 
ATOM     11  O   UNL     1       1.406   8.903  17.640  0.00  0.00    +0.000 OA
ENDBRANCH   9  11
ENDBRANCH   7   9
ENDBRANCH   1   8
BRANCH   1  12
ATOM     12  O   UNL     1       1.151   4.405  17.344  0.00  0.00    +0.000 OA
ATOM     13  H   UNL     1       0.530   5.147  17.382  0.00  0.00    +0.000 HD
ENDBRANCH   1  12
BRANCH   6  14
ATOM     14  C   UNL     1       4.736   3.964  18.688  0.00  0.00    +0.000 C 
BRANCH  14  15
ATOM     15  C   UNL     1       5.890   4.749  18.023  0.00  0.00    +0.000 C 
BRANCH  15  16
ATOM     16  O   UNL     1       7.071   4.521  18.795  0.00  0.00    +0.000 OA
ATOM     17  C   UNL     1       7.698   5.731  19.196  0.00  0.00    +0.000 C 
ENDBRANCH  15  16
BRANCH  15  18
ATOM     18  O   UNL     1       6.089   4.304  16.678  0.00  0.00    +0.000 OA
ATOM     19  C   UNL     1       6.098   5.363  15.729  0.00  0.00    +0.000 C 
ENDBRANCH  15  18
ENDBRANCH  14  15
ENDBRANCH   6  14
TORSDOF 8
ENDMDL
MODEL 8
REMARK VINA RESULT:      -5.8      1.067      1.796
REMARK  Name = 
REMARK  11 active torsions:
REMARK  status: ('A' for Active; 'I' for Inactive)
REMARK    1  A    between atoms: C_1  and  O_2
REMARK    2  A    between atoms: O_2  and  C_3
REMARK    3  A    between atoms: C_3  and  C_4
REMARK    4  A    between atoms: C_5  and  C_6
REMARK    5  A    between atoms: C_6  and  O_7
REMARK    6  A    between atoms: C_12  and  C_13
REMARK    7  A    between atoms: C_13  and  C_14
REMARK    8  A    between atoms: C_14  and  O_15
REMARK    9  A    between atoms: C_14  and  O_17
REMARK   10  A    between atoms: O_15  and  C_16
REMARK   11  A    between atoms: O_17  and  C_18
REMARK                            x       y       z     vdW  Elec       q    Type
REMARK                         _______ _______ _______ _____ _____    ______ ____
ROOT
ATOM      1  C   UNL     1       5.632   5.187  16.004  0.00  0.00    +0.000 C 
ATOM      2  C   UNL     1       6.872   4.508  16.633  0.00  0.00    +0.000 C 
ATOM      3  C   UNL     1       7.252   5.067  18.006  0.00  0.00    +0.000 C 
ATOM      4  C   UNL     1       6.073   5.208  18.965  0.00  0.00    +0.000 C 
ATOM      5  C   UNL     1       4.846   5.849  18.315  0.00  0.00    +0.000 C 
ATOM      6  C   UNL     1       4.425   5.128  17.004  0.00  0.00    +0.000 C 
ENDROOT
BRANCH   1   8
ATOM      7  C   UNL     1       6.190   3.755  13.892  0.00  0.00    +0.000 C 
ATOM      8  C   UNL     1       5.499   4.671  14.592  0.00  0.00    +0.000 C 
BRANCH   7   9
ATOM      9  C   UNL     1       5.815   3.380  12.486  0.00  0.00    +0.000 C 
BRANCH   9  11
ATOM     10  C   UNL     1       6.840   1.699  11.164  0.00  0.00    +0.000 C 
ATOM     11  O   UNL     1       6.966   2.996  11.739  0.00  0.00    +0.000 OA
ENDBRANCH   9  11
ENDBRANCH   7   9
ENDBRANCH   1   8
BRANCH   1  12
ATOM     12  O   UNL     1       5.942   6.574  15.762  0.00  0.00    +0.000 OA
ATOM     13  H   UNL     1       6.326   6.967  16.558  0.00  0.00    +0.000 HD
ENDBRANCH   1  12
BRANCH   6  14
ATOM     14  C   UNL     1       3.916   3.691  17.324  0.00  0.00    +0.000 C 
BRANCH  14  15
ATOM     15  C   UNL     1       3.066   3.573  18.610  0.00  0.00    +0.000 C 
BRANCH  15  16
ATOM     16  O   UNL     1       1.691   3.537  18.219  0.00  0.00    +0.000 OA
ATOM     17  C   UNL     1       0.828   3.221  19.301  0.00  0.00    +0.000 C 
ENDBRANCH  15  16
BRANCH  15  18
ATOM     18  O   UNL     1       3.403   2.383  19.327  0.00  0.00    +0.000 OA
ATOM     19  C   UNL     1       3.749   1.294  18.480  0.00  0.00    +0.000 C 
ENDBRANCH  15  18
ENDBRANCH  14  15
ENDBRANCH   6  14
TORSDOF 8
ENDMDL
MODEL 9
REMARK VINA RESULT:      -5.7      2.547      5.927
REMARK  Name = 
REMARK  11 active torsions:
REMARK  status: ('A' for Active; 'I' for Inactive)
REMARK    1  A    between atoms: C_1  and  O_2
REMARK    2  A    between atoms: O_2  and  C_3
REMARK    3  A    between atoms: C_3  and  C_4
REMARK    4  A    between atoms: C_5  and  C_6
REMARK    5  A    between atoms: C_6  and  O_7
REMARK    6  A    between atoms: C_12  and  C_13
REMARK    7  A    between atoms: C_13  and  C_14
REMARK    8  A    between atoms: C_14  and  O_15
REMARK    9  A    between atoms: C_14  and  O_17
REMARK   10  A    between atoms: O_15  and  C_16
REMARK   11  A    between atoms: O_17  and  C_18
REMARK                            x       y       z     vdW  Elec       q    Type
REMARK                         _______ _______ _______ _____ _____    ______ ____
ROOT
ATOM      1  C   UNL     1       2.667   4.646  17.995  0.00  0.00    +0.000 C 
ATOM      2  C   UNL     1       2.774   4.483  19.530  0.00  0.00    +0.000 C 
ATOM      3  C   UNL     1       2.789   3.026  19.997  0.00  0.00    +0.000 C 
ATOM      4  C   UNL     1       3.748   2.135  19.213  0.00  0.00    +0.000 C 
ATOM      5  C   UNL     1       3.651   2.336  17.700  0.00  0.00    +0.000 C 
ATOM      6  C   UNL     1       3.803   3.826  17.289  0.00  0.00    +0.000 C 
ENDROOT
BRANCH   1   8
ATOM      7  C   UNL     1       2.660   7.218  18.451  0.00  0.00    +0.000 C 
ATOM      8  C   UNL     1       2.472   6.114  17.706  0.00  0.00    +0.000 C 
BRANCH   7   9
ATOM      9  C   UNL     1       2.434   8.598  17.899  0.00  0.00    +0.000 C 
BRANCH   9  11
ATOM     10  C   UNL     1       1.222  10.472  18.698  0.00  0.00    +0.000 C 
ATOM     11  O   UNL     1       1.166   9.105  18.303  0.00  0.00    +0.000 OA
ENDBRANCH   9  11
ENDBRANCH   7   9
ENDBRANCH   1   8
BRANCH   1  12
ATOM     12  O   UNL     1       1.399   4.111  17.565  0.00  0.00    +0.000 OA
ATOM     13  H   UNL     1       0.713   4.790  17.647  0.00  0.00    +0.000 HD
ENDBRANCH   1  12
BRANCH   6  14
ATOM     14  C   UNL     1       5.247   4.322  17.595  0.00  0.00    +0.000 C 
BRANCH  14  15
ATOM     15  C   UNL     1       6.117   4.601  16.348  0.00  0.00    +0.000 C 
BRANCH  15  16
ATOM     16  O   UNL     1       7.473   4.730  16.784  0.00  0.00    +0.000 OA
ATOM     17  C   UNL     1       7.574   4.926  18.187  0.00  0.00    +0.000 C 
ENDBRANCH  15  16
BRANCH  15  18
ATOM     18  O   UNL     1       6.004   3.529  15.408  0.00  0.00    +0.000 OA
ATOM     19  C   UNL     1       6.122   3.950  14.056  0.00  0.00    +0.000 C 
ENDBRANCH  15  18
ENDBRANCH  14  15
ENDBRANCH   6  14
TORSDOF 8
ENDMDL
