MODEL 1
REMARK VINA RESULT:      -8.2      0.000      0.000
REMARK  Name = 
REMARK  9 active torsions:
REMARK  status: ('A' for Active; 'I' for Inactive)
REMARK    1  A    between atoms: C_1  and  C_2
REMARK    2  A    between atoms: C_7  and  O_8
REMARK    3  A    between atoms: C_10  and  O_11
REMARK    4  A    between atoms: O_11  and  C_12
REMARK    5  A    between atoms: C_12  and  C_13
REMARK    6  A    between atoms: C_13  and  N_14
REMARK    7  A    between atoms: C_24  and  O_25
REMARK    8  A    between atoms: C_26  and  O_27
REMARK    9  A    between atoms: C_32  and  C_33
REMARK                            x       y       z     vdW  Elec       q    Type
REMARK                         _______ _______ _______ _____ _____    ______ ____
ROOT
ATOM      1  C   UNL     1       6.333   4.902  19.037  0.00  0.00    +0.000 C 
ATOM      2  C   UNL     1       5.411   5.830  18.205  0.00  0.00    +0.000 C 
ATOM      3  O   UNL     1       4.216   6.236  19.013  0.00  0.00    +0.000 OA
ATOM      4  C   UNL     1       3.027   6.655  18.473  0.00  0.00    +0.000 C 
ATOM      5  O   UNL     1       2.666   6.520  17.309  0.00  0.00    +0.000 OA
ATOM      6  C   UNL     1       2.218   7.585  19.310  0.00  0.00    +0.000 A 
ATOM      7  C   UNL     1       2.059   8.887  18.807  0.00  0.00    +0.000 A 
ATOM      8  C   UNL     1       1.342   9.866  19.496  0.00  0.00    +0.000 A 
ATOM      9  C   UNL     1       0.715   9.555  20.698  0.00  0.00    +0.000 A 
ATOM     10  C   UNL     1       0.692   8.225  21.116  0.00  0.00    +0.000 A 
ATOM     11  C   UNL     1       1.406   7.228  20.405  0.00  0.00    +0.000 A 
ATOM     12  C   UNL     1       1.053   5.839  20.716  0.00  0.00    +0.000 C 
ATOM     13  C   UNL     1       1.970   4.942  21.107  0.00  0.00    +0.000 C 
ATOM     14  C   UNL     1       1.687   3.471  21.308  0.00  0.00    +0.000 C 
ATOM     15  C   UNL     1       2.688   2.556  20.549  0.00  0.00    +0.000 C 
ATOM     16  C   UNL     1       2.503   2.653  19.016  0.00  0.00    +0.000 C 
ATOM     17  C   UNL     1       3.642   1.978  18.231  0.00  0.00    +0.000 C 
ATOM     18  O   UNL     1       3.848   0.767  18.303  0.00  0.00    +0.000 OA
ATOM     19  C   UNL     1       4.573   2.833  17.432  0.00  0.00    +0.000 C 
ATOM     20  C   UNL     1       4.207   4.028  16.937  0.00  0.00    +0.000 C 
ATOM     21  C   UNL     1       5.195   5.170  16.801  0.00  0.00    +0.000 C 
ATOM     22  C   UNL     1       4.930   6.249  15.741  0.00  0.00    +0.000 C 
ENDROOT
BRANCH   7  23
ATOM     23  O   UNL     1       2.509   9.239  17.556  0.00  0.00    +0.000 OA
ATOM     24  H   UNL     1       2.244  10.174  17.403  0.00  0.00    +0.000 HD
ENDBRANCH   7  23
BRANCH  15  25
ATOM     25  O   UNL     1       4.020   2.856  20.975  0.00  0.00    +0.000 OA
ATOM     26  H   UNL     1       4.009   3.695  21.459  0.00  0.00    +0.000 HD
ENDBRANCH  15  25
BRANCH  16  27
ATOM     27  O   UNL     1       1.273   2.033  18.640  0.00  0.00    +0.000 OA
ATOM     28  H   UNL     1       1.041   2.412  17.768  0.00  0.00    +0.000 HD
ENDBRANCH  16  27
BRANCH   9  29
ATOM     29  O   UNL     1       0.079  10.593  21.321  0.00  0.00    +0.000 OA
BRANCH  29  30
ATOM     30  C   UNL     1      -0.774  10.253  22.428  0.00  0.00    +0.000 C 
BRANCH  30  31
ATOM     31  C   UNL     1      -1.137  11.542  23.165  0.00  0.00    +0.000 C 
BRANCH  31  32
ATOM     32  N   UNL     1      -2.446  12.042  22.817  0.00  0.00    +0.000 N 
ATOM     33  C   UNL     1      -2.843  12.606  21.634  0.00  0.00    +0.000 A 
ATOM     34  C   UNL     1      -4.187  12.838  21.823  0.00  0.00    +0.000 A 
ATOM     35  N   UNL     1      -4.549  12.418  23.082  0.00  0.00    +0.000 NA
ATOM     36  N   UNL     1      -3.467  11.930  23.673  0.00  0.00    +0.000 NA
ENDBRANCH  31  32
ENDBRANCH  30  31
ENDBRANCH  29  30
ENDBRANCH   9  29
TORSDOF 7
ENDMDL
MODEL 2
REMARK VINA RESULT:      -8.0      1.683      1.849
REMARK  Name = 
REMARK  9 active torsions:
REMARK  status: ('A' for Active; 'I' for Inactive)
REMARK    1  A    between atoms: C_1  and  C_2
REMARK    2  A    between atoms: C_7  and  O_8
REMARK    3  A    between atoms: C_10  and  O_11
REMARK    4  A    between atoms: O_11  and  C_12
REMARK    5  A    between atoms: C_12  and  C_13
REMARK    6  A    between atoms: C_13  and  N_14
REMARK    7  A    between atoms: C_24  and  O_25
REMARK    8  A    between atoms: C_26  and  O_27
REMARK    9  A    between atoms: C_32  and  C_33
REMARK                            x       y       z     vdW  Elec       q    Type
REMARK                         _______ _______ _______ _____ _____    ______ ____
ROOT
ATOM      1  C   UNL     1       6.346   4.939  18.972  0.00  0.00    +0.000 C 
ATOM      2  C   UNL     1       5.397   5.856  18.161  0.00  0.00    +0.000 C 
ATOM      3  O   UNL     1       4.209   6.240  18.989  0.00  0.00    +0.000 OA
ATOM      4  C   UNL     1       3.005   6.643  18.470  0.00  0.00    +0.000 C 
ATOM      5  O   UNL     1       2.628   6.508  17.311  0.00  0.00    +0.000 OA
ATOM      6  C   UNL     1       2.196   7.556  19.325  0.00  0.00    +0.000 A 
ATOM      7  C   UNL     1       2.009   8.858  18.831  0.00  0.00    +0.000 A 
ATOM      8  C   UNL     1       1.287   9.823  19.536  0.00  0.00    +0.000 A 
ATOM      9  C   UNL     1       0.685   9.497  20.746  0.00  0.00    +0.000 A 
ATOM     10  C   UNL     1       0.689   8.165  21.158  0.00  0.00    +0.000 A 
ATOM     11  C   UNL     1       1.407   7.182  20.431  0.00  0.00    +0.000 A 
ATOM     12  C   UNL     1       1.080   5.786  20.741  0.00  0.00    +0.000 C 
ATOM     13  C   UNL     1       2.017   4.902  21.113  0.00  0.00    +0.000 C 
ATOM     14  C   UNL     1       1.760   3.426  21.311  0.00  0.00    +0.000 C 
ATOM     15  C   UNL     1       2.762   2.530  20.532  0.00  0.00    +0.000 C 
ATOM     16  C   UNL     1       2.552   2.631  19.003  0.00  0.00    +0.000 C 
ATOM     17  C   UNL     1       3.688   1.977  18.196  0.00  0.00    +0.000 C 
ATOM     18  O   UNL     1       3.914   0.769  18.259  0.00  0.00    +0.000 OA
ATOM     19  C   UNL     1       4.593   2.850  17.386  0.00  0.00    +0.000 C 
ATOM     20  C   UNL     1       4.200   4.042  16.903  0.00  0.00    +0.000 C 
ATOM     21  C   UNL     1       5.168   5.199  16.757  0.00  0.00    +0.000 C 
ATOM     22  C   UNL     1       4.870   6.279  15.706  0.00  0.00    +0.000 C 
ENDROOT
BRANCH   7  23
ATOM     23  O   UNL     1       2.433   9.223  17.575  0.00  0.00    +0.000 OA
ATOM     24  H   UNL     1       2.180   8.498  16.960  0.00  0.00    +0.000 HD
ENDBRANCH   7  23
BRANCH  15  25
ATOM     25  O   UNL     1       4.096   2.849  20.938  0.00  0.00    +0.000 OA
ATOM     26  H   UNL     1       4.332   2.291  21.695  0.00  0.00    +0.000 HD
ENDBRANCH  15  25
BRANCH  16  27
ATOM     27  O   UNL     1       1.326   1.994  18.643  0.00  0.00    +0.000 OA
ATOM     28  H   UNL     1       1.399   1.075  18.970  0.00  0.00    +0.000 HD
ENDBRANCH  16  27
BRANCH   9  29
ATOM     29  O   UNL     1       0.043  10.522  21.384  0.00  0.00    +0.000 OA
BRANCH  29  30
ATOM     30  C   UNL     1      -0.012  11.778  20.686  0.00  0.00    +0.000 C 
BRANCH  30  31
ATOM     31  C   UNL     1      -1.473  12.223  20.621  0.00  0.00    +0.000 C 
BRANCH  31  32
ATOM     32  N   UNL     1      -2.087  11.961  19.341  0.00  0.00    +0.000 N 
ATOM     33  C   UNL     1      -1.466  11.694  18.150  0.00  0.00    +0.000 A 
ATOM     34  C   UNL     1      -2.513  11.462  17.286  0.00  0.00    +0.000 A 
ATOM     35  N   UNL     1      -3.702  11.594  17.965  0.00  0.00    +0.000 NA
ATOM     36  N   UNL     1      -3.418  11.898  19.224  0.00  0.00    +0.000 NA
ENDBRANCH  31  32
ENDBRANCH  30  31
ENDBRANCH  29  30
ENDBRANCH   9  29
TORSDOF 7
ENDMDL
MODEL 3
REMARK VINA RESULT:      -7.9      0.843      1.160
REMARK  Name = 
REMARK  9 active torsions:
REMARK  status: ('A' for Active; 'I' for Inactive)
REMARK    1  A    between atoms: C_1  and  C_2
REMARK    2  A    between atoms: C_7  and  O_8
REMARK    3  A    between atoms: C_10  and  O_11
REMARK    4  A    between atoms: O_11  and  C_12
REMARK    5  A    between atoms: C_12  and  C_13
REMARK    6  A    between atoms: C_13  and  N_14
REMARK    7  A    between atoms: C_24  and  O_25
REMARK    8  A    between atoms: C_26  and  O_27
REMARK    9  A    between atoms: C_32  and  C_33
REMARK                            x       y       z     vdW  Elec       q    Type
REMARK                         _______ _______ _______ _____ _____    ______ ____
ROOT
ATOM      1  C   UNL     1       6.351   4.948  18.956  0.00  0.00    +0.000 C 
ATOM      2  C   UNL     1       5.404   5.885  18.164  0.00  0.00    +0.000 C 
ATOM      3  O   UNL     1       4.215   6.249  18.999  0.00  0.00    +0.000 OA
ATOM      4  C   UNL     1       3.012   6.666  18.486  0.00  0.00    +0.000 C 
ATOM      5  O   UNL     1       2.639   6.560  17.324  0.00  0.00    +0.000 OA
ATOM      6  C   UNL     1       2.201   7.558  19.362  0.00  0.00    +0.000 A 
ATOM      7  C   UNL     1       2.017   8.872  18.900  0.00  0.00    +0.000 A 
ATOM      8  C   UNL     1       1.294   9.820  19.627  0.00  0.00    +0.000 A 
ATOM      9  C   UNL     1       0.688   9.464  20.827  0.00  0.00    +0.000 A 
ATOM     10  C   UNL     1       0.690   8.122  21.206  0.00  0.00    +0.000 A 
ATOM     11  C   UNL     1       1.409   7.157  20.456  0.00  0.00    +0.000 A 
ATOM     12  C   UNL     1       1.081   5.754  20.730  0.00  0.00    +0.000 C 
ATOM     13  C   UNL     1       2.016   4.860  21.082  0.00  0.00    +0.000 C 
ATOM     14  C   UNL     1       1.757   3.380  21.242  0.00  0.00    +0.000 C 
ATOM     15  C   UNL     1       2.761   2.503  20.444  0.00  0.00    +0.000 C 
ATOM     16  C   UNL     1       2.555   2.643  18.918  0.00  0.00    +0.000 C 
ATOM     17  C   UNL     1       3.693   2.008  18.098  0.00  0.00    +0.000 C 
ATOM     18  O   UNL     1       3.918   0.798  18.131  0.00  0.00    +0.000 OA
ATOM     19  C   UNL     1       4.601   2.900  17.313  0.00  0.00    +0.000 C 
ATOM     20  C   UNL     1       4.211   4.104  16.859  0.00  0.00    +0.000 C 
ATOM     21  C   UNL     1       5.180   5.264  16.744  0.00  0.00    +0.000 C 
ATOM     22  C   UNL     1       4.885   6.370  15.720  0.00  0.00    +0.000 C 
ENDROOT
BRANCH   7  23
ATOM     23  O   UNL     1       2.445   9.268  17.654  0.00  0.00    +0.000 OA
ATOM     24  H   UNL     1       2.472   8.464  17.087  0.00  0.00    +0.000 HD
ENDBRANCH   7  23
BRANCH  15  25
ATOM     25  O   UNL     1       4.094   2.810  20.862  0.00  0.00    +0.000 OA
ATOM     26  H   UNL     1       4.703   2.186  20.440  0.00  0.00    +0.000 HD
ENDBRANCH  15  25
BRANCH  16  27
ATOM     27  O   UNL     1       1.330   2.016  18.539  0.00  0.00    +0.000 OA
ATOM     28  H   UNL     1       1.557   1.413  17.802  0.00  0.00    +0.000 HD
ENDBRANCH  16  27
BRANCH   9  29
ATOM     29  O   UNL     1       0.045  10.473  21.489  0.00  0.00    +0.000 OA
BRANCH  29  30
ATOM     30  C   UNL     1      -0.391  10.187  22.829  0.00  0.00    +0.000 C 
BRANCH  30  31
ATOM     31  C   UNL     1      -1.572  11.102  23.151  0.00  0.00    +0.000 C 
BRANCH  31  32
ATOM     32  N   UNL     1      -1.378  12.458  22.695  0.00  0.00    +0.000 N 
ATOM     33  C   UNL     1      -2.113  13.146  21.767  0.00  0.00    +0.000 A 
ATOM     34  C   UNL     1      -1.540  14.398  21.766  0.00  0.00    +0.000 A 
ATOM     35  N   UNL     1      -0.503  14.425  22.669  0.00  0.00    +0.000 NA
ATOM     36  N   UNL     1      -0.423  13.226  23.230  0.00  0.00    +0.000 NA
ENDBRANCH  31  32
ENDBRANCH  30  31
ENDBRANCH  29  30
ENDBRANCH   9  29
TORSDOF 7
ENDMDL
MODEL 4
REMARK VINA RESULT:      -7.8      1.959      2.543
REMARK  Name = 
REMARK  9 active torsions:
REMARK  status: ('A' for Active; 'I' for Inactive)
REMARK    1  A    between atoms: C_1  and  C_2
REMARK    2  A    between atoms: C_7  and  O_8
REMARK    3  A    between atoms: C_10  and  O_11
REMARK    4  A    between atoms: O_11  and  C_12
REMARK    5  A    between atoms: C_12  and  C_13
REMARK    6  A    between atoms: C_13  and  N_14
REMARK    7  A    between atoms: C_24  and  O_25
REMARK    8  A    between atoms: C_26  and  O_27
REMARK    9  A    between atoms: C_32  and  C_33
REMARK                            x       y       z     vdW  Elec       q    Type
REMARK                         _______ _______ _______ _____ _____    ______ ____
ROOT
ATOM      1  C   UNL     1       6.333   4.962  18.957  0.00  0.00    +0.000 C 
ATOM      2  C   UNL     1       5.387   5.907  18.174  0.00  0.00    +0.000 C 
ATOM      3  O   UNL     1       4.197   6.263  19.010  0.00  0.00    +0.000 OA
ATOM      4  C   UNL     1       2.995   6.685  18.501  0.00  0.00    +0.000 C 
ATOM      5  O   UNL     1       2.622   6.590  17.337  0.00  0.00    +0.000 OA
ATOM      6  C   UNL     1       2.183   7.569  19.384  0.00  0.00    +0.000 A 
ATOM      7  C   UNL     1       1.999   8.887  18.935  0.00  0.00    +0.000 A 
ATOM      8  C   UNL     1       1.276   9.828  19.670  0.00  0.00    +0.000 A 
ATOM      9  C   UNL     1       0.669   9.461  20.866  0.00  0.00    +0.000 A 
ATOM     10  C   UNL     1       0.671   8.116  21.232  0.00  0.00    +0.000 A 
ATOM     11  C   UNL     1       1.390   7.157  20.474  0.00  0.00    +0.000 A 
ATOM     12  C   UNL     1       1.061   5.752  20.735  0.00  0.00    +0.000 C 
ATOM     13  C   UNL     1       1.996   4.855  21.079  0.00  0.00    +0.000 C 
ATOM     14  C   UNL     1       1.737   3.373  21.226  0.00  0.00    +0.000 C 
ATOM     15  C   UNL     1       2.742   2.504  20.420  0.00  0.00    +0.000 C 
ATOM     16  C   UNL     1       2.536   2.658  18.895  0.00  0.00    +0.000 C 
ATOM     17  C   UNL     1       3.675   2.030  18.070  0.00  0.00    +0.000 C 
ATOM     18  O   UNL     1       3.899   0.821  18.092  0.00  0.00    +0.000 OA
ATOM     19  C   UNL     1       4.583   2.930  17.294  0.00  0.00    +0.000 C 
ATOM     20  C   UNL     1       4.194   4.138  16.851  0.00  0.00    +0.000 C 
ATOM     21  C   UNL     1       5.163   5.299  16.747  0.00  0.00    +0.000 C 
ATOM     22  C   UNL     1       4.869   6.414  15.733  0.00  0.00    +0.000 C 
ENDROOT
BRANCH   7  23
ATOM     23  O   UNL     1       2.428   9.294  17.693  0.00  0.00    +0.000 OA
ATOM     24  H   UNL     1       2.764  10.214  17.788  0.00  0.00    +0.000 HD
ENDBRANCH   7  23
BRANCH  15  25
ATOM     25  O   UNL     1       4.074   2.807  20.841  0.00  0.00    +0.000 OA
ATOM     26  H   UNL     1       4.140   2.656  21.796  0.00  0.00    +0.000 HD
ENDBRANCH  15  25
BRANCH  16  27
ATOM     27  O   UNL     1       1.311   2.034  18.509  0.00  0.00    +0.000 OA
ATOM     28  H   UNL     1       1.567   1.210  18.047  0.00  0.00    +0.000 HD
ENDBRANCH  16  27
BRANCH   9  29
ATOM     29  O   UNL     1       0.026  10.465  21.537  0.00  0.00    +0.000 OA
BRANCH  29  30
ATOM     30  C   UNL     1      -0.629  11.458  20.730  0.00  0.00    +0.000 C 
BRANCH  30  31
ATOM     31  C   UNL     1      -0.188  12.837  21.220  0.00  0.00    +0.000 C 
BRANCH  31  32
ATOM     32  N   UNL     1       1.069  13.263  20.651  0.00  0.00    +0.000 N 
ATOM     33  C   UNL     1       1.331  13.602  19.350  0.00  0.00    +0.000 A 
ATOM     34  C   UNL     1       2.653  13.987  19.378  0.00  0.00    +0.000 A 
ATOM     35  N   UNL     1       3.135  13.870  20.661  0.00  0.00    +0.000 NA
ATOM     36  N   UNL     1       2.147  13.428  21.426  0.00  0.00    +0.000 NA
ENDBRANCH  31  32
ENDBRANCH  30  31
ENDBRANCH  29  30
ENDBRANCH   9  29
TORSDOF 7
ENDMDL
MODEL 5
REMARK VINA RESULT:      -7.4      4.496     10.719
REMARK  Name = 
REMARK  9 active torsions:
REMARK  status: ('A' for Active; 'I' for Inactive)
REMARK    1  A    between atoms: C_1  and  C_2
REMARK    2  A    between atoms: C_7  and  O_8
REMARK    3  A    between atoms: C_10  and  O_11
REMARK    4  A    between atoms: O_11  and  C_12
REMARK    5  A    between atoms: C_12  and  C_13
REMARK    6  A    between atoms: C_13  and  N_14
REMARK    7  A    between atoms: C_24  and  O_25
REMARK    8  A    between atoms: C_26  and  O_27
REMARK    9  A    between atoms: C_32  and  C_33
REMARK                            x       y       z     vdW  Elec       q    Type
REMARK                         _______ _______ _______ _____ _____    ______ ____
ROOT
ATOM      1  C   UNL     1      -3.260  15.779  20.796  0.00  0.00    +0.000 C 
ATOM      2  C   UNL     1      -2.403  14.669  21.455  0.00  0.00    +0.000 C 
ATOM      3  O   UNL     1      -2.185  13.541  20.494  0.00  0.00    +0.000 OA
ATOM      4  C   UNL     1      -1.879  12.257  20.869  0.00  0.00    +0.000 C 
ATOM      5  O   UNL     1      -1.991  11.778  21.992  0.00  0.00    +0.000 OA
ATOM      6  C   UNL     1      -1.098  11.455  19.885  0.00  0.00    +0.000 A 
ATOM      7  C   UNL     1       0.203  11.096  20.278  0.00  0.00    +0.000 A 
ATOM      8  C   UNL     1       1.052  10.361  19.448  0.00  0.00    +0.000 A 
ATOM      9  C   UNL     1       0.604   9.919  18.208  0.00  0.00    +0.000 A 
ATOM     10  C   UNL     1      -0.741  10.092  17.881  0.00  0.00    +0.000 A 
ATOM     11  C   UNL     1      -1.607  10.822  18.734  0.00  0.00    +0.000 A 
ATOM     12  C   UNL     1      -3.043  10.664  18.481  0.00  0.00    +0.000 C 
ATOM     13  C   UNL     1      -3.846  11.714  18.256  0.00  0.00    +0.000 C 
ATOM     14  C   UNL     1      -5.349  11.620  18.126  0.00  0.00    +0.000 C 
ATOM     15  C   UNL     1      -6.097  12.619  19.051  0.00  0.00    +0.000 C 
ATOM     16  C   UNL     1      -5.938  12.245  20.544  0.00  0.00    +0.000 C 
ATOM     17  C   UNL     1      -6.431  13.351  21.495  0.00  0.00    +0.000 C 
ATOM     18  O   UNL     1      -7.612  13.695  21.529  0.00  0.00    +0.000 OA
ATOM     19  C   UNL     1      -5.431  14.081  22.333  0.00  0.00    +0.000 C 
ATOM     20  C   UNL     1      -4.261  13.529  22.701  0.00  0.00    +0.000 C 
ATOM     21  C   UNL     1      -3.006  14.362  22.868  0.00  0.00    +0.000 C 
ATOM     22  C   UNL     1      -1.908  13.857  23.817  0.00  0.00    +0.000 C 
ENDROOT
BRANCH   7  23
ATOM     23  O   UNL     1       0.673  11.353  21.544  0.00  0.00    +0.000 OA
ATOM     24  H   UNL     1       0.291  10.670  22.141  0.00  0.00    +0.000 HD
ENDBRANCH   7  23
BRANCH  15  25
ATOM     25  O   UNL     1      -5.667  13.951  18.756  0.00  0.00    +0.000 OA
ATOM     26  H   UNL     1      -6.448  14.517  18.671  0.00  0.00    +0.000 HD
ENDBRANCH  15  25
BRANCH  16  27
ATOM     27  O   UNL     1      -6.676  11.055  20.822  0.00  0.00    +0.000 OA
ATOM     28  H   UNL     1      -6.821  11.053  21.790  0.00  0.00    +0.000 HD
ENDBRANCH  16  27
BRANCH   9  29
ATOM     29  O   UNL     1       1.525   9.251  17.449  0.00  0.00    +0.000 OA
BRANCH  29  30
ATOM     30  C   UNL     1       2.584   8.588  18.161  0.00  0.00    +0.000 C 
BRANCH  30  31
ATOM     31  C   UNL     1       2.272   7.092  18.195  0.00  0.00    +0.000 C 
BRANCH  31  32
ATOM     32  N   UNL     1       3.452   6.272  18.334  0.00  0.00    +0.000 N 
ATOM     33  C   UNL     1       3.769   5.423  19.362  0.00  0.00    +0.000 A 
ATOM     34  C   UNL     1       4.956   4.857  18.956  0.00  0.00    +0.000 A 
ATOM     35  N   UNL     1       5.310   5.368  17.729  0.00  0.00    +0.000 NA
ATOM     36  N   UNL     1       4.372   6.232  17.366  0.00  0.00    +0.000 NA
ENDBRANCH  31  32
ENDBRANCH  30  31
ENDBRANCH  29  30
ENDBRANCH   9  29
TORSDOF 7
ENDMDL
MODEL 6
REMARK VINA RESULT:      -7.3      4.184     10.402
REMARK  Name = 
REMARK  9 active torsions:
REMARK  status: ('A' for Active; 'I' for Inactive)
REMARK    1  A    between atoms: C_1  and  C_2
REMARK    2  A    between atoms: C_7  and  O_8
REMARK    3  A    between atoms: C_10  and  O_11
REMARK    4  A    between atoms: O_11  and  C_12
REMARK    5  A    between atoms: C_12  and  C_13
REMARK    6  A    between atoms: C_13  and  N_14
REMARK    7  A    between atoms: C_24  and  O_25
REMARK    8  A    between atoms: C_26  and  O_27
REMARK    9  A    between atoms: C_32  and  C_33
REMARK                            x       y       z     vdW  Elec       q    Type
REMARK                         _______ _______ _______ _____ _____    ______ ____
ROOT
ATOM      1  C   UNL     1      -3.246  15.768  20.693  0.00  0.00    +0.000 C 
ATOM      2  C   UNL     1      -2.372  14.682  21.370  0.00  0.00    +0.000 C 
ATOM      3  O   UNL     1      -2.141  13.539  20.430  0.00  0.00    +0.000 OA
ATOM      4  C   UNL     1      -1.817  12.267  20.829  0.00  0.00    +0.000 C 
ATOM      5  O   UNL     1      -1.920  11.809  21.961  0.00  0.00    +0.000 OA
ATOM      6  C   UNL     1      -1.027  11.457  19.858  0.00  0.00    +0.000 A 
ATOM      7  C   UNL     1       0.279  11.123  20.254  0.00  0.00    +0.000 A 
ATOM      8  C   UNL     1       1.136  10.385  19.436  0.00  0.00    +0.000 A 
ATOM      9  C   UNL     1       0.691   9.913  18.206  0.00  0.00    +0.000 A 
ATOM     10  C   UNL     1      -0.657  10.061  17.880  0.00  0.00    +0.000 A 
ATOM     11  C   UNL     1      -1.531  10.796  18.721  0.00  0.00    +0.000 A 
ATOM     12  C   UNL     1      -2.965  10.612  18.475  0.00  0.00    +0.000 C 
ATOM     13  C   UNL     1      -3.783  11.647  18.233  0.00  0.00    +0.000 C 
ATOM     14  C   UNL     1      -5.285  11.530  18.108  0.00  0.00    +0.000 C 
ATOM     15  C   UNL     1      -6.044  12.536  19.017  0.00  0.00    +0.000 C 
ATOM     16  C   UNL     1      -5.876  12.193  20.516  0.00  0.00    +0.000 C 
ATOM     17  C   UNL     1      -6.382  13.310  21.447  0.00  0.00    +0.000 C 
ATOM     18  O   UNL     1      -7.567  13.639  21.478  0.00  0.00    +0.000 OA
ATOM     19  C   UNL     1      -5.389  14.069  22.268  0.00  0.00    +0.000 C 
ATOM     20  C   UNL     1      -4.211  13.541  22.643  0.00  0.00    +0.000 C 
ATOM     21  C   UNL     1      -2.967  14.395  22.791  0.00  0.00    +0.000 C 
ATOM     22  C   UNL     1      -1.861  13.922  23.745  0.00  0.00    +0.000 C 
ENDROOT
BRANCH   7  23
ATOM     23  O   UNL     1       0.749  11.411  21.514  0.00  0.00    +0.000 OA
ATOM     24  H   UNL     1      -0.032  11.611  22.078  0.00  0.00    +0.000 HD
ENDBRANCH   7  23
BRANCH  15  25
ATOM     25  O   UNL     1      -5.633  13.868  18.695  0.00  0.00    +0.000 OA
ATOM     26  H   UNL     1      -5.688  13.986  17.735  0.00  0.00    +0.000 HD
ENDBRANCH  15  25
BRANCH  16  27
ATOM     27  O   UNL     1      -6.597  10.999  20.819  0.00  0.00    +0.000 OA
ATOM     28  H   UNL     1      -6.394  10.797  21.755  0.00  0.00    +0.000 HD
ENDBRANCH  16  27
BRANCH   9  29
ATOM     29  O   UNL     1       1.619   9.243  17.457  0.00  0.00    +0.000 OA
BRANCH  29  30
ATOM     30  C   UNL     1       2.644   8.542  18.183  0.00  0.00    +0.000 C 
BRANCH  30  31
ATOM     31  C   UNL     1       2.688   7.101  17.674  0.00  0.00    +0.000 C 
BRANCH  31  32
ATOM     32  N   UNL     1       2.302   6.137  18.677  0.00  0.00    +0.000 N 
ATOM     33  C   UNL     1       2.080   4.795  18.511  0.00  0.00    +0.000 A 
ATOM     34  C   UNL     1       1.807   4.354  19.786  0.00  0.00    +0.000 A 
ATOM     35  N   UNL     1       1.869   5.415  20.659  0.00  0.00    +0.000 NA
ATOM     36  N   UNL     1       2.177   6.498  19.958  0.00  0.00    +0.000 NA
ENDBRANCH  31  32
ENDBRANCH  30  31
ENDBRANCH  29  30
ENDBRANCH   9  29
TORSDOF 7
ENDMDL
MODEL 7
REMARK VINA RESULT:      -7.1      4.679     11.772
REMARK  Name = 
REMARK  9 active torsions:
REMARK  status: ('A' for Active; 'I' for Inactive)
REMARK    1  A    between atoms: C_1  and  C_2
REMARK    2  A    between atoms: C_7  and  O_8
REMARK    3  A    between atoms: C_10  and  O_11
REMARK    4  A    between atoms: O_11  and  C_12
REMARK    5  A    between atoms: C_12  and  C_13
REMARK    6  A    between atoms: C_13  and  N_14
REMARK    7  A    between atoms: C_24  and  O_25
REMARK    8  A    between atoms: C_26  and  O_27
REMARK    9  A    between atoms: C_32  and  C_33
REMARK                            x       y       z     vdW  Elec       q    Type
REMARK                         _______ _______ _______ _____ _____    ______ ____
ROOT
ATOM      1  C   UNL     1      -6.476  12.674  23.980  0.00  0.00    +0.000 C 
ATOM      2  C   UNL     1      -6.302  12.917  22.459  0.00  0.00    +0.000 C 
ATOM      3  O   UNL     1      -4.869  12.738  22.063  0.00  0.00    +0.000 OA
ATOM      4  C   UNL     1      -4.303  13.296  20.944  0.00  0.00    +0.000 C 
ATOM      5  O   UNL     1      -4.772  14.201  20.264  0.00  0.00    +0.000 OA
ATOM      6  C   UNL     1      -3.148  12.559  20.358  0.00  0.00    +0.000 A 
ATOM      7  C   UNL     1      -3.351  12.009  19.082  0.00  0.00    +0.000 A 
ATOM      8  C   UNL     1      -2.362  11.279  18.421  0.00  0.00    +0.000 A 
ATOM      9  C   UNL     1      -1.110  11.116  19.005  0.00  0.00    +0.000 A 
ATOM     10  C   UNL     1      -0.820  11.816  20.175  0.00  0.00    +0.000 A 
ATOM     11  C   UNL     1      -1.822  12.573  20.835  0.00  0.00    +0.000 A 
ATOM     12  C   UNL     1      -1.348  13.526  21.845  0.00  0.00    +0.000 C 
ATOM     13  C   UNL     1      -1.799  13.508  23.108  0.00  0.00    +0.000 C 
ATOM     14  C   UNL     1      -1.450  14.545  24.149  0.00  0.00    +0.000 C 
ATOM     15  C   UNL     1      -2.701  15.139  24.852  0.00  0.00    +0.000 C 
ATOM     16  C   UNL     1      -3.542  16.007  23.886  0.00  0.00    +0.000 C 
ATOM     17  C   UNL     1      -4.918  16.386  24.463  0.00  0.00    +0.000 C 
ATOM     18  O   UNL     1      -5.027  17.091  25.466  0.00  0.00    +0.000 OA
ATOM     19  C   UNL     1      -6.147  15.809  23.837  0.00  0.00    +0.000 C 
ATOM     20  C   UNL     1      -6.186  15.423  22.549  0.00  0.00    +0.000 C 
ATOM     21  C   UNL     1      -7.035  14.253  22.094  0.00  0.00    +0.000 C 
ATOM     22  C   UNL     1      -7.513  14.216  20.635  0.00  0.00    +0.000 C 
ENDROOT
BRANCH   7  23
ATOM     23  O   UNL     1      -4.499  12.253  18.364  0.00  0.00    +0.000 OA
ATOM     24  H   UNL     1      -4.758  13.186  18.536  0.00  0.00    +0.000 HD
ENDBRANCH   7  23
BRANCH  15  25
ATOM     25  O   UNL     1      -3.452  14.081  25.454  0.00  0.00    +0.000 OA
ATOM     26  H   UNL     1      -3.138  13.236  25.099  0.00  0.00    +0.000 HD
ENDBRANCH  15  25
BRANCH  16  27
ATOM     27  O   UNL     1      -2.838  17.212  23.586  0.00  0.00    +0.000 OA
ATOM     28  H   UNL     1      -1.913  17.056  23.868  0.00  0.00    +0.000 HD
ENDBRANCH  16  27
BRANCH   9  29
ATOM     29  O   UNL     1      -0.225  10.345  18.303  0.00  0.00    +0.000 OA
BRANCH  29  30
ATOM     30  C   UNL     1       0.884   9.806  19.043  0.00  0.00    +0.000 C 
BRANCH  30  31
ATOM     31  C   UNL     1       1.930   9.314  18.044  0.00  0.00    +0.000 C 
BRANCH  31  32
ATOM     32  N   UNL     1       2.480   8.024  18.390  0.00  0.00    +0.000 N 
ATOM     33  C   UNL     1       3.373   7.272  17.675  0.00  0.00    +0.000 A 
ATOM     34  C   UNL     1       3.600   6.183  18.487  0.00  0.00    +0.000 A 
ATOM     35  N   UNL     1       2.855   6.309  19.637  0.00  0.00    +0.000 NA
ATOM     36  N   UNL     1       2.178   7.446  19.558  0.00  0.00    +0.000 NA
ENDBRANCH  31  32
ENDBRANCH  30  31
ENDBRANCH  29  30
ENDBRANCH   9  29
TORSDOF 7
ENDMDL
MODEL 8
REMARK VINA RESULT:      -6.9      9.059     11.075
REMARK  Name = 
REMARK  9 active torsions:
REMARK  status: ('A' for Active; 'I' for Inactive)
REMARK    1  A    between atoms: C_1  and  C_2
REMARK    2  A    between atoms: C_7  and  O_8
REMARK    3  A    between atoms: C_10  and  O_11
REMARK    4  A    between atoms: O_11  and  C_12
REMARK    5  A    between atoms: C_12  and  C_13
REMARK    6  A    between atoms: C_13  and  N_14
REMARK    7  A    between atoms: C_24  and  O_25
REMARK    8  A    between atoms: C_26  and  O_27
REMARK    9  A    between atoms: C_32  and  C_33
REMARK                            x       y       z     vdW  Elec       q    Type
REMARK                         _______ _______ _______ _____ _____    ______ ____
ROOT
ATOM      1  C   UNL     1       8.886  12.091  17.685  0.00  0.00    +0.000 C 
ATOM      2  C   UNL     1       9.455  12.046  19.126  0.00  0.00    +0.000 C 
ATOM      3  O   UNL     1       8.535  12.754  20.072  0.00  0.00    +0.000 OA
ATOM      4  C   UNL     1       8.925  13.280  21.278  0.00  0.00    +0.000 C 
ATOM      5  O   UNL     1      10.076  13.490  21.644  0.00  0.00    +0.000 OA
ATOM      6  C   UNL     1       7.873  13.359  22.329  0.00  0.00    +0.000 A 
ATOM      7  C   UNL     1       8.067  12.544  23.458  0.00  0.00    +0.000 A 
ATOM      8  C   UNL     1       7.152  12.504  24.511  0.00  0.00    +0.000 A 
ATOM      9  C   UNL     1       6.027  13.322  24.489  0.00  0.00    +0.000 A 
ATOM     10  C   UNL     1       5.915  14.279  23.480  0.00  0.00    +0.000 A 
ATOM     11  C   UNL     1       6.856  14.331  22.421  0.00  0.00    +0.000 A 
ATOM     12  C   UNL     1       6.849  15.555  21.614  0.00  0.00    +0.000 C 
ATOM     13  C   UNL     1       6.701  15.529  20.281  0.00  0.00    +0.000 C 
ATOM     14  C   UNL     1       6.823  16.742  19.389  0.00  0.00    +0.000 C 
ATOM     15  C   UNL     1       7.802  16.523  18.203  0.00  0.00    +0.000 C 
ATOM     16  C   UNL     1       9.267  16.402  18.685  0.00  0.00    +0.000 C 
ATOM     17  C   UNL     1      10.224  15.918  17.580  0.00  0.00    +0.000 C 
ATOM     18  O   UNL     1      10.431  16.583  16.566  0.00  0.00    +0.000 OA
ATOM     19  C   UNL     1      10.846  14.564  17.707  0.00  0.00    +0.000 C 
ATOM     20  C   UNL     1      11.048  13.973  18.899  0.00  0.00    +0.000 C 
ATOM     21  C   UNL     1      10.963  12.470  19.066  0.00  0.00    +0.000 C 
ATOM     22  C   UNL     1      11.746  11.812  20.212  0.00  0.00    +0.000 C 
ENDROOT
BRANCH   7  23
ATOM     23  O   UNL     1       9.224  11.823  23.638  0.00  0.00    +0.000 OA
ATOM     24  H   UNL     1       9.494  11.936  24.577  0.00  0.00    +0.000 HD
ENDBRANCH   7  23
BRANCH  15  25
ATOM     25  O   UNL     1       7.368  15.397  17.434  0.00  0.00    +0.000 OA
ATOM     26  H   UNL     1       6.533  15.072  17.803  0.00  0.00    +0.000 HD
ENDBRANCH  15  25
BRANCH  16  27
ATOM     27  O   UNL     1       9.727  17.671  19.148  0.00  0.00    +0.000 OA
ATOM     28  H   UNL     1      10.349  17.994  18.465  0.00  0.00    +0.000 HD
ENDBRANCH  16  27
BRANCH   9  29
ATOM     29  O   UNL     1       5.166  13.175  25.541  0.00  0.00    +0.000 OA
BRANCH  29  30
ATOM     30  C   UNL     1       5.348  14.072  26.650  0.00  0.00    +0.000 C 
BRANCH  30  31
ATOM     31  C   UNL     1       4.905  13.352  27.923  0.00  0.00    +0.000 C 
BRANCH  31  32
ATOM     32  N   UNL     1       4.828  11.919  27.765  0.00  0.00    +0.000 N 
ATOM     33  C   UNL     1       5.852  11.011  27.822  0.00  0.00    +0.000 A 
ATOM     34  C   UNL     1       5.216   9.800  27.671  0.00  0.00    +0.000 A 
ATOM     35  N   UNL     1       3.864  10.009  27.530  0.00  0.00    +0.000 NA
ATOM     36  N   UNL     1       3.647  11.315  27.593  0.00  0.00    +0.000 NA
ENDBRANCH  31  32
ENDBRANCH  30  31
ENDBRANCH  29  30
ENDBRANCH   9  29
TORSDOF 7
ENDMDL
MODEL 9
REMARK VINA RESULT:      -6.7      4.891     10.612
REMARK  Name = 
REMARK  9 active torsions:
REMARK  status: ('A' for Active; 'I' for Inactive)
REMARK    1  A    between atoms: C_1  and  C_2
REMARK    2  A    between atoms: C_7  and  O_8
REMARK    3  A    between atoms: C_10  and  O_11
REMARK    4  A    between atoms: O_11  and  C_12
REMARK    5  A    between atoms: C_12  and  C_13
REMARK    6  A    between atoms: C_13  and  N_14
REMARK    7  A    between atoms: C_24  and  O_25
REMARK    8  A    between atoms: C_26  and  O_27
REMARK    9  A    between atoms: C_32  and  C_33
REMARK                            x       y       z     vdW  Elec       q    Type
REMARK                         _______ _______ _______ _____ _____    ______ ____
ROOT
ATOM      1  C   UNL     1      -1.121  16.975  18.708  0.00  0.00    +0.000 C 
ATOM      2  C   UNL     1       0.272  16.297  18.732  0.00  0.00    +0.000 C 
ATOM      3  O   UNL     1       0.132  14.828  18.992  0.00  0.00    +0.000 OA
ATOM      4  C   UNL     1       1.127  14.038  19.510  0.00  0.00    +0.000 C 
ATOM      5  O   UNL     1       2.148  14.424  20.068  0.00  0.00    +0.000 OA
ATOM      6  C   UNL     1       1.087  12.599  19.127  0.00  0.00    +0.000 A 
ATOM      7  C   UNL     1       2.151  12.144  18.330  0.00  0.00    +0.000 A 
ATOM      8  C   UNL     1       2.232  10.824  17.884  0.00  0.00    +0.000 A 
ATOM      9  C   UNL     1       1.265   9.899  18.264  0.00  0.00    +0.000 A 
ATOM     10  C   UNL     1       0.313  10.276  19.210  0.00  0.00    +0.000 A 
ATOM     11  C   UNL     1       0.244  11.613  19.677  0.00  0.00    +0.000 A 
ATOM     12  C   UNL     1      -0.548  11.830  20.892  0.00  0.00    +0.000 C 
ATOM     13  C   UNL     1      -1.556  12.713  20.937  0.00  0.00    +0.000 C 
ATOM     14  C   UNL     1      -2.314  13.074  22.193  0.00  0.00    +0.000 C 
ATOM     15  C   UNL     1      -2.390  14.607  22.431  0.00  0.00    +0.000 C 
ATOM     16  C   UNL     1      -1.005  15.202  22.779  0.00  0.00    +0.000 C 
ATOM     17  C   UNL     1      -0.990  16.741  22.754  0.00  0.00    +0.000 C 
ATOM     18  O   UNL     1      -1.665  17.407  23.539  0.00  0.00    +0.000 OA
ATOM     19  C   UNL     1      -0.203  17.438  21.691  0.00  0.00    +0.000 C 
ATOM     20  C   UNL     1       0.867  16.875  21.101  0.00  0.00    +0.000 C 
ATOM     21  C   UNL     1       1.212  17.149  19.651  0.00  0.00    +0.000 C 
ATOM     22  C   UNL     1       2.673  16.999  19.203  0.00  0.00    +0.000 C 
ENDROOT
BRANCH   7  23
ATOM     23  O   UNL     1       3.229  12.946  18.037  0.00  0.00    +0.000 OA
ATOM     24  H   UNL     1       2.921  13.626  17.397  0.00  0.00    +0.000 HD
ENDBRANCH   7  23
BRANCH  15  25
ATOM     25  O   UNL     1      -3.003  15.232  21.300  0.00  0.00    +0.000 OA
ATOM     26  H   UNL     1      -2.793  16.178  21.316  0.00  0.00    +0.000 HD
ENDBRANCH  15  25
BRANCH  16  27
ATOM     27  O   UNL     1      -0.611  14.773  24.082  0.00  0.00    +0.000 OA
ATOM     28  H   UNL     1       0.076  15.407  24.373  0.00  0.00    +0.000 HD
ENDBRANCH  16  27
BRANCH   9  29
ATOM     29  O   UNL     1       1.405   8.645  17.735  0.00  0.00    +0.000 OA
BRANCH  29  30
ATOM     30  C   UNL     1       2.700   8.034  17.866  0.00  0.00    +0.000 C 
BRANCH  30  31
ATOM     31  C   UNL     1       2.565   6.825  18.793  0.00  0.00    +0.000 C 
BRANCH  31  32
ATOM     32  N   UNL     1       2.708   5.565  18.103  0.00  0.00    +0.000 N 
ATOM     33  C   UNL     1       3.864   4.972  17.668  0.00  0.00    +0.000 A 
ATOM     34  C   UNL     1       3.433   3.774  17.144  0.00  0.00    +0.000 A 
ATOM     35  N   UNL     1       2.066   3.684  17.274  0.00  0.00    +0.000 NA
ATOM     36  N   UNL     1       1.643   4.792  17.867  0.00  0.00    +0.000 NA
ENDBRANCH  31  32
ENDBRANCH  30  31
ENDBRANCH  29  30
ENDBRANCH   9  29
TORSDOF 7
ENDMDL
