MODEL 1
REMARK VINA RESULT:      -6.7      0.000      0.000
REMARK  Name = 
REMARK  11 active torsions:
REMARK  status: ('A' for Active; 'I' for Inactive)
REMARK    1  A    between atoms: C_1  and  S_2
REMARK    2  A    between atoms: S_2  and  C_3
REMARK    3  A    between atoms: C_3  and  C_4
REMARK    4  A    between atoms: C_4  and  C_5
REMARK    5  A    between atoms: C_5  and  N_6
REMARK    6  A    between atoms: C_5  and  C_14
REMARK    7  A    between atoms: C_7  and  C_9
REMARK    8  A    between atoms: N_16  and  C_17
REMARK    9  A    between atoms: N_16  and  C_18
REMARK   10  A    between atoms: C_18  and  C_19
REMARK   11  A    between atoms: N_21  and  C_22
REMARK                            x       y       z     vdW  Elec       q    Type
REMARK                         _______ _______ _______ _____ _____    ______ ____
ROOT
ATOM      1  C   UNL     1       2.393   8.022  18.348  0.00  0.00    +0.000 C 
ATOM      2  O   UNL     1       2.492   8.447  17.190  0.00  0.00    +0.000 OA
ATOM      3  N   UNL     1       1.717   8.756  19.316  0.00  0.00    +0.000 N 
ATOM      4  C   UNL     1       1.480   8.344  20.695  0.00  0.00    +0.000 C 
ENDROOT
BRANCH   1   5
ATOM      5  C   UNL     1       2.955   6.621  18.717  0.00  0.00    +0.000 C 
BRANCH   5   6
ATOM      6  N   UNL     1       3.819   6.117  17.653  0.00  0.00    +0.000 N 
ATOM      7  C   UNL     1       5.049   5.554  17.932  0.00  0.00    +0.000 C 
ATOM      8  O   UNL     1       5.463   5.436  19.081  0.00  0.00    +0.000 OA
ATOM      9  H   UNL     1       3.640   6.379  16.690  0.00  0.00    +0.000 HD
BRANCH   7  10
ATOM     10  C   UNL     1       5.770   5.076  16.766  0.00  0.00    +0.000 A 
ATOM     11  C   UNL     1       6.937   5.521  16.181  0.00  0.00    +0.000 A 
ATOM     12  C   UNL     1       7.212   4.647  15.102  0.00  0.00    +0.000 A 
ATOM     13  C   UNL     1       6.192   3.727  15.088  0.00  0.00    +0.000 A 
ATOM     14  O   UNL     1       5.309   3.977  16.089  0.00  0.00    +0.000 OA
ENDBRANCH   7  10
ENDBRANCH   5   6
BRANCH   5  15
ATOM     15  C   UNL     1       1.787   5.658  18.977  0.00  0.00    +0.000 C 
BRANCH  15  16
ATOM     16  C   UNL     1       1.678   4.597  17.880  0.00  0.00    +0.000 C 
BRANCH  16  18
ATOM     17  C   UNL     1       2.878   2.953  19.729  0.00  0.00    +0.000 C 
ATOM     18  S   UNL     1       1.459   2.942  18.604  0.00  0.00    +0.000 S 
ENDBRANCH  16  18
ENDBRANCH  15  16
ENDBRANCH   5  15
ENDBRANCH   1   5
BRANCH   3  19
ATOM     19  C   UNL     1       1.188  10.075  18.943  0.00  0.00    +0.000 C 
BRANCH  19  20
ATOM     20  C   UNL     1      -0.065  10.467  19.740  0.00  0.00    +0.000 C 
ATOM     21  O   UNL     1      -1.172   9.997  19.480  0.00  0.00    +0.000 OA
ATOM     22  N   UNL     1       0.169  11.439  20.705  0.00  0.00    +0.000 N 
ATOM     23  H   UNL     1       0.851  12.138  20.411  0.00  0.00    +0.000 HD
BRANCH  22  24
ATOM     24  C   UNL     1      -0.886  11.929  21.529  0.00  0.00    +0.000 A 
ATOM     25  C   UNL     1      -1.331  11.267  22.690  0.00  0.00    +0.000 A 
ATOM     26 CL   UNL     1      -0.501   9.903  23.363  0.00  0.00    +0.000 Cl
ATOM     27  C   UNL     1      -2.410  11.774  23.429  0.00  0.00    +0.000 A 
ATOM     28  C   UNL     1      -3.049  12.948  23.031  0.00  0.00    +0.000 A 
ATOM     29  C   UNL     1      -2.585  13.640  21.915  0.00  0.00    +0.000 A 
ATOM     30  C   UNL     1      -1.501  13.144  21.181  0.00  0.00    +0.000 A 
ATOM     31 CL   UNL     1      -0.976  14.044  19.799  0.00  0.00    +0.000 Cl
ENDBRANCH  22  24
ENDBRANCH  19  20
ENDBRANCH   3  19
TORSDOF 9
ENDMDL
MODEL 2
REMARK VINA RESULT:      -6.6      0.761      1.923
REMARK  Name = 
REMARK  11 active torsions:
REMARK  status: ('A' for Active; 'I' for Inactive)
REMARK    1  A    between atoms: C_1  and  S_2
REMARK    2  A    between atoms: S_2  and  C_3
REMARK    3  A    between atoms: C_3  and  C_4
REMARK    4  A    between atoms: C_4  and  C_5
REMARK    5  A    between atoms: C_5  and  N_6
REMARK    6  A    between atoms: C_5  and  C_14
REMARK    7  A    between atoms: C_7  and  C_9
REMARK    8  A    between atoms: N_16  and  C_17
REMARK    9  A    between atoms: N_16  and  C_18
REMARK   10  A    between atoms: C_18  and  C_19
REMARK   11  A    between atoms: N_21  and  C_22
REMARK                            x       y       z     vdW  Elec       q    Type
REMARK                         _______ _______ _______ _____ _____    ______ ____
ROOT
ATOM      1  C   UNL     1       2.448   7.828  18.363  0.00  0.00    +0.000 C 
ATOM      2  O   UNL     1       2.589   8.313  17.234  0.00  0.00    +0.000 OA
ATOM      3  N   UNL     1       1.845   8.563  19.379  0.00  0.00    +0.000 N 
ATOM      4  C   UNL     1       1.567   8.090  20.730  0.00  0.00    +0.000 C 
ENDROOT
BRANCH   1   5
ATOM      5  C   UNL     1       2.869   6.358  18.642  0.00  0.00    +0.000 C 
BRANCH   5   6
ATOM      6  N   UNL     1       3.682   5.840  17.545  0.00  0.00    +0.000 N 
ATOM      7  C   UNL     1       5.011   5.513  17.727  0.00  0.00    +0.000 C 
ATOM      8  O   UNL     1       5.563   5.625  18.817  0.00  0.00    +0.000 OA
ATOM      9  H   UNL     1       3.357   5.930  16.588  0.00  0.00    +0.000 HD
BRANCH   7  10
ATOM     10  C   UNL     1       5.668   4.983  16.546  0.00  0.00    +0.000 A 
ATOM     11  C   UNL     1       5.261   4.029  15.638  0.00  0.00    +0.000 A 
ATOM     12  C   UNL     1       6.271   3.947  14.650  0.00  0.00    +0.000 A 
ATOM     13  C   UNL     1       7.238   4.850  15.020  0.00  0.00    +0.000 A 
ATOM     14  O   UNL     1       6.887   5.482  16.169  0.00  0.00    +0.000 OA
ENDBRANCH   7  10
ENDBRANCH   5   6
BRANCH   5  15
ATOM     15  C   UNL     1       1.612   5.500  18.846  0.00  0.00    +0.000 C 
BRANCH  15  16
ATOM     16  C   UNL     1       1.965   4.024  19.039  0.00  0.00    +0.000 C 
BRANCH  16  18
ATOM     17  C   UNL     1       2.515   2.833  21.456  0.00  0.00    +0.000 C 
ATOM     18  S   UNL     1       1.080   3.331  20.471  0.00  0.00    +0.000 S 
ENDBRANCH  16  18
ENDBRANCH  15  16
ENDBRANCH   5  15
ENDBRANCH   1   5
BRANCH   3  19
ATOM     19  C   UNL     1       1.448   9.948  19.091  0.00  0.00    +0.000 C 
BRANCH  19  20
ATOM     20  C   UNL     1       0.130  10.348  19.771  0.00  0.00    +0.000 C 
ATOM     21  O   UNL     1      -0.954   9.910  19.391  0.00  0.00    +0.000 OA
ATOM     22  N   UNL     1       0.287  11.291  20.780  0.00  0.00    +0.000 N 
ATOM     23  H   UNL     1       1.009  11.981  20.573  0.00  0.00    +0.000 HD
BRANCH  22  24
ATOM     24  C   UNL     1      -0.833  11.785  21.509  0.00  0.00    +0.000 A 
ATOM     25  C   UNL     1      -1.608  12.883  21.086  0.00  0.00    +0.000 A 
ATOM     26 CL   UNL     1      -1.420  13.612  19.525  0.00  0.00    +0.000 Cl
ATOM     27  C   UNL     1      -2.666  13.354  21.877  0.00  0.00    +0.000 A 
ATOM     28  C   UNL     1      -2.973  12.734  23.088  0.00  0.00    +0.000 A 
ATOM     29  C   UNL     1      -2.248  11.615  23.492  0.00  0.00    +0.000 A 
ATOM     30  C   UNL     1      -1.199  11.135  22.701  0.00  0.00    +0.000 A 
ATOM     31 CL   UNL     1      -0.329   9.747  23.261  0.00  0.00    +0.000 Cl
ENDBRANCH  22  24
ENDBRANCH  19  20
ENDBRANCH   3  19
TORSDOF 9
ENDMDL
MODEL 3
REMARK VINA RESULT:      -6.5      2.235      2.718
REMARK  Name = 
REMARK  11 active torsions:
REMARK  status: ('A' for Active; 'I' for Inactive)
REMARK    1  A    between atoms: C_1  and  S_2
REMARK    2  A    between atoms: S_2  and  C_3
REMARK    3  A    between atoms: C_3  and  C_4
REMARK    4  A    between atoms: C_4  and  C_5
REMARK    5  A    between atoms: C_5  and  N_6
REMARK    6  A    between atoms: C_5  and  C_14
REMARK    7  A    between atoms: C_7  and  C_9
REMARK    8  A    between atoms: N_16  and  C_17
REMARK    9  A    between atoms: N_16  and  C_18
REMARK   10  A    between atoms: C_18  and  C_19
REMARK   11  A    between atoms: N_21  and  C_22
REMARK                            x       y       z     vdW  Elec       q    Type
REMARK                         _______ _______ _______ _____ _____    ______ ____
ROOT
ATOM      1  C   UNL     1       2.386   8.056  18.266  0.00  0.00    +0.000 C 
ATOM      2  O   UNL     1       2.449   8.466  17.100  0.00  0.00    +0.000 OA
ATOM      3  N   UNL     1       1.763   8.815  19.251  0.00  0.00    +0.000 N 
ATOM      4  C   UNL     1       1.570   8.423  20.642  0.00  0.00    +0.000 C 
ENDROOT
BRANCH   1   5
ATOM      5  C   UNL     1       2.931   6.647  18.630  0.00  0.00    +0.000 C 
BRANCH   5   6
ATOM      6  N   UNL     1       3.735   6.109  17.536  0.00  0.00    +0.000 N 
ATOM      7  C   UNL     1       4.977   5.550  17.763  0.00  0.00    +0.000 C 
ATOM      8  O   UNL     1       5.453   5.464  18.891  0.00  0.00    +0.000 OA
ATOM      9  H   UNL     1       3.504   6.343  16.576  0.00  0.00    +0.000 HD
BRANCH   7  10
ATOM     10  C   UNL     1       5.632   5.035  16.574  0.00  0.00    +0.000 A 
ATOM     11  C   UNL     1       5.398   3.892  15.839  0.00  0.00    +0.000 A 
ATOM     12  C   UNL     1       6.297   3.919  14.745  0.00  0.00    +0.000 A 
ATOM     13  C   UNL     1       7.031   5.072  14.885  0.00  0.00    +0.000 A 
ATOM     14  O   UNL     1       6.641   5.755  15.992  0.00  0.00    +0.000 OA
ENDBRANCH   7  10
ENDBRANCH   5   6
BRANCH   5  15
ATOM     15  C   UNL     1       1.755   5.716  18.956  0.00  0.00    +0.000 C 
BRANCH  15  16
ATOM     16  C   UNL     1       2.046   4.853  20.186  0.00  0.00    +0.000 C 
BRANCH  16  18
ATOM     17  C   UNL     1       1.716   2.950  18.230  0.00  0.00    +0.000 C 
ATOM     18  S   UNL     1       1.343   3.186  19.986  0.00  0.00    +0.000 S 
ENDBRANCH  16  18
ENDBRANCH  15  16
ENDBRANCH   5  15
ENDBRANCH   1   5
BRANCH   3  19
ATOM     19  C   UNL     1       1.248  10.141  18.883  0.00  0.00    +0.000 C 
BRANCH  19  20
ATOM     20  C   UNL     1      -0.256  10.297  19.153  0.00  0.00    +0.000 C 
ATOM     21  O   UNL     1      -0.822   9.672  20.050  0.00  0.00    +0.000 OA
ATOM     22  N   UNL     1      -0.901  11.135  18.252  0.00  0.00    +0.000 N 
ATOM     23  H   UNL     1      -0.537  11.055  17.302  0.00  0.00    +0.000 HD
BRANCH  22  24
ATOM     24  C   UNL     1      -2.301  11.383  18.347  0.00  0.00    +0.000 A 
ATOM     25  C   UNL     1      -2.878  12.178  19.357  0.00  0.00    +0.000 A 
ATOM     26 CL   UNL     1      -1.929  13.119  20.461  0.00  0.00    +0.000 Cl
ATOM     27  C   UNL     1      -4.270  12.340  19.427  0.00  0.00    +0.000 A 
ATOM     28  C   UNL     1      -5.100  11.727  18.489  0.00  0.00    +0.000 A 
ATOM     29  C   UNL     1      -4.538  10.981  17.455  0.00  0.00    +0.000 A 
ATOM     30  C   UNL     1      -3.150  10.826  17.376  0.00  0.00    +0.000 A 
ATOM     31 CL   UNL     1      -2.513   9.881  16.073  0.00  0.00    +0.000 Cl
ENDBRANCH  22  24
ENDBRANCH  19  20
ENDBRANCH   3  19
TORSDOF 9
ENDMDL
MODEL 4
REMARK VINA RESULT:      -6.5      0.600      1.813
REMARK  Name = 
REMARK  11 active torsions:
REMARK  status: ('A' for Active; 'I' for Inactive)
REMARK    1  A    between atoms: C_1  and  S_2
REMARK    2  A    between atoms: S_2  and  C_3
REMARK    3  A    between atoms: C_3  and  C_4
REMARK    4  A    between atoms: C_4  and  C_5
REMARK    5  A    between atoms: C_5  and  N_6
REMARK    6  A    between atoms: C_5  and  C_14
REMARK    7  A    between atoms: C_7  and  C_9
REMARK    8  A    between atoms: N_16  and  C_17
REMARK    9  A    between atoms: N_16  and  C_18
REMARK   10  A    between atoms: C_18  and  C_19
REMARK   11  A    between atoms: N_21  and  C_22
REMARK                            x       y       z     vdW  Elec       q    Type
REMARK                         _______ _______ _______ _____ _____    ______ ____
ROOT
ATOM      1  C   UNL     1       2.441   7.996  18.254  0.00  0.00    +0.000 C 
ATOM      2  O   UNL     1       2.551   8.468  17.115  0.00  0.00    +0.000 OA
ATOM      3  N   UNL     1       1.810   8.717  19.261  0.00  0.00    +0.000 N 
ATOM      4  C   UNL     1       1.563   8.254  20.622  0.00  0.00    +0.000 C 
ENDROOT
BRANCH   1   5
ATOM      5  C   UNL     1       2.935   6.553  18.553  0.00  0.00    +0.000 C 
BRANCH   5   6
ATOM      6  N   UNL     1       3.792   6.070  17.474  0.00  0.00    +0.000 N 
ATOM      7  C   UNL     1       5.030   5.516  17.732  0.00  0.00    +0.000 C 
ATOM      8  O   UNL     1       5.459   5.389  18.875  0.00  0.00    +0.000 OA
ATOM      9  H   UNL     1       3.600   6.341  16.515  0.00  0.00    +0.000 HD
BRANCH   7  10
ATOM     10  C   UNL     1       5.743   5.057  16.553  0.00  0.00    +0.000 A 
ATOM     11  C   UNL     1       7.012   5.343  16.098  0.00  0.00    +0.000 A 
ATOM     12  C   UNL     1       7.210   4.573  14.927  0.00  0.00    +0.000 A 
ATOM     13  C   UNL     1       6.045   3.870  14.733  0.00  0.00    +0.000 A 
ATOM     14  O   UNL     1       5.146   4.158  15.710  0.00  0.00    +0.000 OA
ENDBRANCH   7  10
ENDBRANCH   5   6
BRANCH   5  15
ATOM     15  C   UNL     1       1.723   5.631  18.746  0.00  0.00    +0.000 C 
BRANCH  15  16
ATOM     16  C   UNL     1       1.941   4.653  19.902  0.00  0.00    +0.000 C 
BRANCH  16  18
ATOM     17  C   UNL     1       0.899   2.374  18.768  0.00  0.00    +0.000 C 
ATOM     18  S   UNL     1       2.505   3.037  19.282  0.00  0.00    +0.000 S 
ENDBRANCH  16  18
ENDBRANCH  15  16
ENDBRANCH   5  15
ENDBRANCH   1   5
BRANCH   3  19
ATOM     19  C   UNL     1       1.343  10.076  18.954  0.00  0.00    +0.000 C 
BRANCH  19  20
ATOM     20  C   UNL     1       0.043  10.444  19.685  0.00  0.00    +0.000 C 
ATOM     21  O   UNL     1      -1.048  10.002  19.329  0.00  0.00    +0.000 OA
ATOM     22  N   UNL     1       0.222  11.364  20.711  0.00  0.00    +0.000 N 
ATOM     23  H   UNL     1       0.929  12.067  20.498  0.00  0.00    +0.000 HD
BRANCH  22  24
ATOM     24  C   UNL     1      -0.880  11.827  21.487  0.00  0.00    +0.000 A 
ATOM     25  C   UNL     1      -1.676  12.930  21.120  0.00  0.00    +0.000 A 
ATOM     26 CL   UNL     1      -1.540  13.705  19.576  0.00  0.00    +0.000 Cl
ATOM     27  C   UNL     1      -2.713  13.369  21.955  0.00  0.00    +0.000 A 
ATOM     28  C   UNL     1      -2.980  12.712  23.156  0.00  0.00    +0.000 A 
ATOM     29  C   UNL     1      -2.233  11.589  23.506  0.00  0.00    +0.000 A 
ATOM     30  C   UNL     1      -1.205  11.141  22.670  0.00  0.00    +0.000 A 
ATOM     31 CL   UNL     1      -0.308   9.744  23.163  0.00  0.00    +0.000 Cl
ENDBRANCH  22  24
ENDBRANCH  19  20
ENDBRANCH   3  19
TORSDOF 9
ENDMDL
MODEL 5
REMARK VINA RESULT:      -6.5      2.381      2.938
REMARK  Name = 
REMARK  11 active torsions:
REMARK  status: ('A' for Active; 'I' for Inactive)
REMARK    1  A    between atoms: C_1  and  S_2
REMARK    2  A    between atoms: S_2  and  C_3
REMARK    3  A    between atoms: C_3  and  C_4
REMARK    4  A    between atoms: C_4  and  C_5
REMARK    5  A    between atoms: C_5  and  N_6
REMARK    6  A    between atoms: C_5  and  C_14
REMARK    7  A    between atoms: C_7  and  C_9
REMARK    8  A    between atoms: N_16  and  C_17
REMARK    9  A    between atoms: N_16  and  C_18
REMARK   10  A    between atoms: C_18  and  C_19
REMARK   11  A    between atoms: N_21  and  C_22
REMARK                            x       y       z     vdW  Elec       q    Type
REMARK                         _______ _______ _______ _____ _____    ______ ____
ROOT
ATOM      1  C   UNL     1       2.308   8.159  18.354  0.00  0.00    +0.000 C 
ATOM      2  O   UNL     1       2.323   8.521  17.170  0.00  0.00    +0.000 OA
ATOM      3  N   UNL     1       1.689   8.940  19.324  0.00  0.00    +0.000 N 
ATOM      4  C   UNL     1       1.549   8.602  20.736  0.00  0.00    +0.000 C 
ENDROOT
BRANCH   1   5
ATOM      5  C   UNL     1       2.910   6.786  18.759  0.00  0.00    +0.000 C 
BRANCH   5   6
ATOM      6  N   UNL     1       3.700   6.228  17.666  0.00  0.00    +0.000 N 
ATOM      7  C   UNL     1       4.923   5.629  17.895  0.00  0.00    +0.000 C 
ATOM      8  O   UNL     1       5.392   5.522  19.024  0.00  0.00    +0.000 OA
ATOM      9  H   UNL     1       3.481   6.474  16.706  0.00  0.00    +0.000 HD
BRANCH   7  10
ATOM     10  C   UNL     1       5.567   5.099  16.707  0.00  0.00    +0.000 A 
ATOM     11  C   UNL     1       5.431   3.882  16.073  0.00  0.00    +0.000 A 
ATOM     12  C   UNL     1       6.256   3.925  14.924  0.00  0.00    +0.000 A 
ATOM     13  C   UNL     1       6.852   5.163  14.930  0.00  0.00    +0.000 A 
ATOM     14  O   UNL     1       6.446   5.883  16.008  0.00  0.00    +0.000 OA
ENDBRANCH   7  10
ENDBRANCH   5   6
BRANCH   5  15
ATOM     15  C   UNL     1       1.774   5.832  19.158  0.00  0.00    +0.000 C 
BRANCH  15  16
ATOM     16  C   UNL     1       2.140   5.009  20.395  0.00  0.00    +0.000 C 
BRANCH  16  18
ATOM     17  C   UNL     1       0.974   2.797  19.251  0.00  0.00    +0.000 C 
ATOM     18  S   UNL     1       2.575   3.304  19.929  0.00  0.00    +0.000 S 
ENDBRANCH  16  18
ENDBRANCH  15  16
ENDBRANCH   5  15
ENDBRANCH   1   5
BRANCH   3  19
ATOM     19  C   UNL     1       1.119  10.232  18.917  0.00  0.00    +0.000 C 
BRANCH  19  20
ATOM     20  C   UNL     1      -0.416  10.242  18.927  0.00  0.00    +0.000 C 
ATOM     21  O   UNL     1      -1.066   9.339  19.453  0.00  0.00    +0.000 OA
ATOM     22  N   UNL     1      -0.972  11.308  18.232  0.00  0.00    +0.000 N 
ATOM     23  H   UNL     1      -0.445  11.557  17.395  0.00  0.00    +0.000 HD
BRANCH  22  24
ATOM     24  C   UNL     1      -2.385  11.467  18.129  0.00  0.00    +0.000 A 
ATOM     25  C   UNL     1      -3.133  11.027  17.020  0.00  0.00    +0.000 A 
ATOM     26 CL   UNL     1      -2.451  10.049  15.762  0.00  0.00    +0.000 Cl
ATOM     27  C   UNL     1      -4.515  11.261  16.955  0.00  0.00    +0.000 A 
ATOM     28  C   UNL     1      -5.168  11.922  17.995  0.00  0.00    +0.000 A 
ATOM     29  C   UNL     1      -4.448  12.316  19.120  0.00  0.00    +0.000 A 
ATOM     30  C   UNL     1      -3.072  12.074  19.193  0.00  0.00    +0.000 A 
ATOM     31 CL   UNL     1      -2.231  12.595  20.614  0.00  0.00    +0.000 Cl
ENDBRANCH  22  24
ENDBRANCH  19  20
ENDBRANCH   3  19
TORSDOF 9
ENDMDL
MODEL 6
REMARK VINA RESULT:      -6.3      3.954      9.231
REMARK  Name = 
REMARK  11 active torsions:
REMARK  status: ('A' for Active; 'I' for Inactive)
REMARK    1  A    between atoms: C_1  and  S_2
REMARK    2  A    between atoms: S_2  and  C_3
REMARK    3  A    between atoms: C_3  and  C_4
REMARK    4  A    between atoms: C_4  and  C_5
REMARK    5  A    between atoms: C_5  and  N_6
REMARK    6  A    between atoms: C_5  and  C_14
REMARK    7  A    between atoms: C_7  and  C_9
REMARK    8  A    between atoms: N_16  and  C_17
REMARK    9  A    between atoms: N_16  and  C_18
REMARK   10  A    between atoms: C_18  and  C_19
REMARK   11  A    between atoms: N_21  and  C_22
REMARK                            x       y       z     vdW  Elec       q    Type
REMARK                         _______ _______ _______ _____ _____    ______ ____
ROOT
ATOM      1  C   UNL     1       0.265   9.819  19.614  0.00  0.00    +0.000 C 
ATOM      2  O   UNL     1      -0.279   9.516  20.683  0.00  0.00    +0.000 OA
ATOM      3  N   UNL     1       1.414   9.159  19.192  0.00  0.00    +0.000 N 
ATOM      4  C   UNL     1       2.115   9.378  17.933  0.00  0.00    +0.000 C 
ENDROOT
BRANCH   1   5
ATOM      5  C   UNL     1      -0.376  10.889  18.687  0.00  0.00    +0.000 C 
BRANCH   5   6
ATOM      6  N   UNL     1      -0.316  12.209  19.307  0.00  0.00    +0.000 N 
ATOM      7  C   UNL     1       0.703  13.095  19.016  0.00  0.00    +0.000 C 
ATOM      8  O   UNL     1       1.590  12.823  18.213  0.00  0.00    +0.000 OA
ATOM      9  H   UNL     1      -0.879  12.409  20.127  0.00  0.00    +0.000 HD
BRANCH   7  10
ATOM     10  C   UNL     1       0.600  14.375  19.693  0.00  0.00    +0.000 A 
ATOM     11  C   UNL     1      -0.323  14.841  20.606  0.00  0.00    +0.000 A 
ATOM     12  C   UNL     1       0.095  16.141  20.981  0.00  0.00    +0.000 A 
ATOM     13  C   UNL     1       1.241  16.393  20.268  0.00  0.00    +0.000 A 
ATOM     14  O   UNL     1       1.556  15.332  19.480  0.00  0.00    +0.000 OA
ENDBRANCH   7  10
ENDBRANCH   5   6
BRANCH   5  15
ATOM     15  C   UNL     1      -1.827  10.492  18.381  0.00  0.00    +0.000 C 
BRANCH  15  16
ATOM     16  C   UNL     1      -1.980   9.985  16.946  0.00  0.00    +0.000 C 
BRANCH  16  18
ATOM     17  C   UNL     1      -3.126  10.132  14.450  0.00  0.00    +0.000 C 
ATOM     18  S   UNL     1      -3.342  10.847  16.100  0.00  0.00    +0.000 S 
ENDBRANCH  16  18
ENDBRANCH  15  16
ENDBRANCH   5  15
ENDBRANCH   1   5
BRANCH   3  19
ATOM     19  C   UNL     1       1.998   8.146  20.082  0.00  0.00    +0.000 C 
BRANCH  19  20
ATOM     20  C   UNL     1       2.318   6.827  19.361  0.00  0.00    +0.000 C 
ATOM     21  O   UNL     1       2.075   6.666  18.166  0.00  0.00    +0.000 OA
ATOM     22  N   UNL     1       2.824   5.842  20.200  0.00  0.00    +0.000 N 
ATOM     23  H   UNL     1       2.401   5.851  21.128  0.00  0.00    +0.000 HD
BRANCH  22  24
ATOM     24  C   UNL     1       3.165   4.552  19.701  0.00  0.00    +0.000 A 
ATOM     25  C   UNL     1       4.434   4.235  19.178  0.00  0.00    +0.000 A 
ATOM     26 CL   UNL     1       5.785   5.316  19.287  0.00  0.00    +0.000 Cl
ATOM     27  C   UNL     1       4.690   2.960  18.652  0.00  0.00    +0.000 A 
ATOM     28  C   UNL     1       3.695   1.984  18.652  0.00  0.00    +0.000 A 
ATOM     29  C   UNL     1       2.452   2.268  19.214  0.00  0.00    +0.000 A 
ATOM     30  C   UNL     1       2.196   3.535  19.749  0.00  0.00    +0.000 A 
ATOM     31 CL   UNL     1       0.630   3.829  20.425  0.00  0.00    +0.000 Cl
ENDBRANCH  22  24
ENDBRANCH  19  20
ENDBRANCH   3  19
TORSDOF 9
ENDMDL
MODEL 7
REMARK VINA RESULT:      -6.3      2.393      3.248
REMARK  Name = 
REMARK  11 active torsions:
REMARK  status: ('A' for Active; 'I' for Inactive)
REMARK    1  A    between atoms: C_1  and  S_2
REMARK    2  A    between atoms: S_2  and  C_3
REMARK    3  A    between atoms: C_3  and  C_4
REMARK    4  A    between atoms: C_4  and  C_5
REMARK    5  A    between atoms: C_5  and  N_6
REMARK    6  A    between atoms: C_5  and  C_14
REMARK    7  A    between atoms: C_7  and  C_9
REMARK    8  A    between atoms: N_16  and  C_17
REMARK    9  A    between atoms: N_16  and  C_18
REMARK   10  A    between atoms: C_18  and  C_19
REMARK   11  A    between atoms: N_21  and  C_22
REMARK                            x       y       z     vdW  Elec       q    Type
REMARK                         _______ _______ _______ _____ _____    ______ ____
ROOT
ATOM      1  C   UNL     1       2.228   5.481  20.257  0.00  0.00    +0.000 C 
ATOM      2  O   UNL     1       1.938   4.797  21.247  0.00  0.00    +0.000 OA
ATOM      3  N   UNL     1       1.864   6.821  20.192  0.00  0.00    +0.000 N 
ATOM      4  C   UNL     1       2.194   7.748  19.115  0.00  0.00    +0.000 C 
ENDROOT
BRANCH   1   5
ATOM      5  C   UNL     1       3.076   4.871  19.107  0.00  0.00    +0.000 C 
BRANCH   5   6
ATOM      6  N   UNL     1       4.206   5.738  18.785  0.00  0.00    +0.000 N 
ATOM      7  C   UNL     1       5.501   5.260  18.777  0.00  0.00    +0.000 C 
ATOM      8  O   UNL     1       5.760   4.085  19.022  0.00  0.00    +0.000 OA
ATOM      9  H   UNL     1       4.088   6.746  18.792  0.00  0.00    +0.000 HD
BRANCH   7  10
ATOM     10  C   UNL     1       6.504   6.242  18.409  0.00  0.00    +0.000 A 
ATOM     11  C   UNL     1       6.491   7.226  17.443  0.00  0.00    +0.000 A 
ATOM     12  C   UNL     1       7.712   7.932  17.562  0.00  0.00    +0.000 A 
ATOM     13  C   UNL     1       8.401   7.330  18.588  0.00  0.00    +0.000 A 
ATOM     14  O   UNL     1       7.681   6.302  19.107  0.00  0.00    +0.000 OA
ENDBRANCH   7  10
ENDBRANCH   5   6
BRANCH   5  15
ATOM     15  C   UNL     1       2.182   4.655  17.877  0.00  0.00    +0.000 C 
BRANCH  15  16
ATOM     16  C   UNL     1       2.453   3.302  17.216  0.00  0.00    +0.000 C 
BRANCH  16  18
ATOM     17  C   UNL     1       1.166   1.970  19.248  0.00  0.00    +0.000 C 
ATOM     18  S   UNL     1       2.800   2.030  18.471  0.00  0.00    +0.000 S 
ENDBRANCH  16  18
ENDBRANCH  15  16
ENDBRANCH   5  15
ENDBRANCH   1   5
BRANCH   3  19
ATOM     19  C   UNL     1       1.069   7.379  21.294  0.00  0.00    +0.000 C 
BRANCH  19  20
ATOM     20  C   UNL     1       1.267   8.891  21.472  0.00  0.00    +0.000 C 
ATOM     21  O   UNL     1       2.139   9.349  22.209  0.00  0.00    +0.000 OA
ATOM     22  N   UNL     1       0.330   9.660  20.793  0.00  0.00    +0.000 N 
ATOM     23  H   UNL     1      -0.601   9.243  20.787  0.00  0.00    +0.000 HD
BRANCH  22  24
ATOM     24  C   UNL     1       0.357  11.084  20.857  0.00  0.00    +0.000 A 
ATOM     25  C   UNL     1       1.049  11.886  19.929  0.00  0.00    +0.000 A 
ATOM     26 CL   UNL     1       1.758  11.243  18.484  0.00  0.00    +0.000 Cl
ATOM     27  C   UNL     1       1.082  13.281  20.078  0.00  0.00    +0.000 A 
ATOM     28  C   UNL     1       0.418  13.893  21.141  0.00  0.00    +0.000 A 
ATOM     29  C   UNL     1      -0.313  13.114  22.036  0.00  0.00    +0.000 A 
ATOM     30  C   UNL     1      -0.357  11.724  21.884  0.00  0.00    +0.000 A 
ATOM     31 CL   UNL     1      -1.276  10.811  23.032  0.00  0.00    +0.000 Cl
ENDBRANCH  22  24
ENDBRANCH  19  20
ENDBRANCH   3  19
TORSDOF 9
ENDMDL
MODEL 8
REMARK VINA RESULT:      -6.2      4.113      9.328
REMARK  Name = 
REMARK  11 active torsions:
REMARK  status: ('A' for Active; 'I' for Inactive)
REMARK    1  A    between atoms: C_1  and  S_2
REMARK    2  A    between atoms: S_2  and  C_3
REMARK    3  A    between atoms: C_3  and  C_4
REMARK    4  A    between atoms: C_4  and  C_5
REMARK    5  A    between atoms: C_5  and  N_6
REMARK    6  A    between atoms: C_5  and  C_14
REMARK    7  A    between atoms: C_7  and  C_9
REMARK    8  A    between atoms: N_16  and  C_17
REMARK    9  A    between atoms: N_16  and  C_18
REMARK   10  A    between atoms: C_18  and  C_19
REMARK   11  A    between atoms: N_21  and  C_22
REMARK                            x       y       z     vdW  Elec       q    Type
REMARK                         _______ _______ _______ _____ _____    ______ ____
ROOT
ATOM      1  C   UNL     1       1.675  10.005  18.277  0.00  0.00    +0.000 C 
ATOM      2  O   UNL     1       2.211  10.394  17.232  0.00  0.00    +0.000 OA
ATOM      3  N   UNL     1       2.047   8.797  18.857  0.00  0.00    +0.000 N 
ATOM      4  C   UNL     1       1.538   8.255  20.112  0.00  0.00    +0.000 C 
ENDROOT
BRANCH   1   5
ATOM      5  C   UNL     1       0.633  10.902  19.002  0.00  0.00    +0.000 C 
BRANCH   5   6
ATOM      6  N   UNL     1      -0.622  10.938  18.256  0.00  0.00    +0.000 N 
ATOM      7  C   UNL     1      -1.805  11.322  18.856  0.00  0.00    +0.000 C 
ATOM      8  O   UNL     1      -1.853  11.667  20.033  0.00  0.00    +0.000 OA
ATOM      9  H   UNL     1      -0.692  10.464  17.362  0.00  0.00    +0.000 HD
BRANCH   7  10
ATOM     10  C   UNL     1      -2.954  11.332  17.969  0.00  0.00    +0.000 A 
ATOM     11  C   UNL     1      -4.284  11.600  18.218  0.00  0.00    +0.000 A 
ATOM     12  C   UNL     1      -4.956  11.522  16.975  0.00  0.00    +0.000 A 
ATOM     13  C   UNL     1      -3.998  11.202  16.044  0.00  0.00    +0.000 A 
ATOM     14  O   UNL     1      -2.781  11.080  16.634  0.00  0.00    +0.000 OA
ENDBRANCH   7  10
ENDBRANCH   5   6
BRANCH   5  15
ATOM     15  C   UNL     1       1.210  12.315  19.172  0.00  0.00    +0.000 C 
BRANCH  15  16
ATOM     16  C   UNL     1       1.522  12.621  20.638  0.00  0.00    +0.000 C 
BRANCH  16  18
ATOM     17  C   UNL     1       3.656  14.241  21.257  0.00  0.00    +0.000 C 
ATOM     18  S   UNL     1       1.895  14.388  20.863  0.00  0.00    +0.000 S 
ENDBRANCH  16  18
ENDBRANCH  15  16
ENDBRANCH   5  15
ENDBRANCH   1   5
BRANCH   3  19
ATOM     19  C   UNL     1       3.039   7.969  18.159  0.00  0.00    +0.000 C 
BRANCH  19  20
ATOM     20  C   UNL     1       2.654   6.483  18.110  0.00  0.00    +0.000 C 
ATOM     21  O   UNL     1       1.587   6.106  17.627  0.00  0.00    +0.000 OA
ATOM     22  N   UNL     1       3.579   5.646  18.722  0.00  0.00    +0.000 N 
ATOM     23  H   UNL     1       4.000   6.058  19.554  0.00  0.00    +0.000 HD
BRANCH  22  24
ATOM     24  C   UNL     1       3.374   4.237  18.780  0.00  0.00    +0.000 A 
ATOM     25  C   UNL     1       3.811   3.351  17.776  0.00  0.00    +0.000 A 
ATOM     26 CL   UNL     1       4.837   3.851  16.472  0.00  0.00    +0.000 Cl
ATOM     27  C   UNL     1       3.531   1.979  17.866  0.00  0.00    +0.000 A 
ATOM     28  C   UNL     1       2.827   1.472  18.958  0.00  0.00    +0.000 A 
ATOM     29  C   UNL     1       2.435   2.331  19.983  0.00  0.00    +0.000 A 
ATOM     30  C   UNL     1       2.722   3.698  19.902  0.00  0.00    +0.000 A 
ATOM     31 CL   UNL     1       2.201   4.714  21.203  0.00  0.00    +0.000 Cl
ENDBRANCH  22  24
ENDBRANCH  19  20
ENDBRANCH   3  19
TORSDOF 9
ENDMDL
MODEL 9
REMARK VINA RESULT:      -6.2      3.758      9.630
REMARK  Name = 
REMARK  11 active torsions:
REMARK  status: ('A' for Active; 'I' for Inactive)
REMARK    1  A    between atoms: C_1  and  S_2
REMARK    2  A    between atoms: S_2  and  C_3
REMARK    3  A    between atoms: C_3  and  C_4
REMARK    4  A    between atoms: C_4  and  C_5
REMARK    5  A    between atoms: C_5  and  N_6
REMARK    6  A    between atoms: C_5  and  C_14
REMARK    7  A    between atoms: C_7  and  C_9
REMARK    8  A    between atoms: N_16  and  C_17
REMARK    9  A    between atoms: N_16  and  C_18
REMARK   10  A    between atoms: C_18  and  C_19
REMARK   11  A    between atoms: N_21  and  C_22
REMARK                            x       y       z     vdW  Elec       q    Type
REMARK                         _______ _______ _______ _____ _____    ______ ____
ROOT
ATOM      1  C   UNL     1       0.064   9.669  19.646  0.00  0.00    +0.000 C 
ATOM      2  O   UNL     1      -0.401   9.224  20.702  0.00  0.00    +0.000 OA
ATOM      3  N   UNL     1       1.313   9.257  19.194  0.00  0.00    +0.000 N 
ATOM      4  C   UNL     1       1.948   9.657  17.943  0.00  0.00    +0.000 C 
ENDROOT
BRANCH   1   5
ATOM      5  C   UNL     1      -0.777  10.635  18.766  0.00  0.00    +0.000 C 
BRANCH   5   6
ATOM      6  N   UNL     1      -1.935  11.127  19.506  0.00  0.00    +0.000 N 
ATOM      7  C   UNL     1      -2.044  12.454  19.873  0.00  0.00    +0.000 C 
ATOM      8  O   UNL     1      -1.185  13.280  19.581  0.00  0.00    +0.000 OA
ATOM      9  H   UNL     1      -2.560  10.470  19.962  0.00  0.00    +0.000 HD
BRANCH   7  10
ATOM     10  C   UNL     1      -3.270  12.785  20.576  0.00  0.00    +0.000 A 
ATOM     11  C   UNL     1      -3.516  12.976  21.920  0.00  0.00    +0.000 A 
ATOM     12  C   UNL     1      -4.880  13.338  22.037  0.00  0.00    +0.000 A 
ATOM     13  C   UNL     1      -5.385  13.337  20.760  0.00  0.00    +0.000 A 
ATOM     14  O   UNL     1      -4.421  13.000  19.865  0.00  0.00    +0.000 OA
ENDBRANCH   7  10
ENDBRANCH   5   6
BRANCH   5  15
ATOM     15  C   UNL     1      -1.212   9.907  17.486  0.00  0.00    +0.000 C 
BRANCH  15  16
ATOM     16  C   UNL     1      -2.735   9.824  17.377  0.00  0.00    +0.000 C 
BRANCH  16  18
ATOM     17  C   UNL     1      -3.104  10.100  14.666  0.00  0.00    +0.000 C 
ATOM     18  S   UNL     1      -3.364  11.049  16.186  0.00  0.00    +0.000 S 
ENDBRANCH  16  18
ENDBRANCH  15  16
ENDBRANCH   5  15
ENDBRANCH   1   5
BRANCH   3  19
ATOM     19  C   UNL     1       2.088   8.337  20.038  0.00  0.00    +0.000 C 
BRANCH  19  20
ATOM     20  C   UNL     1       2.327   6.971  19.377  0.00  0.00    +0.000 C 
ATOM     21  O   UNL     1       1.985   6.745  18.217  0.00  0.00    +0.000 OA
ATOM     22  N   UNL     1       2.882   6.027  20.232  0.00  0.00    +0.000 N 
ATOM     23  H   UNL     1       2.535   6.101  21.187  0.00  0.00    +0.000 HD
BRANCH  22  24
ATOM     24  C   UNL     1       3.160   4.702  19.787  0.00  0.00    +0.000 A 
ATOM     25  C   UNL     1       2.224   3.652  19.855  0.00  0.00    +0.000 A 
ATOM     26 CL   UNL     1       0.563   3.908  20.280  0.00  0.00    +0.000 Cl
ATOM     27  C   UNL     1       2.577   2.356  19.451  0.00  0.00    +0.000 A 
ATOM     28  C   UNL     1       3.857   2.092  18.963  0.00  0.00    +0.000 A 
ATOM     29  C   UNL     1       4.775   3.133  18.843  0.00  0.00    +0.000 A 
ATOM     30  C   UNL     1       4.423   4.429  19.235  0.00  0.00    +0.000 A 
ATOM     31 CL   UNL     1       5.610   5.678  19.068  0.00  0.00    +0.000 Cl
ENDBRANCH  22  24
ENDBRANCH  19  20
ENDBRANCH   3  19
TORSDOF 9
ENDMDL
