MODEL 1
REMARK VINA RESULT:      -8.4      0.000      0.000
REMARK  Name = 
REMARK  8 active torsions:
REMARK  status: ('A' for Active; 'I' for Inactive)
REMARK    1  A    between atoms: C_1  and  N_2
REMARK    2  A    between atoms: N_2  and  C_3
REMARK    3  A    between atoms: C_7  and  N_8
REMARK    4  A    between atoms: N_8  and  C_9
REMARK    5  A    between atoms: C_12  and  N_13
REMARK    6  A    between atoms: N_13  and  S_14
REMARK    7  A    between atoms: S_14  and  C_15
REMARK    8  A    between atoms: C_24  and  C_25
REMARK                            x       y       z     vdW  Elec       q    Type
REMARK                         _______ _______ _______ _____ _____    ______ ____
ROOT
ATOM      1  C   UNL     1       6.386   5.367  15.844  0.00  0.00    +0.000 A 
ATOM      2  C   UNL     1       5.630   6.528  15.827  0.00  0.00    +0.000 A 
ATOM      3  C   UNL     1       4.551   6.680  16.694  0.00  0.00    +0.000 A 
ATOM      4  C   UNL     1       4.148   5.647  17.575  0.00  0.00    +0.000 A 
ATOM      5  C   UNL     1       2.955   5.656  18.360  0.00  0.00    +0.000 A 
ATOM      6  C   UNL     1       2.784   4.671  19.371  0.00  0.00    +0.000 A 
ATOM      7  C   UNL     1       1.686   4.656  20.271  0.00  0.00    +0.000 A 
ATOM      8  C   UNL     1       1.581   3.700  21.274  0.00  0.00    +0.000 A 
ATOM      9  C   UNL     1       2.557   2.723  21.386  0.00  0.00    +0.000 A 
ATOM     10  C   UNL     1       3.635   2.694  20.488  0.00  0.00    +0.000 A 
ATOM     11  C   UNL     1       4.675   1.613  20.633  0.00  0.00    +0.000 C 
ATOM     12  C   UNL     1       3.762   3.658  19.477  0.00  0.00    +0.000 A 
ATOM     13  N   UNL     1       4.804   3.588  18.624  0.00  0.00    +0.000 NA
ATOM     14  C   UNL     1       4.994   4.542  17.700  0.00  0.00    +0.000 A 
ATOM     15  C   UNL     1       6.087   4.423  16.837  0.00  0.00    +0.000 A 
ENDROOT
BRANCH   1  17
ATOM     16  C   UNL     1       7.296   4.850  13.610  0.00  0.00    +0.000 C 
ATOM     17  N   UNL     1       7.478   5.285  14.979  0.00  0.00    +0.000 N 
ATOM     18  H   UNL     1       8.119   6.069  15.082  0.00  0.00    +0.000 HD
ENDBRANCH   1  17
BRANCH   5  19
ATOM     19  N   UNL     1       1.911   6.622  18.150  0.00  0.00    +0.000 N 
ATOM     20  H   UNL     1       1.010   6.166  18.051  0.00  0.00    +0.000 HD
BRANCH  19  21
ATOM     21  C   UNL     1       1.844   7.937  18.667  0.00  0.00    +0.000 A 
ATOM     22  C   UNL     1       1.502   8.168  20.009  0.00  0.00    +0.000 A 
ATOM     23  C   UNL     1       1.115   9.439  20.438  0.00  0.00    +0.000 A 
ATOM     24  C   UNL     1       1.116  10.499  19.540  0.00  0.00    +0.000 A 
ATOM     25  C   UNL     1       1.604  10.321  18.246  0.00  0.00    +0.000 A 
ATOM     26  C   UNL     1       1.971   9.039  17.812  0.00  0.00    +0.000 A 
BRANCH  24  27
ATOM     27  N   UNL     1       0.544  11.734  19.945  0.00  0.00    +0.000 N 
ATOM     28  H   UNL     1       0.568  11.947  20.943  0.00  0.00    +0.000 HD
BRANCH  27  29
ATOM     29  S   UNL     1      -0.881  12.261  19.229  0.00  0.00    +0.000 S 
ATOM     30  C   UNL     1      -1.589  13.230  20.543  0.00  0.00    +0.000 C 
ATOM     31  O   UNL     1      -0.584  13.118  18.103  0.00  0.00    +0.000 OA
ATOM     32  O   UNL     1      -1.696  11.075  19.077  0.00  0.00    +0.000 OA
ENDBRANCH  27  29
ENDBRANCH  24  27
ENDBRANCH  19  21
ENDBRANCH   5  19
TORSDOF 5
ENDMDL
MODEL 2
REMARK VINA RESULT:      -8.3      4.005      9.131
REMARK  Name = 
REMARK  8 active torsions:
REMARK  status: ('A' for Active; 'I' for Inactive)
REMARK    1  A    between atoms: C_1  and  N_2
REMARK    2  A    between atoms: N_2  and  C_3
REMARK    3  A    between atoms: C_7  and  N_8
REMARK    4  A    between atoms: N_8  and  C_9
REMARK    5  A    between atoms: C_12  and  N_13
REMARK    6  A    between atoms: N_13  and  S_14
REMARK    7  A    between atoms: S_14  and  C_15
REMARK    8  A    between atoms: C_24  and  C_25
REMARK                            x       y       z     vdW  Elec       q    Type
REMARK                         _______ _______ _______ _____ _____    ______ ____
ROOT
ATOM      1  C   UNL     1      -3.479  10.718  16.231  0.00  0.00    +0.000 A 
ATOM      2  C   UNL     1      -2.327   9.950  16.306  0.00  0.00    +0.000 A 
ATOM      3  C   UNL     1      -1.505  10.020  17.427  0.00  0.00    +0.000 A 
ATOM      4  C   UNL     1      -1.772  10.908  18.497  0.00  0.00    +0.000 A 
ATOM      5  C   UNL     1      -0.890  11.168  19.590  0.00  0.00    +0.000 A 
ATOM      6  C   UNL     1      -1.371  11.898  20.711  0.00  0.00    +0.000 A 
ATOM      7  C   UNL     1      -0.608  12.119  21.887  0.00  0.00    +0.000 A 
ATOM      8  C   UNL     1      -1.134  12.801  22.978  0.00  0.00    +0.000 A 
ATOM      9  C   UNL     1      -2.426  13.300  22.909  0.00  0.00    +0.000 A 
ATOM     10  C   UNL     1      -3.189  13.125  21.744  0.00  0.00    +0.000 A 
ATOM     11  C   UNL     1      -4.587  13.688  21.700  0.00  0.00    +0.000 C 
ATOM     12  C   UNL     1      -2.678  12.430  20.639  0.00  0.00    +0.000 A 
ATOM     13  N   UNL     1      -3.436  12.297  19.533  0.00  0.00    +0.000 NA
ATOM     14  C   UNL     1      -3.004  11.567  18.493  0.00  0.00    +0.000 A 
ATOM     15  C   UNL     1      -3.826  11.462  17.367  0.00  0.00    +0.000 A 
ENDROOT
BRANCH   1  17
ATOM     16  C   UNL     1      -3.741  10.022  13.879  0.00  0.00    +0.000 C 
ATOM     17  N   UNL     1      -4.284  10.579  15.101  0.00  0.00    +0.000 N 
ATOM     18  H   UNL     1      -5.221  10.249  15.324  0.00  0.00    +0.000 HD
ENDBRANCH   1  17
BRANCH   5  19
ATOM     19  N   UNL     1       0.478  10.726  19.587  0.00  0.00    +0.000 N 
ATOM     20  H   UNL     1       1.070  11.375  20.095  0.00  0.00    +0.000 HD
BRANCH  19  21
ATOM     21  C   UNL     1       0.948   9.391  19.584  0.00  0.00    +0.000 A 
ATOM     22  C   UNL     1       0.839   8.585  20.729  0.00  0.00    +0.000 A 
ATOM     23  C   UNL     1       1.580   7.408  20.845  0.00  0.00    +0.000 A 
ATOM     24  C   UNL     1       2.395   7.000  19.797  0.00  0.00    +0.000 A 
ATOM     25  C   UNL     1       2.391   7.703  18.592  0.00  0.00    +0.000 A 
ATOM     26  C   UNL     1       1.664   8.897  18.486  0.00  0.00    +0.000 A 
BRANCH  24  27
ATOM     27  N   UNL     1       3.276   5.908  20.007  0.00  0.00    +0.000 N 
ATOM     28  H   UNL     1       4.171   5.936  19.514  0.00  0.00    +0.000 HD
BRANCH  27  29
ATOM     29  S   UNL     1       2.659   4.348  20.087  0.00  0.00    +0.000 S 
ATOM     30  C   UNL     1       4.050   3.396  19.518  0.00  0.00    +0.000 C 
ATOM     31  O   UNL     1       2.365   4.000  21.459  0.00  0.00    +0.000 OA
ATOM     32  O   UNL     1       1.640   4.286  19.061  0.00  0.00    +0.000 OA
ENDBRANCH  27  29
ENDBRANCH  24  27
ENDBRANCH  19  21
ENDBRANCH   5  19
TORSDOF 5
ENDMDL
MODEL 3
REMARK VINA RESULT:      -8.3      1.319      1.574
REMARK  Name = 
REMARK  8 active torsions:
REMARK  status: ('A' for Active; 'I' for Inactive)
REMARK    1  A    between atoms: C_1  and  N_2
REMARK    2  A    between atoms: N_2  and  C_3
REMARK    3  A    between atoms: C_7  and  N_8
REMARK    4  A    between atoms: N_8  and  C_9
REMARK    5  A    between atoms: C_12  and  N_13
REMARK    6  A    between atoms: N_13  and  S_14
REMARK    7  A    between atoms: S_14  and  C_15
REMARK    8  A    between atoms: C_24  and  C_25
REMARK                            x       y       z     vdW  Elec       q    Type
REMARK                         _______ _______ _______ _____ _____    ______ ____
ROOT
ATOM      1  C   UNL     1       6.391   5.607  16.089  0.00  0.00    +0.000 A 
ATOM      2  C   UNL     1       6.319   6.781  16.823  0.00  0.00    +0.000 A 
ATOM      3  C   UNL     1       5.459   6.881  17.913  0.00  0.00    +0.000 A 
ATOM      4  C   UNL     1       4.588   5.825  18.278  0.00  0.00    +0.000 A 
ATOM      5  C   UNL     1       3.558   5.913  19.262  0.00  0.00    +0.000 A 
ATOM      6  C   UNL     1       2.912   4.723  19.697  0.00  0.00    +0.000 A 
ATOM      7  C   UNL     1       1.951   4.692  20.741  0.00  0.00    +0.000 A 
ATOM      8  C   UNL     1       1.376   3.500  21.165  0.00  0.00    +0.000 A 
ATOM      9  C   UNL     1       1.730   2.314  20.539  0.00  0.00    +0.000 A 
ATOM     10  C   UNL     1       2.652   2.322  19.481  0.00  0.00    +0.000 A 
ATOM     11  C   UNL     1       3.008   1.016  18.817  0.00  0.00    +0.000 C 
ATOM     12  C   UNL     1       3.249   3.515  19.048  0.00  0.00    +0.000 A 
ATOM     13  N   UNL     1       4.119   3.484  18.019  0.00  0.00    +0.000 NA
ATOM     14  C   UNL     1       4.765   4.595  17.638  0.00  0.00    +0.000 A 
ATOM     15  C   UNL     1       5.655   4.512  16.562  0.00  0.00    +0.000 A 
ENDROOT
BRANCH   1  17
ATOM     16  C   UNL     1       7.047   4.687  13.897  0.00  0.00    +0.000 C 
ATOM     17  N   UNL     1       7.298   5.552  15.031  0.00  0.00    +0.000 N 
ATOM     18  H   UNL     1       7.663   6.468  14.779  0.00  0.00    +0.000 HD
ENDBRANCH   1  17
BRANCH   5  19
ATOM     19  N   UNL     1       3.140   7.171  19.818  0.00  0.00    +0.000 N 
ATOM     20  H   UNL     1       3.934   7.691  20.176  0.00  0.00    +0.000 HD
BRANCH  19  21
ATOM     21  C   UNL     1       2.060   7.980  19.394  0.00  0.00    +0.000 A 
ATOM     22  C   UNL     1       1.887   8.300  18.038  0.00  0.00    +0.000 A 
ATOM     23  C   UNL     1       1.043   9.343  17.653  0.00  0.00    +0.000 A 
ATOM     24  C   UNL     1       0.325  10.040  18.617  0.00  0.00    +0.000 A 
ATOM     25  C   UNL     1       0.362   9.631  19.950  0.00  0.00    +0.000 A 
ATOM     26  C   UNL     1       1.227   8.598  20.336  0.00  0.00    +0.000 A 
BRANCH  24  27
ATOM     27  N   UNL     1      -0.379  11.209  18.227  0.00  0.00    +0.000 N 
ATOM     28  H   UNL     1      -0.127  12.078  18.701  0.00  0.00    +0.000 HD
BRANCH  27  29
ATOM     29  S   UNL     1      -2.028  11.121  17.922  0.00  0.00    +0.000 S 
ATOM     30  C   UNL     1      -2.682  12.064  19.282  0.00  0.00    +0.000 C 
ATOM     31  O   UNL     1      -2.340  11.788  16.678  0.00  0.00    +0.000 OA
ATOM     32  O   UNL     1      -2.385   9.736  18.142  0.00  0.00    +0.000 OA
ENDBRANCH  27  29
ENDBRANCH  24  27
ENDBRANCH  19  21
ENDBRANCH   5  19
TORSDOF 5
ENDMDL
MODEL 4
REMARK VINA RESULT:      -8.3      1.303      1.404
REMARK  Name = 
REMARK  8 active torsions:
REMARK  status: ('A' for Active; 'I' for Inactive)
REMARK    1  A    between atoms: C_1  and  N_2
REMARK    2  A    between atoms: N_2  and  C_3
REMARK    3  A    between atoms: C_7  and  N_8
REMARK    4  A    between atoms: N_8  and  C_9
REMARK    5  A    between atoms: C_12  and  N_13
REMARK    6  A    between atoms: N_13  and  S_14
REMARK    7  A    between atoms: S_14  and  C_15
REMARK    8  A    between atoms: C_24  and  C_25
REMARK                            x       y       z     vdW  Elec       q    Type
REMARK                         _______ _______ _______ _____ _____    ______ ____
ROOT
ATOM      1  C   UNL     1       6.373   5.382  15.890  0.00  0.00    +0.000 A 
ATOM      2  C   UNL     1       5.603   6.535  15.878  0.00  0.00    +0.000 A 
ATOM      3  C   UNL     1       4.528   6.674  16.751  0.00  0.00    +0.000 A 
ATOM      4  C   UNL     1       4.140   5.637  17.633  0.00  0.00    +0.000 A 
ATOM      5  C   UNL     1       2.952   5.631  18.424  0.00  0.00    +0.000 A 
ATOM      6  C   UNL     1       2.797   4.645  19.436  0.00  0.00    +0.000 A 
ATOM      7  C   UNL     1       1.704   4.617  20.341  0.00  0.00    +0.000 A 
ATOM      8  C   UNL     1       1.614   3.659  21.344  0.00  0.00    +0.000 A 
ATOM      9  C   UNL     1       2.602   2.693  21.452  0.00  0.00    +0.000 A 
ATOM     10  C   UNL     1       3.676   2.677  20.547  0.00  0.00    +0.000 A 
ATOM     11  C   UNL     1       4.729   1.607  20.687  0.00  0.00    +0.000 C 
ATOM     12  C   UNL     1       3.786   3.642  19.537  0.00  0.00    +0.000 A 
ATOM     13  N   UNL     1       4.825   3.585  18.678  0.00  0.00    +0.000 NA
ATOM     14  C   UNL     1       5.000   4.541  17.754  0.00  0.00    +0.000 A 
ATOM     15  C   UNL     1       6.089   4.435  16.885  0.00  0.00    +0.000 A 
ENDROOT
BRANCH   1  17
ATOM     16  C   UNL     1       7.283   4.845  13.661  0.00  0.00    +0.000 C 
ATOM     17  N   UNL     1       7.461   5.313  15.020  0.00  0.00    +0.000 N 
ATOM     18  H   UNL     1       8.081   6.115  15.103  0.00  0.00    +0.000 HD
ENDBRANCH   1  17
BRANCH   5  19
ATOM     19  N   UNL     1       1.896   6.586  18.220  0.00  0.00    +0.000 N 
ATOM     20  H   UNL     1       0.990   6.129  18.216  0.00  0.00    +0.000 HD
BRANCH  19  21
ATOM     21  C   UNL     1       1.864   7.934  18.648  0.00  0.00    +0.000 A 
ATOM     22  C   UNL     1       1.481   8.267  19.957  0.00  0.00    +0.000 A 
ATOM     23  C   UNL     1       1.132   9.577  20.287  0.00  0.00    +0.000 A 
ATOM     24  C   UNL     1       1.213  10.575  19.323  0.00  0.00    +0.000 A 
ATOM     25  C   UNL     1       1.743  10.293  18.064  0.00  0.00    +0.000 A 
ATOM     26  C   UNL     1       2.072   8.971  17.730  0.00  0.00    +0.000 A 
BRANCH  24  27
ATOM     27  N   UNL     1       0.679  11.855  19.624  0.00  0.00    +0.000 N 
ATOM     28  H   UNL     1      -0.091  12.183  19.039  0.00  0.00    +0.000 HD
BRANCH  27  29
ATOM     29  S   UNL     1       1.715  13.107  20.047  0.00  0.00    +0.000 S 
ATOM     30  C   UNL     1       0.598  14.492  20.058  0.00  0.00    +0.000 C 
ATOM     31  O   UNL     1       2.234  12.895  21.380  0.00  0.00    +0.000 OA
ATOM     32  O   UNL     1       2.600  13.271  18.914  0.00  0.00    +0.000 OA
ENDBRANCH  27  29
ENDBRANCH  24  27
ENDBRANCH  19  21
ENDBRANCH   5  19
TORSDOF 5
ENDMDL
MODEL 5
REMARK VINA RESULT:      -8.2      1.245      1.597
REMARK  Name = 
REMARK  8 active torsions:
REMARK  status: ('A' for Active; 'I' for Inactive)
REMARK    1  A    between atoms: C_1  and  N_2
REMARK    2  A    between atoms: N_2  and  C_3
REMARK    3  A    between atoms: C_7  and  N_8
REMARK    4  A    between atoms: N_8  and  C_9
REMARK    5  A    between atoms: C_12  and  N_13
REMARK    6  A    between atoms: N_13  and  S_14
REMARK    7  A    between atoms: S_14  and  C_15
REMARK    8  A    between atoms: C_24  and  C_25
REMARK                            x       y       z     vdW  Elec       q    Type
REMARK                         _______ _______ _______ _____ _____    ______ ____
ROOT
ATOM      1  C   UNL     1       5.876   5.492  15.668  0.00  0.00    +0.000 A 
ATOM      2  C   UNL     1       5.933   6.669  16.397  0.00  0.00    +0.000 A 
ATOM      3  C   UNL     1       5.206   6.805  17.577  0.00  0.00    +0.000 A 
ATOM      4  C   UNL     1       4.342   5.785  18.044  0.00  0.00    +0.000 A 
ATOM      5  C   UNL     1       3.433   5.915  19.138  0.00  0.00    +0.000 A 
ATOM      6  C   UNL     1       2.796   4.752  19.651  0.00  0.00    +0.000 A 
ATOM      7  C   UNL     1       1.958   4.761  20.797  0.00  0.00    +0.000 A 
ATOM      8  C   UNL     1       1.390   3.593  21.291  0.00  0.00    +0.000 A 
ATOM      9  C   UNL     1       1.625   2.393  20.638  0.00  0.00    +0.000 A 
ATOM     10  C   UNL     1       2.422   2.362  19.482  0.00  0.00    +0.000 A 
ATOM     11  C   UNL     1       2.650   1.042  18.791  0.00  0.00    +0.000 C 
ATOM     12  C   UNL     1       3.011   3.530  18.977  0.00  0.00    +0.000 A 
ATOM     13  N   UNL     1       3.757   3.462  17.856  0.00  0.00    +0.000 NA
ATOM     14  C   UNL     1       4.399   4.547  17.397  0.00  0.00    +0.000 A 
ATOM     15  C   UNL     1       5.157   4.427  16.229  0.00  0.00    +0.000 A 
ENDROOT
BRANCH   1  17
ATOM     16  C   UNL     1       6.531   4.252  13.638  0.00  0.00    +0.000 C 
ATOM     17  N   UNL     1       6.655   5.399  14.515  0.00  0.00    +0.000 N 
ATOM     18  H   UNL     1       6.738   6.287  14.025  0.00  0.00    +0.000 HD
ENDBRANCH   1  17
BRANCH   5  19
ATOM     19  N   UNL     1       3.130   7.189  19.729  0.00  0.00    +0.000 N 
ATOM     20  H   UNL     1       3.979   7.685  19.979  0.00  0.00    +0.000 HD
BRANCH  19  21
ATOM     21  C   UNL     1       2.031   8.031  19.435  0.00  0.00    +0.000 A 
ATOM     22  C   UNL     1       1.858   8.569  18.150  0.00  0.00    +0.000 A 
ATOM     23  C   UNL     1       0.989   9.640  17.936  0.00  0.00    +0.000 A 
ATOM     24  C   UNL     1       0.248  10.149  18.996  0.00  0.00    +0.000 A 
ATOM     25  C   UNL     1       0.288   9.525  20.242  0.00  0.00    +0.000 A 
ATOM     26  C   UNL     1       1.178   8.463  20.460  0.00  0.00    +0.000 A 
BRANCH  24  27
ATOM     27  N   UNL     1      -0.483  11.350  18.799  0.00  0.00    +0.000 N 
ATOM     28  H   UNL     1      -1.045  11.413  17.949  0.00  0.00    +0.000 HD
BRANCH  27  29
ATOM     29  S   UNL     1       0.222  12.823  19.192  0.00  0.00    +0.000 S 
ATOM     30  C   UNL     1      -0.509  13.143  20.782  0.00  0.00    +0.000 C 
ATOM     31  O   UNL     1       1.651  12.666  19.340  0.00  0.00    +0.000 OA
ATOM     32  O   UNL     1      -0.336  13.776  18.257  0.00  0.00    +0.000 OA
ENDBRANCH  27  29
ENDBRANCH  24  27
ENDBRANCH  19  21
ENDBRANCH   5  19
TORSDOF 5
ENDMDL
MODEL 6
REMARK VINA RESULT:      -7.8      3.825      9.769
REMARK  Name = 
REMARK  8 active torsions:
REMARK  status: ('A' for Active; 'I' for Inactive)
REMARK    1  A    between atoms: C_1  and  N_2
REMARK    2  A    between atoms: N_2  and  C_3
REMARK    3  A    between atoms: C_7  and  N_8
REMARK    4  A    between atoms: N_8  and  C_9
REMARK    5  A    between atoms: C_12  and  N_13
REMARK    6  A    between atoms: N_13  and  S_14
REMARK    7  A    between atoms: S_14  and  C_15
REMARK    8  A    between atoms: C_24  and  C_25
REMARK                            x       y       z     vdW  Elec       q    Type
REMARK                         _______ _______ _______ _____ _____    ______ ____
ROOT
ATOM      1  C   UNL     1      -1.769  13.298  22.657  0.00  0.00    +0.000 A 
ATOM      2  C   UNL     1      -0.450  13.160  22.253  0.00  0.00    +0.000 A 
ATOM      3  C   UNL     1      -0.147  12.639  20.998  0.00  0.00    +0.000 A 
ATOM      4  C   UNL     1      -1.155  12.179  20.116  0.00  0.00    +0.000 A 
ATOM      5  C   UNL     1      -0.921  11.473  18.897  0.00  0.00    +0.000 A 
ATOM      6  C   UNL     1      -2.000  11.273  17.993  0.00  0.00    +0.000 A 
ATOM      7  C   UNL     1      -1.849  10.677  16.714  0.00  0.00    +0.000 A 
ATOM      8  C   UNL     1      -2.924  10.541  15.844  0.00  0.00    +0.000 A 
ATOM      9  C   UNL     1      -4.179  10.976  16.240  0.00  0.00    +0.000 A 
ATOM     10  C   UNL     1      -4.362  11.537  17.514  0.00  0.00    +0.000 A 
ATOM     11  C   UNL     1      -5.742  11.991  17.917  0.00  0.00    +0.000 C 
ATOM     12  C   UNL     1      -3.286  11.691  18.400  0.00  0.00    +0.000 A 
ATOM     13  N   UNL     1      -3.505  12.221  19.620  0.00  0.00    +0.000 NA
ATOM     14  C   UNL     1      -2.482  12.455  20.455  0.00  0.00    +0.000 A 
ATOM     15  C   UNL     1      -2.761  13.003  21.711  0.00  0.00    +0.000 A 
ENDROOT
BRANCH   1  17
ATOM     16  C   UNL     1      -1.508  15.180  24.231  0.00  0.00    +0.000 C 
ATOM     17  N   UNL     1      -2.014  13.861  23.909  0.00  0.00    +0.000 N 
ATOM     18  H   UNL     1      -2.961  13.690  24.238  0.00  0.00    +0.000 HD
ENDBRANCH   1  17
BRANCH   5  19
ATOM     19  N   UNL     1       0.372  10.943  18.560  0.00  0.00    +0.000 N 
ATOM     20  H   UNL     1       1.082  11.667  18.596  0.00  0.00    +0.000 HD
BRANCH  19  21
ATOM     21  C   UNL     1       0.858   9.640  18.817  0.00  0.00    +0.000 A 
ATOM     22  C   UNL     1       0.786   9.083  20.104  0.00  0.00    +0.000 A 
ATOM     23  C   UNL     1       1.544   7.960  20.440  0.00  0.00    +0.000 A 
ATOM     24  C   UNL     1       2.339   7.352  19.476  0.00  0.00    +0.000 A 
ATOM     25  C   UNL     1       2.299   7.795  18.154  0.00  0.00    +0.000 A 
ATOM     26  C   UNL     1       1.555   8.937  17.825  0.00  0.00    +0.000 A 
BRANCH  24  27
ATOM     27  N   UNL     1       3.239   6.332  19.882  0.00  0.00    +0.000 N 
ATOM     28  H   UNL     1       4.187   6.378  19.507  0.00  0.00    +0.000 HD
BRANCH  27  29
ATOM     29  S   UNL     1       2.694   4.749  20.007  0.00  0.00    +0.000 S 
ATOM     30  C   UNL     1       4.128   3.846  19.462  0.00  0.00    +0.000 C 
ATOM     31  O   UNL     1       2.417   4.425  21.388  0.00  0.00    +0.000 OA
ATOM     32  O   UNL     1       1.679   4.611  18.984  0.00  0.00    +0.000 OA
ENDBRANCH  27  29
ENDBRANCH  24  27
ENDBRANCH  19  21
ENDBRANCH   5  19
TORSDOF 5
ENDMDL
MODEL 7
REMARK VINA RESULT:      -7.8      1.064      1.130
REMARK  Name = 
REMARK  8 active torsions:
REMARK  status: ('A' for Active; 'I' for Inactive)
REMARK    1  A    between atoms: C_1  and  N_2
REMARK    2  A    between atoms: N_2  and  C_3
REMARK    3  A    between atoms: C_7  and  N_8
REMARK    4  A    between atoms: N_8  and  C_9
REMARK    5  A    between atoms: C_12  and  N_13
REMARK    6  A    between atoms: N_13  and  S_14
REMARK    7  A    between atoms: S_14  and  C_15
REMARK    8  A    between atoms: C_24  and  C_25
REMARK                            x       y       z     vdW  Elec       q    Type
REMARK                         _______ _______ _______ _____ _____    ______ ____
ROOT
ATOM      1  C   UNL     1       6.386   5.467  15.984  0.00  0.00    +0.000 A 
ATOM      2  C   UNL     1       5.611   6.617  15.973  0.00  0.00    +0.000 A 
ATOM      3  C   UNL     1       4.519   6.740  16.827  0.00  0.00    +0.000 A 
ATOM      4  C   UNL     1       4.120   5.689  17.688  0.00  0.00    +0.000 A 
ATOM      5  C   UNL     1       2.917   5.669  18.457  0.00  0.00    +0.000 A 
ATOM      6  C   UNL     1       2.748   4.668  19.453  0.00  0.00    +0.000 A 
ATOM      7  C   UNL     1       1.639   4.624  20.337  0.00  0.00    +0.000 A 
ATOM      8  C   UNL     1       1.535   3.653  21.326  0.00  0.00    +0.000 A 
ATOM      9  C   UNL     1       2.525   2.689  21.439  0.00  0.00    +0.000 A 
ATOM     10  C   UNL     1       3.616   2.690  20.555  0.00  0.00    +0.000 A 
ATOM     11  C   UNL     1       4.670   1.623  20.700  0.00  0.00    +0.000 C 
ATOM     12  C   UNL     1       3.740   3.669  19.559  0.00  0.00    +0.000 A 
ATOM     13  N   UNL     1       4.794   3.627  18.719  0.00  0.00    +0.000 NA
ATOM     14  C   UNL     1       4.982   4.596  17.811  0.00  0.00    +0.000 A 
ATOM     15  C   UNL     1       6.088   4.506  16.960  0.00  0.00    +0.000 A 
ENDROOT
BRANCH   1  17
ATOM     16  C   UNL     1       7.354   4.893  13.789  0.00  0.00    +0.000 C 
ATOM     17  N   UNL     1       7.490   5.414  15.134  0.00  0.00    +0.000 N 
ATOM     18  H   UNL     1       8.075   6.244  15.198  0.00  0.00    +0.000 HD
ENDBRANCH   1  17
BRANCH   5  19
ATOM     19  N   UNL     1       1.861   6.621  18.246  0.00  0.00    +0.000 N 
ATOM     20  H   UNL     1       0.972   6.152  18.104  0.00  0.00    +0.000 HD
BRANCH  19  21
ATOM     21  C   UNL     1       1.751   7.916  18.803  0.00  0.00    +0.000 A 
ATOM     22  C   UNL     1       1.591   8.096  20.187  0.00  0.00    +0.000 A 
ATOM     23  C   UNL     1       1.156   9.318  20.702  0.00  0.00    +0.000 A 
ATOM     24  C   UNL     1       0.929  10.387  19.843  0.00  0.00    +0.000 A 
ATOM     25  C   UNL     1       1.236  10.273  18.487  0.00  0.00    +0.000 A 
ATOM     26  C   UNL     1       1.651   9.038  17.969  0.00  0.00    +0.000 A 
BRANCH  24  27
ATOM     27  N   UNL     1       0.313  11.556  20.361  0.00  0.00    +0.000 N 
ATOM     28  H   UNL     1      -0.695  11.515  20.517  0.00  0.00    +0.000 HD
BRANCH  27  29
ATOM     29  S   UNL     1       0.796  13.064  19.801  0.00  0.00    +0.000 S 
ATOM     30  C   UNL     1       2.453  13.156  20.441  0.00  0.00    +0.000 C 
ATOM     31  O   UNL     1       0.835  13.069  18.356  0.00  0.00    +0.000 OA
ATOM     32  O   UNL     1      -0.007  14.020  20.534  0.00  0.00    +0.000 OA
ENDBRANCH  27  29
ENDBRANCH  24  27
ENDBRANCH  19  21
ENDBRANCH   5  19
TORSDOF 5
ENDMDL
MODEL 8
REMARK VINA RESULT:      -7.7      3.858      9.011
REMARK  Name = 
REMARK  8 active torsions:
REMARK  status: ('A' for Active; 'I' for Inactive)
REMARK    1  A    between atoms: C_1  and  N_2
REMARK    2  A    between atoms: N_2  and  C_3
REMARK    3  A    between atoms: C_7  and  N_8
REMARK    4  A    between atoms: N_8  and  C_9
REMARK    5  A    between atoms: C_12  and  N_13
REMARK    6  A    between atoms: N_13  and  S_14
REMARK    7  A    between atoms: S_14  and  C_15
REMARK    8  A    between atoms: C_24  and  C_25
REMARK                            x       y       z     vdW  Elec       q    Type
REMARK                         _______ _______ _______ _____ _____    ______ ____
ROOT
ATOM      1  C   UNL     1       1.179  14.080  21.059  0.00  0.00    +0.000 A 
ATOM      2  C   UNL     1       2.119  13.461  20.249  0.00  0.00    +0.000 A 
ATOM      3  C   UNL     1       1.726  12.511  19.310  0.00  0.00    +0.000 A 
ATOM      4  C   UNL     1       0.377  12.097  19.185  0.00  0.00    +0.000 A 
ATOM      5  C   UNL     1      -0.077  11.009  18.379  0.00  0.00    +0.000 A 
ATOM      6  C   UNL     1      -1.472  10.845  18.159  0.00  0.00    +0.000 A 
ATOM      7  C   UNL     1      -2.016   9.861  17.294  0.00  0.00    +0.000 A 
ATOM      8  C   UNL     1      -3.385   9.763  17.074  0.00  0.00    +0.000 A 
ATOM      9  C   UNL     1      -4.243  10.630  17.732  0.00  0.00    +0.000 A 
ATOM     10  C   UNL     1      -3.733  11.590  18.620  0.00  0.00    +0.000 A 
ATOM     11  C   UNL     1      -4.694  12.512  19.326  0.00  0.00    +0.000 C 
ATOM     12  C   UNL     1      -2.354  11.708  18.845  0.00  0.00    +0.000 A 
ATOM     13  N   UNL     1      -1.903  12.633  19.717  0.00  0.00    +0.000 NA
ATOM     14  C   UNL     1      -0.587  12.823  19.890  0.00  0.00    +0.000 A 
ATOM     15  C   UNL     1      -0.169  13.791  20.808  0.00  0.00    +0.000 A 
ENDROOT
BRANCH   1  17
ATOM     16  C   UNL     1       1.920  16.393  21.494  0.00  0.00    +0.000 C 
ATOM     17  N   UNL     1       1.627  15.051  21.954  0.00  0.00    +0.000 N 
ATOM     18  H   UNL     1       1.137  15.018  22.846  0.00  0.00    +0.000 HD
ENDBRANCH   1  17
BRANCH   5  19
ATOM     19  N   UNL     1       0.833  10.063  17.793  0.00  0.00    +0.000 N 
ATOM     20  H   UNL     1       1.292  10.457  16.978  0.00  0.00    +0.000 HD
BRANCH  19  21
ATOM     21  C   UNL     1       1.590   9.073  18.463  0.00  0.00    +0.000 A 
ATOM     22  C   UNL     1       2.498   8.262  17.764  0.00  0.00    +0.000 A 
ATOM     23  C   UNL     1       2.993   7.089  18.335  0.00  0.00    +0.000 A 
ATOM     24  C   UNL     1       2.625   6.744  19.629  0.00  0.00    +0.000 A 
ATOM     25  C   UNL     1       1.852   7.617  20.395  0.00  0.00    +0.000 A 
ATOM     26  C   UNL     1       1.338   8.784  19.811  0.00  0.00    +0.000 A 
BRANCH  24  27
ATOM     27  N   UNL     1       2.987   5.462  20.120  0.00  0.00    +0.000 N 
ATOM     28  H   UNL     1       3.977   5.218  20.084  0.00  0.00    +0.000 HD
BRANCH  27  29
ATOM     29  S   UNL     1       2.007   4.140  19.786  0.00  0.00    +0.000 S 
ATOM     30  C   UNL     1       2.852   2.850  20.673  0.00  0.00    +0.000 C 
ATOM     31  O   UNL     1       0.693   4.337  20.356  0.00  0.00    +0.000 OA
ATOM     32  O   UNL     1       2.181   3.881  18.372  0.00  0.00    +0.000 OA
ENDBRANCH  27  29
ENDBRANCH  24  27
ENDBRANCH  19  21
ENDBRANCH   5  19
TORSDOF 5
ENDMDL
MODEL 9
REMARK VINA RESULT:      -7.5      3.938      9.070
REMARK  Name = 
REMARK  8 active torsions:
REMARK  status: ('A' for Active; 'I' for Inactive)
REMARK    1  A    between atoms: C_1  and  N_2
REMARK    2  A    between atoms: N_2  and  C_3
REMARK    3  A    between atoms: C_7  and  N_8
REMARK    4  A    between atoms: N_8  and  C_9
REMARK    5  A    between atoms: C_12  and  N_13
REMARK    6  A    between atoms: N_13  and  S_14
REMARK    7  A    between atoms: S_14  and  C_15
REMARK    8  A    between atoms: C_24  and  C_25
REMARK                            x       y       z     vdW  Elec       q    Type
REMARK                         _______ _______ _______ _____ _____    ______ ____
ROOT
ATOM      1  C   UNL     1       1.296  14.514  21.373  0.00  0.00    +0.000 A 
ATOM      2  C   UNL     1       2.313  13.896  20.662  0.00  0.00    +0.000 A 
ATOM      3  C   UNL     1       2.021  12.889  19.746  0.00  0.00    +0.000 A 
ATOM      4  C   UNL     1       0.701  12.416  19.549  0.00  0.00    +0.000 A 
ATOM      5  C   UNL     1       0.345  11.275  18.768  0.00  0.00    +0.000 A 
ATOM      6  C   UNL     1      -1.024  11.046  18.460  0.00  0.00    +0.000 A 
ATOM      7  C   UNL     1      -1.470  10.002  17.608  0.00  0.00    +0.000 A 
ATOM      8  C   UNL     1      -2.815   9.840  17.299  0.00  0.00    +0.000 A 
ATOM      9  C   UNL     1      -3.748  10.703  17.852  0.00  0.00    +0.000 A 
ATOM     10  C   UNL     1      -3.337  11.723  18.725  0.00  0.00    +0.000 A 
ATOM     11  C   UNL     1      -4.379  12.638  19.317  0.00  0.00    +0.000 C 
ATOM     12  C   UNL     1      -1.983  11.905  19.039  0.00  0.00    +0.000 A 
ATOM     13  N   UNL     1      -1.629  12.886  19.894  0.00  0.00    +0.000 NA
ATOM     14  C   UNL     1      -0.336  13.136  20.148  0.00  0.00    +0.000 A 
ATOM     15  C   UNL     1      -0.020  14.161  21.044  0.00  0.00    +0.000 A 
ENDROOT
BRANCH   1  17
ATOM     16  C   UNL     1       3.033  15.911  22.432  0.00  0.00    +0.000 C 
ATOM     17  N   UNL     1       1.644  15.543  22.249  0.00  0.00    +0.000 N 
ATOM     18  H   UNL     1       1.010  16.337  22.193  0.00  0.00    +0.000 HD
ENDBRANCH   1  17
BRANCH   5  19
ATOM     19  N   UNL     1       1.327  10.339  18.294  0.00  0.00    +0.000 N 
ATOM     20  H   UNL     1       2.181  10.815  18.021  0.00  0.00    +0.000 HD
BRANCH  19  21
ATOM     21  C   UNL     1       1.520   9.006  18.726  0.00  0.00    +0.000 A 
ATOM     22  C   UNL     1       1.268   8.634  20.056  0.00  0.00    +0.000 A 
ATOM     23  C   UNL     1       1.759   7.431  20.566  0.00  0.00    +0.000 A 
ATOM     24  C   UNL     1       2.461   6.565  19.736  0.00  0.00    +0.000 A 
ATOM     25  C   UNL     1       2.581   6.844  18.374  0.00  0.00    +0.000 A 
ATOM     26  C   UNL     1       2.107   8.064  17.870  0.00  0.00    +0.000 A 
BRANCH  24  27
ATOM     27  N   UNL     1       3.108   5.443  20.315  0.00  0.00    +0.000 N 
ATOM     28  H   UNL     1       4.050   5.232  19.983  0.00  0.00    +0.000 HD
BRANCH  27  29
ATOM     29  S   UNL     1       2.228   4.046  20.622  0.00  0.00    +0.000 S 
ATOM     30  C   UNL     1       3.098   2.862  19.618  0.00  0.00    +0.000 C 
ATOM     31  O   UNL     1       2.348   3.678  22.015  0.00  0.00    +0.000 OA
ATOM     32  O   UNL     1       0.934   4.266  20.011  0.00  0.00    +0.000 OA
ENDBRANCH  27  29
ENDBRANCH  24  27
ENDBRANCH  19  21
ENDBRANCH   5  19
TORSDOF 5
ENDMDL
