MODEL 1
REMARK VINA RESULT:      -9.0      0.000      0.000
REMARK  Name = 
REMARK  7 active torsions:
REMARK  status: ('A' for Active; 'I' for Inactive)
REMARK    1  A    between atoms: C_2  and  C_7
REMARK    2  A    between atoms: N_3  and  C_4
REMARK    3  A    between atoms: N_9  and  C_10
REMARK    4  A    between atoms: C_14  and  C_15
REMARK    5  A    between atoms: C_18  and  C_19
REMARK    6  A    between atoms: C_21  and  C_22
REMARK    7  A    between atoms: C_22  and  O_24
REMARK                            x       y       z     vdW  Elec       q    Type
REMARK                         _______ _______ _______ _____ _____    ______ ____
ROOT
ATOM      1  C   UNL     1      -0.944  11.915  19.468  0.00  0.00    +0.000 A 
ATOM      2  C   UNL     1      -0.169  12.972  18.961  0.00  0.00    +0.000 A 
ATOM      3  C   UNL     1       1.158  12.777  18.574  0.00  0.00    +0.000 A 
ATOM      4  C   UNL     1       1.740  11.515  18.685  0.00  0.00    +0.000 A 
ATOM      5  C   UNL     1       1.000  10.414  19.141  0.00  0.00    +0.000 A 
ATOM      6  C   UNL     1      -0.333  10.647  19.528  0.00  0.00    +0.000 A 
ENDROOT
BRANCH   1   9
ATOM      7  C   UNL     1      -3.791  12.678  21.755  0.00  0.00    +0.000 A 
ATOM      8  C   UNL     1      -2.587  12.481  21.197  0.00  0.00    +0.000 A 
ATOM      9  N   UNL     1      -2.311  12.107  19.881  0.00  0.00    +0.000 N 
ATOM     10  C   UNL     1      -3.434  11.968  18.981  0.00  0.00    +0.000 A 
ATOM     11  N   UNL     1      -3.253  11.627  17.677  0.00  0.00    +0.000 NA
ATOM     12  C   UNL     1      -4.320  11.559  16.849  0.00  0.00    +0.000 A 
ATOM     13  C   UNL     1      -5.616  11.799  17.252  0.00  0.00    +0.000 A 
ATOM     14  C   UNL     1      -5.827  12.106  18.587  0.00  0.00    +0.000 A 
ATOM     15  C   UNL     1      -4.732  12.185  19.459  0.00  0.00    +0.000 A 
ATOM     16  C   UNL     1      -4.965  12.498  20.877  0.00  0.00    +0.000 A 
ATOM     17  O   UNL     1      -6.111  12.618  21.306  0.00  0.00    +0.000 OA
BRANCH   7  19
ATOM     18  O   UNL     1      -4.368  12.338  24.036  0.00  0.00    +0.000 OA
ATOM     19  C   UNL     1      -3.865  13.073  23.193  0.00  0.00    +0.000 C 
ATOM     20  N   UNL     1      -3.328  14.307  23.474  0.00  0.00    +0.000 N 
ATOM     21  H   UNL     1      -2.943  14.852  22.700  0.00  0.00    +0.000 HD
BRANCH  20  22
ATOM     22  C   UNL     1      -3.331  14.893  24.773  0.00  0.00    +0.000 C 
ATOM     23  C   UNL     1      -2.423  16.058  25.062  0.00  0.00    +0.000 C 
ATOM     24  C   UNL     1      -3.907  16.265  24.991  0.00  0.00    +0.000 C 
ENDBRANCH  20  22
ENDBRANCH   7  19
ENDBRANCH   1   9
BRANCH   5  25
ATOM     25  C   UNL     1       1.557   9.044  19.136  0.00  0.00    +0.000 A 
ATOM     26  C   UNL     1       1.535   8.215  20.270  0.00  0.00    +0.000 A 
ATOM     27  C   UNL     1       1.979   6.885  20.209  0.00  0.00    +0.000 A 
ATOM     28  C   UNL     1       2.465   6.331  19.016  0.00  0.00    +0.000 A 
ATOM     29  C   UNL     1       2.527   7.174  17.900  0.00  0.00    +0.000 A 
ATOM     30  C   UNL     1       2.078   8.495  17.955  0.00  0.00    +0.000 A 
BRANCH  28  31
ATOM     31  C   UNL     1       2.918   4.895  18.916  0.00  0.00    +0.000 C 
ATOM     32  C   UNL     1       3.100   4.284  17.542  0.00  0.00    +0.000 C 
ATOM     33  C   UNL     1       1.969   3.819  18.419  0.00  0.00    +0.000 C 
BRANCH  33  34
ATOM     34  C   UNL     1       2.018   2.451  18.995  0.00  0.00    +0.000 C 
ATOM     35  O   UNL     1       1.589   2.182  20.105  0.00  0.00    +0.000 OA
BRANCH  34  36
ATOM     36  O   UNL     1       2.614   1.551  18.185  0.00  0.00    +0.000 OA
ATOM     37  H   UNL     1       2.183   1.472  17.315  0.00  0.00    +0.000 HD
ENDBRANCH  34  36
ENDBRANCH  33  34
ENDBRANCH  28  31
ENDBRANCH   5  25
TORSDOF 7
ENDMDL
MODEL 2
REMARK VINA RESULT:      -8.7      0.619      1.155
REMARK  Name = 
REMARK  7 active torsions:
REMARK  status: ('A' for Active; 'I' for Inactive)
REMARK    1  A    between atoms: C_2  and  C_7
REMARK    2  A    between atoms: N_3  and  C_4
REMARK    3  A    between atoms: N_9  and  C_10
REMARK    4  A    between atoms: C_14  and  C_15
REMARK    5  A    between atoms: C_18  and  C_19
REMARK    6  A    between atoms: C_21  and  C_22
REMARK    7  A    between atoms: C_22  and  O_24
REMARK                            x       y       z     vdW  Elec       q    Type
REMARK                         _______ _______ _______ _____ _____    ______ ____
ROOT
ATOM      1  C   UNL     1      -1.166  12.071  19.512  0.00  0.00    +0.000 A 
ATOM      2  C   UNL     1      -0.442  13.158  18.992  0.00  0.00    +0.000 A 
ATOM      3  C   UNL     1       0.872  13.006  18.548  0.00  0.00    +0.000 A 
ATOM      4  C   UNL     1       1.493  11.759  18.612  0.00  0.00    +0.000 A 
ATOM      5  C   UNL     1       0.803  10.631  19.079  0.00  0.00    +0.000 A 
ATOM      6  C   UNL     1      -0.519  10.820  19.524  0.00  0.00    +0.000 A 
ENDROOT
BRANCH   1   9
ATOM      7  C   UNL     1      -3.935  12.722  21.925  0.00  0.00    +0.000 A 
ATOM      8  C   UNL     1      -2.751  12.566  21.316  0.00  0.00    +0.000 A 
ATOM      9  N   UNL     1      -2.520  12.218  19.984  0.00  0.00    +0.000 N 
ATOM     10  C   UNL     1      -3.675  12.059  19.130  0.00  0.00    +0.000 A 
ATOM     11  N   UNL     1      -3.539  11.741  17.814  0.00  0.00    +0.000 NA
ATOM     12  C   UNL     1      -4.638  11.653  17.030  0.00  0.00    +0.000 A 
ATOM     13  C   UNL     1      -5.922  11.851  17.491  0.00  0.00    +0.000 A 
ATOM     14  C   UNL     1      -6.085  12.134  18.838  0.00  0.00    +0.000 A 
ATOM     15  C   UNL     1      -4.957  12.232  19.663  0.00  0.00    +0.000 A 
ATOM     16  C   UNL     1      -5.140  12.520  21.095  0.00  0.00    +0.000 A 
ATOM     17  O   UNL     1      -6.269  12.601  21.573  0.00  0.00    +0.000 OA
BRANCH   7  19
ATOM     18  O   UNL     1      -4.367  12.318  24.229  0.00  0.00    +0.000 OA
ATOM     19  C   UNL     1      -3.959  13.095  23.371  0.00  0.00    +0.000 C 
ATOM     20  N   UNL     1      -3.494  14.360  23.641  0.00  0.00    +0.000 N 
ATOM     21  H   UNL     1      -3.189  14.939  22.856  0.00  0.00    +0.000 HD
BRANCH  20  22
ATOM     22  C   UNL     1      -3.469  14.931  24.947  0.00  0.00    +0.000 C 
ATOM     23  C   UNL     1      -2.150  15.312  25.563  0.00  0.00    +0.000 C 
ATOM     24  C   UNL     1      -3.115  16.379  25.141  0.00  0.00    +0.000 C 
ENDBRANCH  20  22
ENDBRANCH   7  19
ENDBRANCH   1   9
BRANCH   5  25
ATOM     25  C   UNL     1       1.396   9.277  19.026  0.00  0.00    +0.000 A 
ATOM     26  C   UNL     1       1.999   8.760  17.868  0.00  0.00    +0.000 A 
ATOM     27  C   UNL     1       2.642   7.513  17.875  0.00  0.00    +0.000 A 
ATOM     28  C   UNL     1       2.707   6.731  19.036  0.00  0.00    +0.000 A 
ATOM     29  C   UNL     1       2.065   7.229  20.177  0.00  0.00    +0.000 A 
ATOM     30  C   UNL     1       1.432   8.473  20.175  0.00  0.00    +0.000 A 
BRANCH  28  31
ATOM     31  C   UNL     1       3.420   5.401  19.079  0.00  0.00    +0.000 C 
ATOM     32  C   UNL     1       3.404   4.527  17.843  0.00  0.00    +0.000 C 
ATOM     33  C   UNL     1       2.632   4.104  19.063  0.00  0.00    +0.000 C 
BRANCH  33  34
ATOM     34  C   UNL     1       3.103   2.930  19.843  0.00  0.00    +0.000 C 
ATOM     35  O   UNL     1       3.872   2.099  19.391  0.00  0.00    +0.000 OA
BRANCH  34  36
ATOM     36  O   UNL     1       2.570   2.862  21.081  0.00  0.00    +0.000 OA
ATOM     37  H   UNL     1       3.015   2.213  21.656  0.00  0.00    +0.000 HD
ENDBRANCH  34  36
ENDBRANCH  33  34
ENDBRANCH  28  31
ENDBRANCH   5  25
TORSDOF 7
ENDMDL
MODEL 3
REMARK VINA RESULT:      -8.6      4.280      5.824
REMARK  Name = 
REMARK  7 active torsions:
REMARK  status: ('A' for Active; 'I' for Inactive)
REMARK    1  A    between atoms: C_2  and  C_7
REMARK    2  A    between atoms: N_3  and  C_4
REMARK    3  A    between atoms: N_9  and  C_10
REMARK    4  A    between atoms: C_14  and  C_15
REMARK    5  A    between atoms: C_18  and  C_19
REMARK    6  A    between atoms: C_21  and  C_22
REMARK    7  A    between atoms: C_22  and  O_24
REMARK                            x       y       z     vdW  Elec       q    Type
REMARK                         _______ _______ _______ _____ _____    ______ ____
ROOT
ATOM      1  C   UNL     1       1.370   8.815  19.609  0.00  0.00    +0.000 A 
ATOM      2  C   UNL     1       1.037   8.208  20.832  0.00  0.00    +0.000 A 
ATOM      3  C   UNL     1       1.408   6.891  21.112  0.00  0.00    +0.000 A 
ATOM      4  C   UNL     1       2.122   6.151  20.171  0.00  0.00    +0.000 A 
ATOM      5  C   UNL     1       2.520   6.721  18.952  0.00  0.00    +0.000 A 
ATOM      6  C   UNL     1       2.125   8.048  18.700  0.00  0.00    +0.000 A 
ENDROOT
BRANCH   1   9
ATOM      7  C   UNL     1       1.587  12.538  19.537  0.00  0.00    +0.000 A 
ATOM      8  C   UNL     1       1.801  11.226  19.713  0.00  0.00    +0.000 A 
ATOM      9  N   UNL     1       0.984  10.169  19.305  0.00  0.00    +0.000 N 
ATOM     10  C   UNL     1      -0.206  10.502  18.554  0.00  0.00    +0.000 A 
ATOM     11  N   UNL     1      -1.046   9.533  18.101  0.00  0.00    +0.000 NA
ATOM     12  C   UNL     1      -2.121   9.875  17.355  0.00  0.00    +0.000 A 
ATOM     13  C   UNL     1      -2.442  11.175  17.030  0.00  0.00    +0.000 A 
ATOM     14  C   UNL     1      -1.623  12.181  17.518  0.00  0.00    +0.000 A 
ATOM     15  C   UNL     1      -0.502  11.844  18.290  0.00  0.00    +0.000 A 
ATOM     16  C   UNL     1       0.355  12.918  18.816  0.00  0.00    +0.000 A 
ATOM     17  O   UNL     1       0.052  14.096  18.641  0.00  0.00    +0.000 OA
BRANCH   7  19
ATOM     18  O   UNL     1       2.884  13.556  21.250  0.00  0.00    +0.000 OA
ATOM     19  C   UNL     1       2.593  13.510  20.060  0.00  0.00    +0.000 C 
ATOM     20  N   UNL     1       3.146  14.327  19.103  0.00  0.00    +0.000 N 
ATOM     21  H   UNL     1       2.828  14.222  18.137  0.00  0.00    +0.000 HD
BRANCH  20  22
ATOM     22  C   UNL     1       4.095  15.351  19.390  0.00  0.00    +0.000 C 
ATOM     23  C   UNL     1       4.226  16.523  18.455  0.00  0.00    +0.000 C 
ATOM     24  C   UNL     1       3.638  16.717  19.821  0.00  0.00    +0.000 C 
ENDBRANCH  20  22
ENDBRANCH   7  19
ENDBRANCH   1   9
BRANCH   5  25
ATOM     25  C   UNL     1       3.393   5.998  18.002  0.00  0.00    +0.000 A 
ATOM     26  C   UNL     1       3.294   4.614  17.786  0.00  0.00    +0.000 A 
ATOM     27  C   UNL     1       4.067   3.972  16.807  0.00  0.00    +0.000 A 
ATOM     28  C   UNL     1       4.970   4.684  16.006  0.00  0.00    +0.000 A 
ATOM     29  C   UNL     1       5.098   6.056  16.254  0.00  0.00    +0.000 A 
ATOM     30  C   UNL     1       4.325   6.699  17.222  0.00  0.00    +0.000 A 
BRANCH  28  31
ATOM     31  C   UNL     1       5.789   4.023  14.923  0.00  0.00    +0.000 C 
ATOM     32  C   UNL     1       6.844   4.840  14.209  0.00  0.00    +0.000 C 
ATOM     33  C   UNL     1       5.604   4.416  13.469  0.00  0.00    +0.000 C 
BRANCH  33  34
ATOM     34  C   UNL     1       5.720   3.394  12.396  0.00  0.00    +0.000 C 
ATOM     35  O   UNL     1       4.753   2.942  11.805  0.00  0.00    +0.000 OA
BRANCH  34  36
ATOM     36  O   UNL     1       6.989   2.997  12.170  0.00  0.00    +0.000 OA
ATOM     37  H   UNL     1       7.111   2.034  12.252  0.00  0.00    +0.000 HD
ENDBRANCH  34  36
ENDBRANCH  33  34
ENDBRANCH  28  31
ENDBRANCH   5  25
TORSDOF 7
ENDMDL
MODEL 4
REMARK VINA RESULT:      -8.6      1.518      1.712
REMARK  Name = 
REMARK  7 active torsions:
REMARK  status: ('A' for Active; 'I' for Inactive)
REMARK    1  A    between atoms: C_2  and  C_7
REMARK    2  A    between atoms: N_3  and  C_4
REMARK    3  A    between atoms: N_9  and  C_10
REMARK    4  A    between atoms: C_14  and  C_15
REMARK    5  A    between atoms: C_18  and  C_19
REMARK    6  A    between atoms: C_21  and  C_22
REMARK    7  A    between atoms: C_22  and  O_24
REMARK                            x       y       z     vdW  Elec       q    Type
REMARK                         _______ _______ _______ _____ _____    ______ ____
ROOT
ATOM      1  C   UNL     1      -0.608  11.757  18.880  0.00  0.00    +0.000 A 
ATOM      2  C   UNL     1       0.256  12.831  18.605  0.00  0.00    +0.000 A 
ATOM      3  C   UNL     1       1.634  12.642  18.494  0.00  0.00    +0.000 A 
ATOM      4  C   UNL     1       2.181  11.370  18.656  0.00  0.00    +0.000 A 
ATOM      5  C   UNL     1       1.363  10.255  18.887  0.00  0.00    +0.000 A 
ATOM      6  C   UNL     1      -0.022  10.481  18.997  0.00  0.00    +0.000 A 
ENDROOT
BRANCH   1   9
ATOM      7  C   UNL     1      -3.845  12.679  20.486  0.00  0.00    +0.000 A 
ATOM      8  C   UNL     1      -2.555  12.464  20.189  0.00  0.00    +0.000 A 
ATOM      9  N   UNL     1      -2.031  11.941  19.006  0.00  0.00    +0.000 N 
ATOM     10  C   UNL     1      -2.963  11.644  17.942  0.00  0.00    +0.000 A 
ATOM     11  N   UNL     1      -2.535  11.150  16.748  0.00  0.00    +0.000 NA
ATOM     12  C   UNL     1      -3.427  10.935  15.755  0.00  0.00    +0.000 A 
ATOM     13  C   UNL     1      -4.779  11.169  15.879  0.00  0.00    +0.000 A 
ATOM     14  C   UNL     1      -5.242  11.631  17.101  0.00  0.00    +0.000 A 
ATOM     15  C   UNL     1      -4.331  11.864  18.141  0.00  0.00    +0.000 A 
ATOM     16  C   UNL     1      -4.831  12.342  19.440  0.00  0.00    +0.000 A 
ATOM     17  O   UNL     1      -6.039  12.466  19.632  0.00  0.00    +0.000 OA
BRANCH   7  19
ATOM     18  O   UNL     1      -3.505  14.110  22.354  0.00  0.00    +0.000 OA
ATOM     19  C   UNL     1      -4.194  13.246  21.823  0.00  0.00    +0.000 C 
ATOM     20  N   UNL     1      -5.333  12.719  22.385  0.00  0.00    +0.000 N 
ATOM     21  H   UNL     1      -5.833  11.992  21.871  0.00  0.00    +0.000 HD
BRANCH  20  22
ATOM     22  C   UNL     1      -5.822  13.089  23.672  0.00  0.00    +0.000 C 
ATOM     23  C   UNL     1      -6.852  14.180  23.787  0.00  0.00    +0.000 C 
ATOM     24  C   UNL     1      -7.231  12.758  24.077  0.00  0.00    +0.000 C 
ENDBRANCH  20  22
ENDBRANCH   7  19
ENDBRANCH   1   9
BRANCH   5  25
ATOM     25  C   UNL     1       1.910   8.881  18.924  0.00  0.00    +0.000 A 
ATOM     26  C   UNL     1       1.746   8.032  20.031  0.00  0.00    +0.000 A 
ATOM     27  C   UNL     1       2.188   6.700  20.000  0.00  0.00    +0.000 A 
ATOM     28  C   UNL     1       2.812   6.164  18.866  0.00  0.00    +0.000 A 
ATOM     29  C   UNL     1       3.013   7.026  17.781  0.00  0.00    +0.000 A 
ATOM     30  C   UNL     1       2.568   8.349  17.806  0.00  0.00    +0.000 A 
BRANCH  28  31
ATOM     31  C   UNL     1       3.267   4.726  18.795  0.00  0.00    +0.000 C 
ATOM     32  C   UNL     1       3.704   4.167  17.458  0.00  0.00    +0.000 C 
ATOM     33  C   UNL     1       2.423   3.685  18.083  0.00  0.00    +0.000 C 
BRANCH  33  34
ATOM     34  C   UNL     1       2.353   2.294  18.601  0.00  0.00    +0.000 C 
ATOM     35  O   UNL     1       1.738   1.993  19.610  0.00  0.00    +0.000 OA
BRANCH  34  36
ATOM     36  O   UNL     1       3.063   1.413  17.866  0.00  0.00    +0.000 OA
ATOM     37  H   UNL     1       3.059   0.512  18.236  0.00  0.00    +0.000 HD
ENDBRANCH  34  36
ENDBRANCH  33  34
ENDBRANCH  28  31
ENDBRANCH   5  25
TORSDOF 7
ENDMDL
MODEL 5
REMARK VINA RESULT:      -8.6      1.353      1.861
REMARK  Name = 
REMARK  7 active torsions:
REMARK  status: ('A' for Active; 'I' for Inactive)
REMARK    1  A    between atoms: C_2  and  C_7
REMARK    2  A    between atoms: N_3  and  C_4
REMARK    3  A    between atoms: N_9  and  C_10
REMARK    4  A    between atoms: C_14  and  C_15
REMARK    5  A    between atoms: C_18  and  C_19
REMARK    6  A    between atoms: C_21  and  C_22
REMARK    7  A    between atoms: C_22  and  O_24
REMARK                            x       y       z     vdW  Elec       q    Type
REMARK                         _______ _______ _______ _____ _____    ______ ____
ROOT
ATOM      1  C   UNL     1      -1.173  12.318  19.621  0.00  0.00    +0.000 A 
ATOM      2  C   UNL     1      -0.425  13.424  19.185  0.00  0.00    +0.000 A 
ATOM      3  C   UNL     1       0.889  13.278  18.736  0.00  0.00    +0.000 A 
ATOM      4  C   UNL     1       1.484  12.017  18.711  0.00  0.00    +0.000 A 
ATOM      5  C   UNL     1       0.768  10.872  19.091  0.00  0.00    +0.000 A 
ATOM      6  C   UNL     1      -0.552  11.056  19.544  0.00  0.00    +0.000 A 
ENDROOT
BRANCH   1   9
ATOM      7  C   UNL     1      -3.939  13.129  21.988  0.00  0.00    +0.000 A 
ATOM      8  C   UNL     1      -2.757  12.956  21.380  0.00  0.00    +0.000 A 
ATOM      9  N   UNL     1      -2.527  12.458  20.096  0.00  0.00    +0.000 N 
ATOM     10  C   UNL     1      -3.684  12.141  19.290  0.00  0.00    +0.000 A 
ATOM     11  N   UNL     1      -3.549  11.669  18.021  0.00  0.00    +0.000 NA
ATOM     12  C   UNL     1      -4.652  11.435  17.275  0.00  0.00    +0.000 A 
ATOM     13  C   UNL     1      -5.938  11.627  17.732  0.00  0.00    +0.000 A 
ATOM     14  C   UNL     1      -6.098  12.065  19.037  0.00  0.00    +0.000 A 
ATOM     15  C   UNL     1      -4.966  12.317  19.823  0.00  0.00    +0.000 A 
ATOM     16  C   UNL     1      -5.143  12.770  21.212  0.00  0.00    +0.000 A 
ATOM     17  O   UNL     1      -6.269  12.856  21.698  0.00  0.00    +0.000 OA
BRANCH   7  19
ATOM     18  O   UNL     1      -3.717  12.970  24.351  0.00  0.00    +0.000 OA
ATOM     19  C   UNL     1      -3.963  13.676  23.378  0.00  0.00    +0.000 C 
ATOM     20  N   UNL     1      -4.281  15.011  23.459  0.00  0.00    +0.000 N 
ATOM     21  H   UNL     1      -4.484  15.512  22.592  0.00  0.00    +0.000 HD
BRANCH  20  22
ATOM     22  C   UNL     1      -4.399  15.721  24.689  0.00  0.00    +0.000 C 
ATOM     23  C   UNL     1      -3.639  17.006  24.879  0.00  0.00    +0.000 C 
ATOM     24  C   UNL     1      -5.134  17.032  24.747  0.00  0.00    +0.000 C 
ENDBRANCH  20  22
ENDBRANCH   7  19
ENDBRANCH   1   9
BRANCH   5  25
ATOM     25  C   UNL     1       1.334   9.514  18.943  0.00  0.00    +0.000 A 
ATOM     26  C   UNL     1       1.957   9.080  17.761  0.00  0.00    +0.000 A 
ATOM     27  C   UNL     1       2.573   7.822  17.682  0.00  0.00    +0.000 A 
ATOM     28  C   UNL     1       2.591   6.947  18.776  0.00  0.00    +0.000 A 
ATOM     29  C   UNL     1       1.930   7.365  19.938  0.00  0.00    +0.000 A 
ATOM     30  C   UNL     1       1.323   8.619  20.023  0.00  0.00    +0.000 A 
BRANCH  28  31
ATOM     31  C   UNL     1       3.275   5.601  18.728  0.00  0.00    +0.000 C 
ATOM     32  C   UNL     1       3.380   4.793  20.003  0.00  0.00    +0.000 C 
ATOM     33  C   UNL     1       4.620   5.396  19.400  0.00  0.00    +0.000 C 
BRANCH  33  34
ATOM     34  C   UNL     1       5.634   4.499  18.790  0.00  0.00    +0.000 C 
ATOM     35  O   UNL     1       6.464   4.887  17.984  0.00  0.00    +0.000 OA
BRANCH  34  36
ATOM     36  O   UNL     1       5.522   3.214  19.189  0.00  0.00    +0.000 OA
ATOM     37  H   UNL     1       6.278   2.909  19.722  0.00  0.00    +0.000 HD
ENDBRANCH  34  36
ENDBRANCH  33  34
ENDBRANCH  28  31
ENDBRANCH   5  25
TORSDOF 7
ENDMDL
MODEL 6
REMARK VINA RESULT:      -8.4      2.599      3.226
REMARK  Name = 
REMARK  7 active torsions:
REMARK  status: ('A' for Active; 'I' for Inactive)
REMARK    1  A    between atoms: C_2  and  C_7
REMARK    2  A    between atoms: N_3  and  C_4
REMARK    3  A    between atoms: N_9  and  C_10
REMARK    4  A    between atoms: C_14  and  C_15
REMARK    5  A    between atoms: C_18  and  C_19
REMARK    6  A    between atoms: C_21  and  C_22
REMARK    7  A    between atoms: C_22  and  O_24
REMARK                            x       y       z     vdW  Elec       q    Type
REMARK                         _______ _______ _______ _____ _____    ______ ____
ROOT
ATOM      1  C   UNL     1      -1.541  11.466  19.753  0.00  0.00    +0.000 A 
ATOM      2  C   UNL     1      -1.047  12.338  20.739  0.00  0.00    +0.000 A 
ATOM      3  C   UNL     1       0.189  12.117  21.347  0.00  0.00    +0.000 A 
ATOM      4  C   UNL     1       0.962  11.016  20.982  0.00  0.00    +0.000 A 
ATOM      5  C   UNL     1       0.540  10.138  19.972  0.00  0.00    +0.000 A 
ATOM      6  C   UNL     1      -0.714  10.387  19.383  0.00  0.00    +0.000 A 
ENDROOT
BRANCH   1   9
ATOM      7  C   UNL     1      -5.075  12.607  19.406  0.00  0.00    +0.000 A 
ATOM      8  C   UNL     1      -3.828  12.345  19.824  0.00  0.00    +0.000 A 
ATOM      9  N   UNL     1      -2.821  11.677  19.125  0.00  0.00    +0.000 N 
ATOM     10  C   UNL     1      -3.114  11.263  17.772  0.00  0.00    +0.000 A 
ATOM     11  N   UNL     1      -2.182  10.625  17.014  0.00  0.00    +0.000 NA
ATOM     12  C   UNL     1      -2.471  10.299  15.733  0.00  0.00    +0.000 A 
ATOM     13  C   UNL     1      -3.685  10.560  15.134  0.00  0.00    +0.000 A 
ATOM     14  C   UNL     1      -4.663  11.170  15.903  0.00  0.00    +0.000 A 
ATOM     15  C   UNL     1      -4.379  11.519  17.231  0.00  0.00    +0.000 A 
ATOM     16  C   UNL     1      -5.427  12.155  18.045  0.00  0.00    +0.000 A 
ATOM     17  O   UNL     1      -6.558  12.313  17.589  0.00  0.00    +0.000 OA
BRANCH   7  19
ATOM     18  O   UNL     1      -6.257  14.525  20.166  0.00  0.00    +0.000 OA
ATOM     19  C   UNL     1      -6.005  13.335  20.320  0.00  0.00    +0.000 C 
ATOM     20  N   UNL     1      -6.537  12.562  21.326  0.00  0.00    +0.000 N 
ATOM     21  H   UNL     1      -6.255  11.582  21.380  0.00  0.00    +0.000 HD
BRANCH  20  22
ATOM     22  C   UNL     1      -7.413  13.067  22.330  0.00  0.00    +0.000 C 
ATOM     23  C   UNL     1      -7.725  12.220  23.535  0.00  0.00    +0.000 C 
ATOM     24  C   UNL     1      -6.883  13.452  23.683  0.00  0.00    +0.000 C 
ENDBRANCH  20  22
ENDBRANCH   7  19
ENDBRANCH   1   9
BRANCH   5  25
ATOM     25  C   UNL     1       1.405   9.046  19.476  0.00  0.00    +0.000 A 
ATOM     26  C   UNL     1       1.705   7.910  20.245  0.00  0.00    +0.000 A 
ATOM     27  C   UNL     1       2.445   6.844  19.712  0.00  0.00    +0.000 A 
ATOM     28  C   UNL     1       2.918   6.870  18.393  0.00  0.00    +0.000 A 
ATOM     29  C   UNL     1       2.656   8.024  17.645  0.00  0.00    +0.000 A 
ATOM     30  C   UNL     1       1.912   9.083  18.169  0.00  0.00    +0.000 A 
BRANCH  28  31
ATOM     31  C   UNL     1       3.690   5.723  17.786  0.00  0.00    +0.000 C 
ATOM     32  C   UNL     1       4.642   4.941  18.665  0.00  0.00    +0.000 C 
ATOM     33  C   UNL     1       5.190   5.828  17.579  0.00  0.00    +0.000 C 
BRANCH  33  34
ATOM     34  C   UNL     1       5.829   5.203  16.392  0.00  0.00    +0.000 C 
ATOM     35  O   UNL     1       6.094   5.825  15.377  0.00  0.00    +0.000 OA
BRANCH  34  36
ATOM     36  O   UNL     1       6.050   3.880  16.538  0.00  0.00    +0.000 OA
ATOM     37  H   UNL     1       5.386   3.326  16.088  0.00  0.00    +0.000 HD
ENDBRANCH  34  36
ENDBRANCH  33  34
ENDBRANCH  28  31
ENDBRANCH   5  25
TORSDOF 7
ENDMDL
MODEL 7
REMARK VINA RESULT:      -8.3      1.924      2.520
REMARK  Name = 
REMARK  7 active torsions:
REMARK  status: ('A' for Active; 'I' for Inactive)
REMARK    1  A    between atoms: C_2  and  C_7
REMARK    2  A    between atoms: N_3  and  C_4
REMARK    3  A    between atoms: N_9  and  C_10
REMARK    4  A    between atoms: C_14  and  C_15
REMARK    5  A    between atoms: C_18  and  C_19
REMARK    6  A    between atoms: C_21  and  C_22
REMARK    7  A    between atoms: C_22  and  O_24
REMARK                            x       y       z     vdW  Elec       q    Type
REMARK                         _______ _______ _______ _____ _____    ______ ____
ROOT
ATOM      1  C   UNL     1      -1.281  11.413  19.635  0.00  0.00    +0.000 A 
ATOM      2  C   UNL     1      -0.622  12.396  20.392  0.00  0.00    +0.000 A 
ATOM      3  C   UNL     1       0.653  12.172  20.916  0.00  0.00    +0.000 A 
ATOM      4  C   UNL     1       1.298  10.956  20.692  0.00  0.00    +0.000 A 
ATOM      5  C   UNL     1       0.706   9.957  19.905  0.00  0.00    +0.000 A 
ATOM      6  C   UNL     1      -0.582  10.214  19.397  0.00  0.00    +0.000 A 
ENDROOT
BRANCH   1   9
ATOM      7  C   UNL     1      -4.831  12.554  19.539  0.00  0.00    +0.000 A 
ATOM      8  C   UNL     1      -3.558  12.290  19.869  0.00  0.00    +0.000 A 
ATOM      9  N   UNL     1      -2.601  11.628  19.098  0.00  0.00    +0.000 N 
ATOM     10  C   UNL     1      -2.987  11.223  17.764  0.00  0.00    +0.000 A 
ATOM     11  N   UNL     1      -2.109  10.591  16.940  0.00  0.00    +0.000 NA
ATOM     12  C   UNL     1      -2.485  10.275  15.680  0.00  0.00    +0.000 A 
ATOM     13  C   UNL     1      -3.737  10.539  15.167  0.00  0.00    +0.000 A 
ATOM     14  C   UNL     1      -4.660  11.143  16.006  0.00  0.00    +0.000 A 
ATOM     15  C   UNL     1      -4.286  11.482  17.313  0.00  0.00    +0.000 A 
ATOM     16  C   UNL     1      -5.276  12.112  18.202  0.00  0.00    +0.000 A 
ATOM     17  O   UNL     1      -6.435  12.272  17.826  0.00  0.00    +0.000 OA
BRANCH   7  19
ATOM     18  O   UNL     1      -6.144  14.392  20.283  0.00  0.00    +0.000 OA
ATOM     19  C   UNL     1      -5.696  13.275  20.520  0.00  0.00    +0.000 C 
ATOM     20  N   UNL     1      -5.935  12.584  21.685  0.00  0.00    +0.000 N 
ATOM     21  H   UNL     1      -5.506  11.664  21.796  0.00  0.00    +0.000 HD
BRANCH  20  22
ATOM     22  C   UNL     1      -6.700  13.105  22.769  0.00  0.00    +0.000 C 
ATOM     23  C   UNL     1      -6.466  12.579  24.160  0.00  0.00    +0.000 C 
ATOM     24  C   UNL     1      -6.056  13.979  23.808  0.00  0.00    +0.000 C 
ENDBRANCH  20  22
ENDBRANCH   7  19
ENDBRANCH   1   9
BRANCH   5  25
ATOM     25  C   UNL     1       1.429   8.719  19.543  0.00  0.00    +0.000 A 
ATOM     26  C   UNL     1       2.072   8.555  18.305  0.00  0.00    +0.000 A 
ATOM     27  C   UNL     1       2.835   7.411  18.026  0.00  0.00    +0.000 A 
ATOM     28  C   UNL     1       2.985   6.385  18.970  0.00  0.00    +0.000 A 
ATOM     29  C   UNL     1       2.305   6.532  20.185  0.00  0.00    +0.000 A 
ATOM     30  C   UNL     1       1.552   7.673  20.468  0.00  0.00    +0.000 A 
BRANCH  28  31
ATOM     31  C   UNL     1       3.826   5.159  18.708  0.00  0.00    +0.000 C 
ATOM     32  C   UNL     1       3.746   4.500  17.347  0.00  0.00    +0.000 C 
ATOM     33  C   UNL     1       3.174   3.797  18.549  0.00  0.00    +0.000 C 
BRANCH  33  34
ATOM     34  C   UNL     1       3.851   2.578  19.061  0.00  0.00    +0.000 C 
ATOM     35  O   UNL     1       4.141   2.424  20.235  0.00  0.00    +0.000 OA
BRANCH  34  36
ATOM     36  O   UNL     1       4.141   1.681  18.095  0.00  0.00    +0.000 OA
ATOM     37  H   UNL     1       5.043   1.776  17.740  0.00  0.00    +0.000 HD
ENDBRANCH  34  36
ENDBRANCH  33  34
ENDBRANCH  28  31
ENDBRANCH   5  25
TORSDOF 7
ENDMDL
MODEL 8
REMARK VINA RESULT:      -8.2      2.588      3.297
REMARK  Name = 
REMARK  7 active torsions:
REMARK  status: ('A' for Active; 'I' for Inactive)
REMARK    1  A    between atoms: C_2  and  C_7
REMARK    2  A    between atoms: N_3  and  C_4
REMARK    3  A    between atoms: N_9  and  C_10
REMARK    4  A    between atoms: C_14  and  C_15
REMARK    5  A    between atoms: C_18  and  C_19
REMARK    6  A    between atoms: C_21  and  C_22
REMARK    7  A    between atoms: C_22  and  O_24
REMARK                            x       y       z     vdW  Elec       q    Type
REMARK                         _______ _______ _______ _____ _____    ______ ____
ROOT
ATOM      1  C   UNL     1      -1.406  11.385  19.743  0.00  0.00    +0.000 A 
ATOM      2  C   UNL     1      -0.871  12.216  20.743  0.00  0.00    +0.000 A 
ATOM      3  C   UNL     1       0.376  11.952  21.313  0.00  0.00    +0.000 A 
ATOM      4  C   UNL     1       1.117  10.848  20.893  0.00  0.00    +0.000 A 
ATOM      5  C   UNL     1       0.652  10.011  19.868  0.00  0.00    +0.000 A 
ATOM      6  C   UNL     1      -0.611  10.304  19.318  0.00  0.00    +0.000 A 
ENDROOT
BRANCH   1   9
ATOM      7  C   UNL     1      -4.907  12.650  19.505  0.00  0.00    +0.000 A 
ATOM      8  C   UNL     1      -3.658  12.345  19.884  0.00  0.00    +0.000 A 
ATOM      9  N   UNL     1      -2.697  11.642  19.155  0.00  0.00    +0.000 N 
ATOM     10  C   UNL     1      -3.047  11.238  17.812  0.00  0.00    +0.000 A 
ATOM     11  N   UNL     1      -2.162  10.567  17.026  0.00  0.00    +0.000 NA
ATOM     12  C   UNL     1      -2.501  10.252  15.756  0.00  0.00    +0.000 A 
ATOM     13  C   UNL     1      -3.723  10.555  15.194  0.00  0.00    +0.000 A 
ATOM     14  C   UNL     1      -4.655  11.200  15.992  0.00  0.00    +0.000 A 
ATOM     15  C   UNL     1      -4.318  11.538  17.310  0.00  0.00    +0.000 A 
ATOM     16  C   UNL     1      -5.317  12.211  18.155  0.00  0.00    +0.000 A 
ATOM     17  O   UNL     1      -6.455  12.408  17.734  0.00  0.00    +0.000 OA
BRANCH   7  19
ATOM     18  O   UNL     1      -6.045  14.595  20.265  0.00  0.00    +0.000 OA
ATOM     19  C   UNL     1      -5.782  13.411  20.446  0.00  0.00    +0.000 C 
ATOM     20  N   UNL     1      -6.252  12.675  21.508  0.00  0.00    +0.000 N 
ATOM     21  H   UNL     1      -5.966  11.696  21.580  0.00  0.00    +0.000 HD
BRANCH  20  22
ATOM     22  C   UNL     1      -7.068  13.215  22.545  0.00  0.00    +0.000 C 
ATOM     23  C   UNL     1      -6.901  12.716  23.954  0.00  0.00    +0.000 C 
ATOM     24  C   UNL     1      -6.474  14.109  23.597  0.00  0.00    +0.000 C 
ENDBRANCH  20  22
ENDBRANCH   7  19
ENDBRANCH   1   9
BRANCH   5  25
ATOM     25  C   UNL     1       1.482   8.919  19.315  0.00  0.00    +0.000 A 
ATOM     26  C   UNL     1       2.031   8.967  18.023  0.00  0.00    +0.000 A 
ATOM     27  C   UNL     1       2.897   7.964  17.561  0.00  0.00    +0.000 A 
ATOM     28  C   UNL     1       3.247   6.873  18.369  0.00  0.00    +0.000 A 
ATOM     29  C   UNL     1       2.663   6.807  19.639  0.00  0.00    +0.000 A 
ATOM     30  C   UNL     1       1.808   7.807  20.105  0.00  0.00    +0.000 A 
BRANCH  28  31
ATOM     31  C   UNL     1       4.202   5.797  17.909  0.00  0.00    +0.000 C 
ATOM     32  C   UNL     1       5.071   5.108  18.938  0.00  0.00    +0.000 C 
ATOM     33  C   UNL     1       5.700   6.035  17.933  0.00  0.00    +0.000 C 
BRANCH  33  34
ATOM     34  C   UNL     1       6.568   5.464  16.871  0.00  0.00    +0.000 C 
ATOM     35  O   UNL     1       6.554   4.283  16.566  0.00  0.00    +0.000 OA
BRANCH  34  36
ATOM     36  O   UNL     1       7.391   6.373  16.307  0.00  0.00    +0.000 OA
ATOM     37  H   UNL     1       7.030   6.766  15.492  0.00  0.00    +0.000 HD
ENDBRANCH  34  36
ENDBRANCH  33  34
ENDBRANCH  28  31
ENDBRANCH   5  25
TORSDOF 7
ENDMDL
MODEL 9
REMARK VINA RESULT:      -8.2      1.579      4.040
REMARK  Name = 
REMARK  7 active torsions:
REMARK  status: ('A' for Active; 'I' for Inactive)
REMARK    1  A    between atoms: C_2  and  C_7
REMARK    2  A    between atoms: N_3  and  C_4
REMARK    3  A    between atoms: N_9  and  C_10
REMARK    4  A    between atoms: C_14  and  C_15
REMARK    5  A    between atoms: C_18  and  C_19
REMARK    6  A    between atoms: C_21  and  C_22
REMARK    7  A    between atoms: C_22  and  O_24
REMARK                            x       y       z     vdW  Elec       q    Type
REMARK                         _______ _______ _______ _____ _____    ______ ____
ROOT
ATOM      1  C   UNL     1      -0.372  11.729  19.206  0.00  0.00    +0.000 A 
ATOM      2  C   UNL     1       0.378  12.722  18.551  0.00  0.00    +0.000 A 
ATOM      3  C   UNL     1       1.654  12.454  18.051  0.00  0.00    +0.000 A 
ATOM      4  C   UNL     1       2.209  11.183  18.196  0.00  0.00    +0.000 A 
ATOM      5  C   UNL     1       1.487  10.143  18.800  0.00  0.00    +0.000 A 
ATOM      6  C   UNL     1       0.206  10.448  19.297  0.00  0.00    +0.000 A 
ENDROOT
BRANCH   1   9
ATOM      7  C   UNL     1      -4.066  12.242  19.190  0.00  0.00    +0.000 A 
ATOM      8  C   UNL     1      -2.787  11.993  18.876  0.00  0.00    +0.000 A 
ATOM      9  N   UNL     1      -1.685  11.997  19.735  0.00  0.00    +0.000 N 
ATOM     10  C   UNL     1      -1.938  12.237  21.138  0.00  0.00    +0.000 A 
ATOM     11  N   UNL     1      -0.925  12.238  22.045  0.00  0.00    +0.000 NA
ATOM     12  C   UNL     1      -1.202  12.411  23.357  0.00  0.00    +0.000 A 
ATOM     13  C   UNL     1      -2.474  12.612  23.848  0.00  0.00    +0.000 A 
ATOM     14  C   UNL     1      -3.516  12.658  22.935  0.00  0.00    +0.000 A 
ATOM     15  C   UNL     1      -3.247  12.476  21.572  0.00  0.00    +0.000 A 
ATOM     16  C   UNL     1      -4.356  12.539  20.607  0.00  0.00    +0.000 A 
ATOM     17  O   UNL     1      -5.492  12.820  20.985  0.00  0.00    +0.000 OA
BRANCH   7  19
ATOM     18  O   UNL     1      -5.171  11.243  17.336  0.00  0.00    +0.000 OA
ATOM     19  C   UNL     1      -5.097  12.191  18.111  0.00  0.00    +0.000 C 
ATOM     20  N   UNL     1      -5.935  13.281  18.070  0.00  0.00    +0.000 N 
ATOM     21  H   UNL     1      -5.786  14.028  18.751  0.00  0.00    +0.000 HD
BRANCH  20  22
ATOM     22  C   UNL     1      -6.961  13.454  17.096  0.00  0.00    +0.000 C 
ATOM     23  C   UNL     1      -7.916  14.609  17.224  0.00  0.00    +0.000 C 
ATOM     24  C   UNL     1      -6.902  14.594  16.119  0.00  0.00    +0.000 C 
ENDBRANCH  20  22
ENDBRANCH   7  19
ENDBRANCH   1   9
BRANCH   5  25
ATOM     25  C   UNL     1       2.003   8.757  18.840  0.00  0.00    +0.000 A 
ATOM     26  C   UNL     1       1.752   7.887  19.915  0.00  0.00    +0.000 A 
ATOM     27  C   UNL     1       2.168   6.548  19.880  0.00  0.00    +0.000 A 
ATOM     28  C   UNL     1       2.851   6.023  18.775  0.00  0.00    +0.000 A 
ATOM     29  C   UNL     1       3.138   6.904  17.726  0.00  0.00    +0.000 A 
ATOM     30  C   UNL     1       2.719   8.235  17.753  0.00  0.00    +0.000 A 
BRANCH  28  31
ATOM     31  C   UNL     1       3.281   4.578  18.700  0.00  0.00    +0.000 C 
ATOM     32  C   UNL     1       3.921   4.075  17.423  0.00  0.00    +0.000 C 
ATOM     33  C   UNL     1       2.544   3.601  17.802  0.00  0.00    +0.000 C 
BRANCH  33  34
ATOM     34  C   UNL     1       2.359   2.188  18.223  0.00  0.00    +0.000 C 
ATOM     35  O   UNL     1       3.279   1.389  18.285  0.00  0.00    +0.000 OA
BRANCH  34  36
ATOM     36  O   UNL     1       1.075   1.873  18.493  0.00  0.00    +0.000 OA
ATOM     37  H   UNL     1       0.451   2.590  18.280  0.00  0.00    +0.000 HD
ENDBRANCH  34  36
ENDBRANCH  33  34
ENDBRANCH  28  31
ENDBRANCH   5  25
TORSDOF 7
ENDMDL
