MODEL 1
REMARK VINA RESULT:      -7.4      0.000      0.000
REMARK  Name = 
REMARK  5 active torsions:
REMARK  status: ('A' for Active; 'I' for Inactive)
REMARK    1  A    between atoms: N_1  and  C_2
REMARK    2  A    between atoms: C_2  and  C_3
REMARK    3  A    between atoms: C_3  and  C_4
REMARK    4  A    between atoms: C_4  and  N_5
REMARK    5  A    between atoms: C_12  and  C_13
REMARK                            x       y       z     vdW  Elec       q    Type
REMARK                         _______ _______ _______ _____ _____    ______ ____
ROOT
ATOM      1  N   UNL     1       6.542   5.458  13.907  0.00  0.00    +0.000 N 
ATOM      2  C   UNL     1       6.318   5.047  15.190  0.00  0.00    +0.000 A 
ATOM      3  N   UNL     1       7.410   4.803  15.997  0.00  0.00    +0.000 NA
ATOM      4  C   UNL     1       7.215   4.507  17.250  0.00  0.00    +0.000 A 
ATOM      5  N   UNL     1       8.252   4.252  18.111  0.00  0.00    +0.000 N 
ATOM      6  N   UNL     1       5.906   4.394  17.692  0.00  0.00    +0.000 N 
ATOM      7  N   UNL     1       5.532   4.090  18.948  0.00  0.00    +0.000 NA
ATOM      8  C   UNL     1       4.206   3.951  18.772  0.00  0.00    +0.000 A 
ATOM      9  N   UNL     1       3.765   4.162  17.479  0.00  0.00    +0.000 NA
ATOM     10  C   UNL     1       4.859   4.505  16.835  0.00  0.00    +0.000 A 
ATOM     11  N   UNL     1       5.071   4.888  15.551  0.00  0.00    +0.000 NA
ATOM     12  H   UNL     1       5.692   5.409  13.358  0.00  0.00    +0.000 HD
ATOM     13  H   UNL     1       9.130   3.997  17.675  0.00  0.00    +0.000 HD
ATOM     14  H   UNL     1       8.014   3.727  18.952  0.00  0.00    +0.000 HD
ENDROOT
BRANCH   8  15
ATOM     15  C   UNL     1       3.276   3.602  19.886  0.00  0.00    +0.000 A 
ATOM     16  C   UNL     1       2.116   4.278  20.208  0.00  0.00    +0.000 A 
ATOM     17  C   UNL     1       1.557   3.626  21.336  0.00  0.00    +0.000 A 
ATOM     18  C   UNL     1       2.423   2.604  21.647  0.00  0.00    +0.000 A 
ATOM     19  O   UNL     1       3.450   2.563  20.761  0.00  0.00    +0.000 OA
ENDBRANCH   8  15
BRANCH   1  20
ATOM     20  C   UNL     1       7.753   5.081  13.205  0.00  0.00    +0.000 C 
BRANCH  20  21
ATOM     21  C   UNL     1       7.392   4.370  11.904  0.00  0.00    +0.000 C 
BRANCH  21  22
ATOM     22  C   UNL     1       6.404   3.243  12.167  0.00  0.00    +0.000 C 
BRANCH  22  23
ATOM     23  N   UNL     1       6.890   1.997  11.594  0.00  0.00    +0.000 NA
ATOM     24  H   UNL     1       7.309   2.183  10.682  0.00  0.00    +0.000 HD
ATOM     25  H   UNL     1       6.111   1.361  11.425  0.00  0.00    +0.000 HD
ENDBRANCH  22  23
ENDBRANCH  21  22
ENDBRANCH  20  21
ENDBRANCH   1  20
TORSDOF 5
ENDMDL
MODEL 2
REMARK VINA RESULT:      -7.3      2.533      7.061
REMARK  Name = 
REMARK  5 active torsions:
REMARK  status: ('A' for Active; 'I' for Inactive)
REMARK    1  A    between atoms: N_1  and  C_2
REMARK    2  A    between atoms: C_2  and  C_3
REMARK    3  A    between atoms: C_3  and  C_4
REMARK    4  A    between atoms: C_4  and  N_5
REMARK    5  A    between atoms: C_12  and  C_13
REMARK                            x       y       z     vdW  Elec       q    Type
REMARK                         _______ _______ _______ _____ _____    ______ ____
ROOT
ATOM      1  N   UNL     1       3.303   2.627  19.886  0.00  0.00    +0.000 N 
ATOM      2  C   UNL     1       4.219   3.243  19.082  0.00  0.00    +0.000 A 
ATOM      3  N   UNL     1       5.185   4.028  19.676  0.00  0.00    +0.000 NA
ATOM      4  C   UNL     1       6.125   4.542  18.936  0.00  0.00    +0.000 A 
ATOM      5  N   UNL     1       7.117   5.333  19.457  0.00  0.00    +0.000 N 
ATOM      6  N   UNL     1       6.066   4.318  17.569  0.00  0.00    +0.000 N 
ATOM      7  N   UNL     1       6.950   4.780  16.666  0.00  0.00    +0.000 NA
ATOM      8  C   UNL     1       6.331   4.422  15.527  0.00  0.00    +0.000 A 
ATOM      9  N   UNL     1       5.128   3.763  15.700  0.00  0.00    +0.000 NA
ATOM     10  C   UNL     1       5.023   3.657  17.006  0.00  0.00    +0.000 A 
ATOM     11  N   UNL     1       4.092   3.061  17.793  0.00  0.00    +0.000 NA
ATOM     12  H   UNL     1       2.536   2.253  19.340  0.00  0.00    +0.000 HD
ATOM     13  H   UNL     1       6.916   5.749  20.358  0.00  0.00    +0.000 HD
ATOM     14  H   UNL     1       7.599   5.939  18.794  0.00  0.00    +0.000 HD
ENDROOT
BRANCH   8  15
ATOM     15  C   UNL     1       6.900   4.704  14.176  0.00  0.00    +0.000 A 
ATOM     16  C   UNL     1       6.516   4.097  12.997  0.00  0.00    +0.000 A 
ATOM     17  C   UNL     1       7.322   4.644  11.968  0.00  0.00    +0.000 A 
ATOM     18  C   UNL     1       8.165   5.538  12.586  0.00  0.00    +0.000 A 
ATOM     19  O   UNL     1       7.900   5.602  13.915  0.00  0.00    +0.000 OA
ENDBRANCH   8  15
BRANCH   1  20
ATOM     20  C   UNL     1       2.928   3.200  21.164  0.00  0.00    +0.000 C 
BRANCH  20  21
ATOM     21  C   UNL     1       1.415   3.109  21.343  0.00  0.00    +0.000 C 
BRANCH  21  22
ATOM     22  C   UNL     1       0.698   3.659  20.119  0.00  0.00    +0.000 C 
BRANCH  22  23
ATOM     23  N   UNL     1       0.306   2.577  19.229  0.00  0.00    +0.000 NA
ATOM     24  H   UNL     1      -0.500   2.088  19.622  0.00  0.00    +0.000 HD
ATOM     25  H   UNL     1       1.055   1.887  19.166  0.00  0.00    +0.000 HD
ENDBRANCH  22  23
ENDBRANCH  21  22
ENDBRANCH  20  21
ENDBRANCH   1  20
TORSDOF 5
ENDMDL
MODEL 3
REMARK VINA RESULT:      -7.3      2.535      7.107
REMARK  Name = 
REMARK  5 active torsions:
REMARK  status: ('A' for Active; 'I' for Inactive)
REMARK    1  A    between atoms: N_1  and  C_2
REMARK    2  A    between atoms: C_2  and  C_3
REMARK    3  A    between atoms: C_3  and  C_4
REMARK    4  A    between atoms: C_4  and  N_5
REMARK    5  A    between atoms: C_12  and  C_13
REMARK                            x       y       z     vdW  Elec       q    Type
REMARK                         _______ _______ _______ _____ _____    ______ ____
ROOT
ATOM      1  N   UNL     1       2.991   2.235  19.548  0.00  0.00    +0.000 N 
ATOM      2  C   UNL     1       3.913   2.946  18.834  0.00  0.00    +0.000 A 
ATOM      3  N   UNL     1       4.737   3.817  19.517  0.00  0.00    +0.000 NA
ATOM      4  C   UNL     1       5.687   4.427  18.869  0.00  0.00    +0.000 A 
ATOM      5  N   UNL     1       6.543   5.306  19.481  0.00  0.00    +0.000 N 
ATOM      6  N   UNL     1       5.779   4.211  17.503  0.00  0.00    +0.000 N 
ATOM      7  N   UNL     1       6.693   4.767  16.687  0.00  0.00    +0.000 NA
ATOM      8  C   UNL     1       6.223   4.360  15.495  0.00  0.00    +0.000 A 
ATOM      9  N   UNL     1       5.079   3.585  15.553  0.00  0.00    +0.000 NA
ATOM     10  C   UNL     1       4.863   3.456  16.844  0.00  0.00    +0.000 A 
ATOM     11  N   UNL     1       3.926   2.765  17.539  0.00  0.00    +0.000 NA
ATOM     12  H   UNL     1       2.319   1.793  18.932  0.00  0.00    +0.000 HD
ATOM     13  H   UNL     1       6.219   5.693  20.359  0.00  0.00    +0.000 HD
ATOM     14  H   UNL     1       7.023   5.963  18.866  0.00  0.00    +0.000 HD
ENDROOT
BRANCH   8  15
ATOM     15  C   UNL     1       6.885   4.709  14.203  0.00  0.00    +0.000 A 
ATOM     16  C   UNL     1       6.582   4.168  12.970  0.00  0.00    +0.000 A 
ATOM     17  C   UNL     1       7.460   4.763  12.030  0.00  0.00    +0.000 A 
ATOM     18  C   UNL     1       8.261   5.618  12.751  0.00  0.00    +0.000 A 
ATOM     19  O   UNL     1       7.904   5.613  14.060  0.00  0.00    +0.000 OA
ENDBRANCH   8  15
BRANCH   1  20
ATOM     20  C   UNL     1       2.443   2.757  20.785  0.00  0.00    +0.000 C 
BRANCH  20  21
ATOM     21  C   UNL     1       1.105   3.436  20.508  0.00  0.00    +0.000 C 
BRANCH  21  22
ATOM     22  C   UNL     1       1.247   4.949  20.581  0.00  0.00    +0.000 C 
BRANCH  22  23
ATOM     23  N   UNL     1       2.589   5.313  21.010  0.00  0.00    +0.000 NA
ATOM     24  H   UNL     1       2.568   6.238  21.442  0.00  0.00    +0.000 HD
ATOM     25  H   UNL     1       3.207   5.389  20.202  0.00  0.00    +0.000 HD
ENDBRANCH  22  23
ENDBRANCH  21  22
ENDBRANCH  20  21
ENDBRANCH   1  20
TORSDOF 5
ENDMDL
MODEL 4
REMARK VINA RESULT:      -7.3      2.675      7.069
REMARK  Name = 
REMARK  5 active torsions:
REMARK  status: ('A' for Active; 'I' for Inactive)
REMARK    1  A    between atoms: N_1  and  C_2
REMARK    2  A    between atoms: C_2  and  C_3
REMARK    3  A    between atoms: C_3  and  C_4
REMARK    4  A    between atoms: C_4  and  N_5
REMARK    5  A    between atoms: C_12  and  C_13
REMARK                            x       y       z     vdW  Elec       q    Type
REMARK                         _______ _______ _______ _____ _____    ______ ____
ROOT
ATOM      1  N   UNL     1       3.389   3.532  20.451  0.00  0.00    +0.000 N 
ATOM      2  C   UNL     1       3.781   4.128  19.287  0.00  0.00    +0.000 A 
ATOM      3  N   UNL     1       3.401   5.435  19.063  0.00  0.00    +0.000 NA
ATOM      4  C   UNL     1       3.848   6.051  18.007  0.00  0.00    +0.000 A 
ATOM      5  N   UNL     1       3.513   7.350  17.719  0.00  0.00    +0.000 N 
ATOM      6  N   UNL     1       4.642   5.331  17.127  0.00  0.00    +0.000 N 
ATOM      7  N   UNL     1       5.178   5.813  15.990  0.00  0.00    +0.000 NA
ATOM      8  C   UNL     1       5.683   4.680  15.471  0.00  0.00    +0.000 A 
ATOM      9  N   UNL     1       5.484   3.547  16.238  0.00  0.00    +0.000 NA
ATOM     10  C   UNL     1       4.879   4.008  17.311  0.00  0.00    +0.000 A 
ATOM     11  N   UNL     1       4.473   3.397  18.452  0.00  0.00    +0.000 NA
ATOM     12  H   UNL     1       3.546   2.532  20.417  0.00  0.00    +0.000 HD
ATOM     13  H   UNL     1       2.677   7.696  18.175  0.00  0.00    +0.000 HD
ATOM     14  H   UNL     1       3.631   7.636  16.748  0.00  0.00    +0.000 HD
ENDROOT
BRANCH   8  15
ATOM     15  C   UNL     1       6.410   4.645  14.167  0.00  0.00    +0.000 A 
ATOM     16  C   UNL     1       6.177   3.753  13.139  0.00  0.00    +0.000 A 
ATOM     17  C   UNL     1       7.099   4.061  12.108  0.00  0.00    +0.000 A 
ATOM     18  C   UNL     1       7.854   5.110  12.578  0.00  0.00    +0.000 A 
ATOM     19  O   UNL     1       7.428   5.488  13.810  0.00  0.00    +0.000 OA
ENDBRANCH   8  15
BRANCH   1  20
ATOM     20  C   UNL     1       2.172   3.942  21.125  0.00  0.00    +0.000 C 
BRANCH  20  21
ATOM     21  C   UNL     1       1.088   2.889  20.912  0.00  0.00    +0.000 C 
BRANCH  21  22
ATOM     22  C   UNL     1       0.714   2.798  19.440  0.00  0.00    +0.000 C 
BRANCH  22  23
ATOM     23  N   UNL     1       1.476   1.745  18.785  0.00  0.00    +0.000 NA
ATOM     24  H   UNL     1       0.893   1.292  18.080  0.00  0.00    +0.000 HD
ATOM     25  H   UNL     1       1.724   1.021  19.459  0.00  0.00    +0.000 HD
ENDBRANCH  22  23
ENDBRANCH  21  22
ENDBRANCH  20  21
ENDBRANCH   1  20
TORSDOF 5
ENDMDL
MODEL 5
REMARK VINA RESULT:      -7.2      4.669      6.873
REMARK  Name = 
REMARK  5 active torsions:
REMARK  status: ('A' for Active; 'I' for Inactive)
REMARK    1  A    between atoms: N_1  and  C_2
REMARK    2  A    between atoms: C_2  and  C_3
REMARK    3  A    between atoms: C_3  and  C_4
REMARK    4  A    between atoms: C_4  and  N_5
REMARK    5  A    between atoms: C_12  and  C_13
REMARK                            x       y       z     vdW  Elec       q    Type
REMARK                         _______ _______ _______ _____ _____    ______ ____
ROOT
ATOM      1  N   UNL     1       5.703   4.509  16.187  0.00  0.00    +0.000 N 
ATOM      2  C   UNL     1       6.421   5.374  16.962  0.00  0.00    +0.000 A 
ATOM      3  N   UNL     1       6.965   4.899  18.137  0.00  0.00    +0.000 NA
ATOM      4  C   UNL     1       7.736   5.681  18.838  0.00  0.00    +0.000 A 
ATOM      5  N   UNL     1       8.311   5.278  20.016  0.00  0.00    +0.000 N 
ATOM      6  N   UNL     1       7.918   6.979  18.388  0.00  0.00    +0.000 N 
ATOM      7  N   UNL     1       8.674   7.914  18.994  0.00  0.00    +0.000 NA
ATOM      8  C   UNL     1       8.361   8.989  18.250  0.00  0.00    +0.000 A 
ATOM      9  N   UNL     1       7.463   8.748  17.226  0.00  0.00    +0.000 NA
ATOM     10  C   UNL     1       7.255   7.451  17.302  0.00  0.00    +0.000 A 
ATOM     11  N   UNL     1       6.517   6.607  16.538  0.00  0.00    +0.000 NA
ATOM     12  H   UNL     1       5.189   5.006  15.470  0.00  0.00    +0.000 HD
ATOM     13  H   UNL     1       7.872   4.485  20.468  0.00  0.00    +0.000 HD
ATOM     14  H   UNL     1       8.615   6.023  20.642  0.00  0.00    +0.000 HD
ENDROOT
BRANCH   8  15
ATOM     15  C   UNL     1       8.941  10.341  18.501  0.00  0.00    +0.000 A 
ATOM     16  C   UNL     1       9.824  10.664  19.512  0.00  0.00    +0.000 A 
ATOM     17  C   UNL     1      10.098  12.049  19.395  0.00  0.00    +0.000 A 
ATOM     18  C   UNL     1       9.347  12.493  18.332  0.00  0.00    +0.000 A 
ATOM     19  O   UNL     1       8.666  11.464  17.767  0.00  0.00    +0.000 OA
ENDBRANCH   8  15
BRANCH   1  20
ATOM     20  C   UNL     1       5.003   3.385  16.778  0.00  0.00    +0.000 C 
BRANCH  20  21
ATOM     21  C   UNL     1       3.778   3.885  17.540  0.00  0.00    +0.000 C 
BRANCH  21  22
ATOM     22  C   UNL     1       3.692   3.223  18.907  0.00  0.00    +0.000 C 
BRANCH  22  23
ATOM     23  N   UNL     1       5.023   2.986  19.443  0.00  0.00    +0.000 NA
ATOM     24  H   UNL     1       5.503   3.878  19.569  0.00  0.00    +0.000 HD
ATOM     25  H   UNL     1       5.581   2.454  18.774  0.00  0.00    +0.000 HD
ENDBRANCH  22  23
ENDBRANCH  21  22
ENDBRANCH  20  21
ENDBRANCH   1  20
TORSDOF 5
ENDMDL
MODEL 6
REMARK VINA RESULT:      -6.7      2.548      7.012
REMARK  Name = 
REMARK  5 active torsions:
REMARK  status: ('A' for Active; 'I' for Inactive)
REMARK    1  A    between atoms: N_1  and  C_2
REMARK    2  A    between atoms: C_2  and  C_3
REMARK    3  A    between atoms: C_3  and  C_4
REMARK    4  A    between atoms: C_4  and  N_5
REMARK    5  A    between atoms: C_12  and  C_13
REMARK                            x       y       z     vdW  Elec       q    Type
REMARK                         _______ _______ _______ _____ _____    ______ ____
ROOT
ATOM      1  N   UNL     1       2.487   3.682  19.735  0.00  0.00    +0.000 N 
ATOM      2  C   UNL     1       3.567   4.022  18.971  0.00  0.00    +0.000 A 
ATOM      3  N   UNL     1       4.684   4.523  19.608  0.00  0.00    +0.000 NA
ATOM      4  C   UNL     1       5.757   4.758  18.909  0.00  0.00    +0.000 A 
ATOM      5  N   UNL     1       6.903   5.256  19.473  0.00  0.00    +0.000 N 
ATOM      6  N   UNL     1       5.695   4.547  17.540  0.00  0.00    +0.000 N 
ATOM      7  N   UNL     1       6.707   4.747  16.676  0.00  0.00    +0.000 NA
ATOM      8  C   UNL     1       6.061   4.560  15.511  0.00  0.00    +0.000 A 
ATOM      9  N   UNL     1       4.719   4.252  15.631  0.00  0.00    +0.000 NA
ATOM     10  C   UNL     1       4.536   4.187  16.932  0.00  0.00    +0.000 A 
ATOM     11  N   UNL     1       3.448   3.871  17.678  0.00  0.00    +0.000 NA
ATOM     12  H   UNL     1       1.670   3.524  19.157  0.00  0.00    +0.000 HD
ATOM     13  H   UNL     1       6.786   5.718  20.366  0.00  0.00    +0.000 HD
ATOM     14  H   UNL     1       7.557   5.705  18.832  0.00  0.00    +0.000 HD
ENDROOT
BRANCH   8  15
ATOM     15  C   UNL     1       6.740   4.668  14.186  0.00  0.00    +0.000 A 
ATOM     16  C   UNL     1       6.446   3.915  13.066  0.00  0.00    +0.000 A 
ATOM     17  C   UNL     1       7.337   4.326  12.045  0.00  0.00    +0.000 A 
ATOM     18  C   UNL     1       8.137   5.292  12.609  0.00  0.00    +0.000 A 
ATOM     19  O   UNL     1       7.767   5.525  13.894  0.00  0.00    +0.000 OA
ENDBRANCH   8  15
BRANCH   1  20
ATOM     20  C   UNL     1       2.229   4.345  20.998  0.00  0.00    +0.000 C 
BRANCH  20  21
ATOM     21  C   UNL     1       1.264   5.508  20.780  0.00  0.00    +0.000 C 
BRANCH  21  22
ATOM     22  C   UNL     1       2.031   6.793  20.498  0.00  0.00    +0.000 C 
BRANCH  22  23
ATOM     23  N   UNL     1       2.406   6.864  19.095  0.00  0.00    +0.000 NA
ATOM     24  H   UNL     1       2.729   7.808  18.877  0.00  0.00    +0.000 HD
ATOM     25  H   UNL     1       1.590   6.698  18.505  0.00  0.00    +0.000 HD
ENDBRANCH  22  23
ENDBRANCH  21  22
ENDBRANCH  20  21
ENDBRANCH   1  20
TORSDOF 5
ENDMDL
MODEL 7
REMARK VINA RESULT:      -6.7      4.620      5.979
REMARK  Name = 
REMARK  5 active torsions:
REMARK  status: ('A' for Active; 'I' for Inactive)
REMARK    1  A    between atoms: N_1  and  C_2
REMARK    2  A    between atoms: C_2  and  C_3
REMARK    3  A    between atoms: C_3  and  C_4
REMARK    4  A    between atoms: C_4  and  N_5
REMARK    5  A    between atoms: C_12  and  C_13
REMARK                            x       y       z     vdW  Elec       q    Type
REMARK                         _______ _______ _______ _____ _____    ______ ____
ROOT
ATOM      1  N   UNL     1       4.559   5.910  16.827  0.00  0.00    +0.000 N 
ATOM      2  C   UNL     1       3.737   6.285  17.850  0.00  0.00    +0.000 A 
ATOM      3  N   UNL     1       3.498   5.378  18.862  0.00  0.00    +0.000 NA
ATOM      4  C   UNL     1       2.799   5.752  19.895  0.00  0.00    +0.000 A 
ATOM      5  N   UNL     1       2.521   4.905  20.937  0.00  0.00    +0.000 N 
ATOM      6  N   UNL     1       2.278   7.037  19.890  0.00  0.00    +0.000 N 
ATOM      7  N   UNL     1       1.531   7.576  20.871  0.00  0.00    +0.000 NA
ATOM      8  C   UNL     1       1.171   8.731  20.283  0.00  0.00    +0.000 A 
ATOM      9  N   UNL     1       1.667   8.915  19.006  0.00  0.00    +0.000 NA
ATOM     10  C   UNL     1       2.417   7.852  18.815  0.00  0.00    +0.000 A 
ATOM     11  N   UNL     1       3.211   7.480  17.779  0.00  0.00    +0.000 NA
ATOM     12  H   UNL     1       4.499   6.564  16.056  0.00  0.00    +0.000 HD
ATOM     13  H   UNL     1       2.607   3.917  20.732  0.00  0.00    +0.000 HD
ATOM     14  H   UNL     1       1.726   5.162  21.521  0.00  0.00    +0.000 HD
ENDROOT
BRANCH   8  15
ATOM     15  C   UNL     1       0.306   9.744  20.958  0.00  0.00    +0.000 A 
ATOM     16  C   UNL     1       0.065   9.823  22.315  0.00  0.00    +0.000 A 
ATOM     17  C   UNL     1      -0.820  10.910  22.516  0.00  0.00    +0.000 A 
ATOM     18  C   UNL     1      -1.083  11.418  21.265  0.00  0.00    +0.000 A 
ATOM     19  O   UNL     1      -0.387  10.738  20.320  0.00  0.00    +0.000 OA
ENDBRANCH   8  15
BRANCH   1  20
ATOM     20  C   UNL     1       4.684   4.517  16.444  0.00  0.00    +0.000 C 
BRANCH  20  21
ATOM     21  C   UNL     1       6.126   4.224  16.038  0.00  0.00    +0.000 C 
BRANCH  21  22
ATOM     22  C   UNL     1       7.086   4.619  17.150  0.00  0.00    +0.000 C 
BRANCH  22  23
ATOM     23  N   UNL     1       6.567   4.201  18.443  0.00  0.00    +0.000 NA
ATOM     24  H   UNL     1       5.613   4.548  18.555  0.00  0.00    +0.000 HD
ATOM     25  H   UNL     1       7.114   4.621  19.194  0.00  0.00    +0.000 HD
ENDBRANCH  22  23
ENDBRANCH  21  22
ENDBRANCH  20  21
ENDBRANCH   1  20
TORSDOF 5
ENDMDL
MODEL 8
REMARK VINA RESULT:      -6.7      2.694      7.383
REMARK  Name = 
REMARK  5 active torsions:
REMARK  status: ('A' for Active; 'I' for Inactive)
REMARK    1  A    between atoms: N_1  and  C_2
REMARK    2  A    between atoms: C_2  and  C_3
REMARK    3  A    between atoms: C_3  and  C_4
REMARK    4  A    between atoms: C_4  and  N_5
REMARK    5  A    between atoms: C_12  and  C_13
REMARK                            x       y       z     vdW  Elec       q    Type
REMARK                         _______ _______ _______ _____ _____    ______ ____
ROOT
ATOM      1  N   UNL     1       3.430   4.314  20.331  0.00  0.00    +0.000 N 
ATOM      2  C   UNL     1       3.827   4.785  19.112  0.00  0.00    +0.000 A 
ATOM      3  N   UNL     1       3.446   6.061  18.750  0.00  0.00    +0.000 NA
ATOM      4  C   UNL     1       3.899   6.563  17.637  0.00  0.00    +0.000 A 
ATOM      5  N   UNL     1       3.562   7.824  17.213  0.00  0.00    +0.000 N 
ATOM      6  N   UNL     1       4.698   5.757  16.842  0.00  0.00    +0.000 N 
ATOM      7  N   UNL     1       5.239   6.117  15.664  0.00  0.00    +0.000 NA
ATOM      8  C   UNL     1       5.748   4.937  15.269  0.00  0.00    +0.000 A 
ATOM      9  N   UNL     1       5.547   3.890  16.149  0.00  0.00    +0.000 NA
ATOM     10  C   UNL     1       4.936   4.460  17.165  0.00  0.00    +0.000 A 
ATOM     11  N   UNL     1       4.524   3.972  18.362  0.00  0.00    +0.000 NA
ATOM     12  H   UNL     1       3.588   3.316  20.402  0.00  0.00    +0.000 HD
ATOM     13  H   UNL     1       2.724   8.214  17.625  0.00  0.00    +0.000 HD
ATOM     14  H   UNL     1       3.685   8.006  16.217  0.00  0.00    +0.000 HD
ENDROOT
BRANCH   8  15
ATOM     15  C   UNL     1       6.482   4.766  13.980  0.00  0.00    +0.000 A 
ATOM     16  C   UNL     1       6.229   3.795  13.031  0.00  0.00    +0.000 A 
ATOM     17  C   UNL     1       7.166   3.984  11.986  0.00  0.00    +0.000 A 
ATOM     18  C   UNL     1       7.949   5.048  12.369  0.00  0.00    +0.000 A 
ATOM     19  O   UNL     1       7.527   5.544  13.560  0.00  0.00    +0.000 OA
ENDBRANCH   8  15
BRANCH   1  20
ATOM     20  C   UNL     1       2.209   4.790  20.951  0.00  0.00    +0.000 C 
BRANCH  20  21
ATOM     21  C   UNL     1       1.093   3.771  20.738  0.00  0.00    +0.000 C 
BRANCH  21  22
ATOM     22  C   UNL     1       1.191   2.649  21.761  0.00  0.00    +0.000 C 
BRANCH  22  23
ATOM     23  N   UNL     1       2.582   2.387  22.098  0.00  0.00    +0.000 NA
ATOM     24  H   UNL     1       2.951   1.664  21.479  0.00  0.00    +0.000 HD
ATOM     25  H   UNL     1       2.650   2.015  23.045  0.00  0.00    +0.000 HD
ENDBRANCH  22  23
ENDBRANCH  21  22
ENDBRANCH  20  21
ENDBRANCH   1  20
TORSDOF 5
ENDMDL
MODEL 9
REMARK VINA RESULT:      -6.6      2.518      7.126
REMARK  Name = 
REMARK  5 active torsions:
REMARK  status: ('A' for Active; 'I' for Inactive)
REMARK    1  A    between atoms: N_1  and  C_2
REMARK    2  A    between atoms: C_2  and  C_3
REMARK    3  A    between atoms: C_3  and  C_4
REMARK    4  A    between atoms: C_4  and  N_5
REMARK    5  A    between atoms: C_12  and  C_13
REMARK                            x       y       z     vdW  Elec       q    Type
REMARK                         _______ _______ _______ _____ _____    ______ ____
ROOT
ATOM      1  N   UNL     1       2.271   3.912  19.497  0.00  0.00    +0.000 N 
ATOM      2  C   UNL     1       3.404   4.181  18.784  0.00  0.00    +0.000 A 
ATOM      3  N   UNL     1       4.545   4.528  19.477  0.00  0.00    +0.000 NA
ATOM      4  C   UNL     1       5.659   4.690  18.822  0.00  0.00    +0.000 A 
ATOM      5  N   UNL     1       6.831   5.035  19.444  0.00  0.00    +0.000 N 
ATOM      6  N   UNL     1       5.620   4.562  17.442  0.00  0.00    +0.000 N 
ATOM      7  N   UNL     1       6.674   4.705  16.618  0.00  0.00    +0.000 NA
ATOM      8  C   UNL     1       6.051   4.649  15.428  0.00  0.00    +0.000 A 
ATOM      9  N   UNL     1       4.681   4.475  15.494  0.00  0.00    +0.000 NA
ATOM     10  C   UNL     1       4.451   4.358  16.784  0.00  0.00    +0.000 A 
ATOM     11  N   UNL     1       3.313   4.114  17.481  0.00  0.00    +0.000 NA
ATOM     12  H   UNL     1       1.462   3.872  18.889  0.00  0.00    +0.000 HD
ATOM     13  H   UNL     1       6.732   5.458  20.359  0.00  0.00    +0.000 HD
ATOM     14  H   UNL     1       7.547   5.449  18.848  0.00  0.00    +0.000 HD
ENDROOT
BRANCH   8  15
ATOM     15  C   UNL     1       6.780   4.760  14.129  0.00  0.00    +0.000 A 
ATOM     16  C   UNL     1       6.523   4.014  12.995  0.00  0.00    +0.000 A 
ATOM     17  C   UNL     1       7.455   4.425  12.011  0.00  0.00    +0.000 A 
ATOM     18  C   UNL     1       8.239   5.384  12.610  0.00  0.00    +0.000 A 
ATOM     19  O   UNL     1       7.822   5.612  13.881  0.00  0.00    +0.000 OA
ENDBRANCH   8  15
BRANCH   1  20
ATOM     20  C   UNL     1       2.041   4.528  20.789  0.00  0.00    +0.000 C 
BRANCH  20  21
ATOM     21  C   UNL     1       1.573   3.471  21.785  0.00  0.00    +0.000 C 
BRANCH  21  22
ATOM     22  C   UNL     1       2.173   2.114  21.446  0.00  0.00    +0.000 C 
BRANCH  22  23
ATOM     23  N   UNL     1       3.625   2.167  21.522  0.00  0.00    +0.000 NA
ATOM     24  H   UNL     1       3.928   1.865  22.449  0.00  0.00    +0.000 HD
ATOM     25  H   UNL     1       3.947   3.128  21.415  0.00  0.00    +0.000 HD
ENDBRANCH  22  23
ENDBRANCH  21  22
ENDBRANCH  20  21
ENDBRANCH   1  20
TORSDOF 5
ENDMDL
