MODEL 1
REMARK VINA RESULT:      -6.5      0.000      0.000
REMARK  Name = 
REMARK  8 active torsions:
REMARK  status: ('A' for Active; 'I' for Inactive)
REMARK    1  A    between atoms: C_2  and  C_3
REMARK    2  A    between atoms: C_3  and  O_4
REMARK    3  A    between atoms: C_5  and  O_6
REMARK    4  A    between atoms: C_7  and  C_8
REMARK    5  A    between atoms: C_8  and  O_9
REMARK    6  A    between atoms: C_11  and  N_12
REMARK    7  A    between atoms: C_16  and  O_17
REMARK    8  A    between atoms: C_21  and  O_22
REMARK                            x       y       z     vdW  Elec       q    Type
REMARK                         _______ _______ _______ _____ _____    ______ ____
ROOT
ATOM      1  C   UNL     1       2.713   3.489  19.955  0.00  0.00    +0.000 C 
ATOM      2  C   UNL     1       1.368   3.979  19.371  0.00  0.00    +0.000 C 
ATOM      3  C   UNL     1       1.501   4.443  17.899  0.00  0.00    +0.000 C 
ATOM      4  O   UNL     1       2.342   3.592  17.089  0.00  0.00    +0.000 OA
ATOM      5  C   UNL     1       3.640   3.220  17.607  0.00  0.00    +0.000 C 
ATOM      6  C   UNL     1       3.421   2.528  18.976  0.00  0.00    +0.000 C 
ENDROOT
BRANCH   5   7
ATOM      7  N   UNL     1       4.655   4.280  17.400  0.00  0.00    +0.000 N 
ATOM      8  C   UNL     1       4.608   5.019  16.217  0.00  0.00    +0.000 A 
ATOM      9  C   UNL     1       5.575   5.875  15.904  0.00  0.00    +0.000 A 
ATOM     10  F   UNL     1       5.601   6.655  14.811  0.00  0.00    +0.000 F 
ATOM     11  C   UNL     1       6.689   5.922  16.836  0.00  0.00    +0.000 A 
ATOM     12  N   UNL     1       6.804   5.235  17.911  0.00  0.00    +0.000 NA
ATOM     13  C   UNL     1       5.793   4.358  18.232  0.00  0.00    +0.000 A 
ATOM     14  O   UNL     1       5.885   3.685  19.252  0.00  0.00    +0.000 OA
BRANCH  11  15
ATOM     15  O   UNL     1       7.669   6.774  16.483  0.00  0.00    +0.000 OA
ATOM     16  H   UNL     1       8.491   6.639  16.982  0.00  0.00    +0.000 HD
ENDBRANCH  11  15
ENDBRANCH   5   7
BRANCH   1  18
ATOM     17  N   UNL     1       2.288   2.296  22.278  0.00  0.00    +0.000 NA
ATOM     18  C   UNL     1       2.510   2.823  21.265  0.00  0.00    +0.000 C 
ENDBRANCH   1  18
BRANCH   1  19
ATOM     19  O   UNL     1       3.527   4.665  20.164  0.00  0.00    +0.000 OA
ATOM     20  H   UNL     1       4.302   4.584  19.563  0.00  0.00    +0.000 HD
ENDBRANCH   1  19
BRANCH   2  21
ATOM     21  O   UNL     1       0.349   2.967  19.455  0.00  0.00    +0.000 OA
ATOM     22  H   UNL     1      -0.193   2.954  18.650  0.00  0.00    +0.000 HD
ENDBRANCH   2  21
BRANCH   6  23
ATOM     23  O   UNL     1       2.644   1.322  18.754  0.00  0.00    +0.000 OA
ATOM     24  H   UNL     1       3.106   0.769  18.099  0.00  0.00    +0.000 HD
ENDBRANCH   6  23
BRANCH   3  25
ATOM     25  C   UNL     1       1.837   5.936  17.754  0.00  0.00    +0.000 C 
BRANCH  25  26
ATOM     26  O   UNL     1       1.922   6.528  19.054  0.00  0.00    +0.000 OA
ATOM     27  H   UNL     1       2.853   6.487  19.334  0.00  0.00    +0.000 HD
ENDBRANCH  25  26
ENDBRANCH   3  25
TORSDOF 8
ENDMDL
MODEL 2
REMARK VINA RESULT:      -6.4      2.505      5.391
REMARK  Name = 
REMARK  8 active torsions:
REMARK  status: ('A' for Active; 'I' for Inactive)
REMARK    1  A    between atoms: C_2  and  C_3
REMARK    2  A    between atoms: C_3  and  O_4
REMARK    3  A    between atoms: C_5  and  O_6
REMARK    4  A    between atoms: C_7  and  C_8
REMARK    5  A    between atoms: C_8  and  O_9
REMARK    6  A    between atoms: C_11  and  N_12
REMARK    7  A    between atoms: C_16  and  O_17
REMARK    8  A    between atoms: C_21  and  O_22
REMARK                            x       y       z     vdW  Elec       q    Type
REMARK                         _______ _______ _______ _____ _____    ______ ____
ROOT
ATOM      1  C   UNL     1       5.166   4.561  16.509  0.00  0.00    +0.000 C 
ATOM      2  C   UNL     1       4.973   6.091  16.396  0.00  0.00    +0.000 C 
ATOM      3  C   UNL     1       4.524   6.727  17.735  0.00  0.00    +0.000 C 
ATOM      4  O   UNL     1       5.204   6.196  18.894  0.00  0.00    +0.000 OA
ATOM      5  C   UNL     1       5.293   4.760  19.037  0.00  0.00    +0.000 C 
ATOM      6  C   UNL     1       5.985   4.202  17.767  0.00  0.00    +0.000 C 
ENDROOT
BRANCH   5   7
ATOM      7  N   UNL     1       4.054   4.171  19.597  0.00  0.00    +0.000 N 
ATOM      8  C   UNL     1       3.002   5.028  19.923  0.00  0.00    +0.000 A 
ATOM      9  C   UNL     1       1.928   4.583  20.567  0.00  0.00    +0.000 A 
ATOM     10  F   UNL     1       0.854   5.321  20.891  0.00  0.00    +0.000 F 
ATOM     11  C   UNL     1       1.973   3.184  20.956  0.00  0.00    +0.000 A 
ATOM     12  N   UNL     1       2.930   2.365  20.722  0.00  0.00    +0.000 NA
ATOM     13  C   UNL     1       4.033   2.833  20.045  0.00  0.00    +0.000 A 
ATOM     14  O   UNL     1       4.964   2.068  19.818  0.00  0.00    +0.000 OA
BRANCH  11  15
ATOM     15  O   UNL     1       0.887   2.764  21.631  0.00  0.00    +0.000 OA
ATOM     16  H   UNL     1       0.165   2.474  21.051  0.00  0.00    +0.000 HD
ENDBRANCH  11  15
ENDBRANCH   5   7
BRANCH   1  18
ATOM     17  N   UNL     1       6.356   3.656  14.326  0.00  0.00    +0.000 NA
ATOM     18  C   UNL     1       5.830   4.021  15.298  0.00  0.00    +0.000 C 
ENDBRANCH   1  18
BRANCH   1  19
ATOM     19  O   UNL     1       3.845   3.982  16.600  0.00  0.00    +0.000 OA
ATOM     20  H   UNL     1       3.846   3.398  17.392  0.00  0.00    +0.000 HD
ENDBRANCH   1  19
BRANCH   2  21
ATOM     21  O   UNL     1       6.168   6.748  15.939  0.00  0.00    +0.000 OA
ATOM     22  H   UNL     1       5.997   7.685  15.750  0.00  0.00    +0.000 HD
ENDBRANCH   2  21
BRANCH   6  23
ATOM     23  O   UNL     1       7.328   4.749  17.707  0.00  0.00    +0.000 OA
ATOM     24  H   UNL     1       7.966   4.014  17.732  0.00  0.00    +0.000 HD
ENDBRANCH   6  23
BRANCH   3  25
ATOM     25  C   UNL     1       2.997   6.784  17.906  0.00  0.00    +0.000 C 
BRANCH  25  26
ATOM     26  O   UNL     1       2.559   8.139  17.767  0.00  0.00    +0.000 OA
ATOM     27  H   UNL     1       2.272   8.446  18.645  0.00  0.00    +0.000 HD
ENDBRANCH  25  26
ENDBRANCH   3  25
TORSDOF 8
ENDMDL
MODEL 3
REMARK VINA RESULT:      -6.4      2.529      5.546
REMARK  Name = 
REMARK  8 active torsions:
REMARK  status: ('A' for Active; 'I' for Inactive)
REMARK    1  A    between atoms: C_2  and  C_3
REMARK    2  A    between atoms: C_3  and  O_4
REMARK    3  A    between atoms: C_5  and  O_6
REMARK    4  A    between atoms: C_7  and  C_8
REMARK    5  A    between atoms: C_8  and  O_9
REMARK    6  A    between atoms: C_11  and  N_12
REMARK    7  A    between atoms: C_16  and  O_17
REMARK    8  A    between atoms: C_21  and  O_22
REMARK                            x       y       z     vdW  Elec       q    Type
REMARK                         _______ _______ _______ _____ _____    ______ ____
ROOT
ATOM      1  C   UNL     1       5.657   5.101  16.536  0.00  0.00    +0.000 C 
ATOM      2  C   UNL     1       5.559   6.601  16.896  0.00  0.00    +0.000 C 
ATOM      3  C   UNL     1       4.729   6.843  18.181  0.00  0.00    +0.000 C 
ATOM      4  O   UNL     1       4.988   5.890  19.235  0.00  0.00    +0.000 OA
ATOM      5  C   UNL     1       4.981   4.482  18.903  0.00  0.00    +0.000 C 
ATOM      6  C   UNL     1       6.022   4.259  17.777  0.00  0.00    +0.000 C 
ENDROOT
BRANCH   5   7
ATOM      7  N   UNL     1       3.610   3.923  18.847  0.00  0.00    +0.000 N 
ATOM      8  C   UNL     1       2.632   4.486  19.668  0.00  0.00    +0.000 A 
ATOM      9  C   UNL     1       1.427   3.935  19.777  0.00  0.00    +0.000 A 
ATOM     10  F   UNL     1       0.413   4.421  20.510  0.00  0.00    +0.000 F 
ATOM     11  C   UNL     1       1.244   2.692  19.047  0.00  0.00    +0.000 A 
ATOM     12  N   UNL     1       2.121   2.109  18.317  0.00  0.00    +0.000 NA
ATOM     13  C   UNL     1       3.361   2.693  18.201  0.00  0.00    +0.000 A 
ATOM     14  O   UNL     1       4.218   2.148  17.514  0.00  0.00    +0.000 OA
BRANCH  11  15
ATOM     15  O   UNL     1       0.027   2.138  19.197  0.00  0.00    +0.000 OA
ATOM     16  H   UNL     1       0.010   1.427  19.858  0.00  0.00    +0.000 HD
ENDBRANCH  11  15
ENDBRANCH   5   7
BRANCH   1  18
ATOM     17  N   UNL     1       7.454   4.767  14.622  0.00  0.00    +0.000 NA
ATOM     18  C   UNL     1       6.654   4.880  15.459  0.00  0.00    +0.000 C 
ENDBRANCH   1  18
BRANCH   1  19
ATOM     19  O   UNL     1       4.358   4.708  16.039  0.00  0.00    +0.000 OA
ATOM     20  H   UNL     1       4.119   5.349  15.332  0.00  0.00    +0.000 HD
ENDBRANCH   1  19
BRANCH   2  21
ATOM     21  O   UNL     1       6.858   7.198  17.055  0.00  0.00    +0.000 OA
ATOM     22  H   UNL     1       7.021   7.429  17.984  0.00  0.00    +0.000 HD
ENDBRANCH   2  21
BRANCH   6  23
ATOM     23  O   UNL     1       7.331   4.610  18.295  0.00  0.00    +0.000 OA
ATOM     24  H   UNL     1       7.984   3.975  17.951  0.00  0.00    +0.000 HD
ENDBRANCH   6  23
BRANCH   3  25
ATOM     25  C   UNL     1       3.229   7.051  17.913  0.00  0.00    +0.000 C 
BRANCH  25  26
ATOM     26  O   UNL     1       2.966   8.450  17.771  0.00  0.00    +0.000 OA
ATOM     27  H   UNL     1       2.109   8.632  18.194  0.00  0.00    +0.000 HD
ENDBRANCH  25  26
ENDBRANCH   3  25
TORSDOF 8
ENDMDL
MODEL 4
REMARK VINA RESULT:      -6.4      1.688      2.013
REMARK  Name = 
REMARK  8 active torsions:
REMARK  status: ('A' for Active; 'I' for Inactive)
REMARK    1  A    between atoms: C_2  and  C_3
REMARK    2  A    between atoms: C_3  and  O_4
REMARK    3  A    between atoms: C_5  and  O_6
REMARK    4  A    between atoms: C_7  and  C_8
REMARK    5  A    between atoms: C_8  and  O_9
REMARK    6  A    between atoms: C_11  and  N_12
REMARK    7  A    between atoms: C_16  and  O_17
REMARK    8  A    between atoms: C_21  and  O_22
REMARK                            x       y       z     vdW  Elec       q    Type
REMARK                         _______ _______ _______ _____ _____    ______ ____
ROOT
ATOM      1  C   UNL     1       3.131   3.708  19.958  0.00  0.00    +0.000 C 
ATOM      2  C   UNL     1       1.908   4.413  19.326  0.00  0.00    +0.000 C 
ATOM      3  C   UNL     1       2.232   5.017  17.937  0.00  0.00    +0.000 C 
ATOM      4  O   UNL     1       3.053   4.169  17.105  0.00  0.00    +0.000 OA
ATOM      5  C   UNL     1       4.248   3.593  17.681  0.00  0.00    +0.000 C 
ATOM      6  C   UNL     1       3.824   2.785  18.934  0.00  0.00    +0.000 C 
ENDROOT
BRANCH   5   7
ATOM      7  N   UNL     1       5.385   4.543  17.689  0.00  0.00    +0.000 N 
ATOM      8  C   UNL     1       6.070   4.745  18.888  0.00  0.00    +0.000 A 
ATOM      9  C   UNL     1       6.996   5.692  18.999  0.00  0.00    +0.000 A 
ATOM     10  F   UNL     1       7.731   5.938  20.096  0.00  0.00    +0.000 F 
ATOM     11  C   UNL     1       7.178   6.523  17.821  0.00  0.00    +0.000 A 
ATOM     12  N   UNL     1       6.546   6.411  16.712  0.00  0.00    +0.000 NA
ATOM     13  C   UNL     1       5.597   5.421  16.604  0.00  0.00    +0.000 A 
ATOM     14  O   UNL     1       4.975   5.300  15.555  0.00  0.00    +0.000 OA
BRANCH  11  15
ATOM     15  O   UNL     1       8.100   7.493  17.967  0.00  0.00    +0.000 OA
ATOM     16  H   UNL     1       7.713   8.381  18.029  0.00  0.00    +0.000 HD
ENDBRANCH  11  15
ENDBRANCH   5   7
BRANCH   1  18
ATOM     17  N   UNL     1       2.403   2.375  22.124  0.00  0.00    +0.000 NA
ATOM     18  C   UNL     1       2.732   2.930  21.157  0.00  0.00    +0.000 C 
ENDBRANCH   1  18
BRANCH   1  19
ATOM     19  O   UNL     1       4.041   4.751  20.375  0.00  0.00    +0.000 OA
ATOM     20  H   UNL     1       3.740   5.581  19.940  0.00  0.00    +0.000 HD
ENDBRANCH   1  19
BRANCH   2  21
ATOM     21  O   UNL     1       0.785   3.524  19.202  0.00  0.00    +0.000 OA
ATOM     22  H   UNL     1       0.528   3.419  18.272  0.00  0.00    +0.000 HD
ENDBRANCH   2  21
BRANCH   6  23
ATOM     23  O   UNL     1       2.950   1.710  18.504  0.00  0.00    +0.000 OA
ATOM     24  H   UNL     1       2.331   2.058  17.837  0.00  0.00    +0.000 HD
ENDBRANCH   6  23
BRANCH   3  25
ATOM     25  C   UNL     1       2.738   6.468  18.001  0.00  0.00    +0.000 C 
BRANCH  25  26
ATOM     26  O   UNL     1       2.456   7.008  19.296  0.00  0.00    +0.000 OA
ATOM     27  H   UNL     1       2.225   6.264  19.880  0.00  0.00    +0.000 HD
ENDBRANCH  25  26
ENDBRANCH   3  25
TORSDOF 8
ENDMDL
MODEL 5
REMARK VINA RESULT:      -6.0      2.227      5.402
REMARK  Name = 
REMARK  8 active torsions:
REMARK  status: ('A' for Active; 'I' for Inactive)
REMARK    1  A    between atoms: C_2  and  C_3
REMARK    2  A    between atoms: C_3  and  O_4
REMARK    3  A    between atoms: C_5  and  O_6
REMARK    4  A    between atoms: C_7  and  C_8
REMARK    5  A    between atoms: C_8  and  O_9
REMARK    6  A    between atoms: C_11  and  N_12
REMARK    7  A    between atoms: C_16  and  O_17
REMARK    8  A    between atoms: C_21  and  O_22
REMARK                            x       y       z     vdW  Elec       q    Type
REMARK                         _______ _______ _______ _____ _____    ______ ____
ROOT
ATOM      1  C   UNL     1       6.023   5.162  16.314  0.00  0.00    +0.000 C 
ATOM      2  C   UNL     1       5.807   6.617  16.788  0.00  0.00    +0.000 C 
ATOM      3  C   UNL     1       4.984   6.692  18.097  0.00  0.00    +0.000 C 
ATOM      4  O   UNL     1       5.341   5.689  19.073  0.00  0.00    +0.000 OA
ATOM      5  C   UNL     1       5.445   4.314  18.636  0.00  0.00    +0.000 C 
ATOM      6  C   UNL     1       6.480   4.264  17.483  0.00  0.00    +0.000 C 
ENDROOT
BRANCH   5   7
ATOM      7  N   UNL     1       4.125   3.646  18.555  0.00  0.00    +0.000 N 
ATOM      8  C   UNL     1       3.100   4.289  17.861  0.00  0.00    +0.000 A 
ATOM      9  C   UNL     1       1.857   3.818  17.881  0.00  0.00    +0.000 A 
ATOM     10  F   UNL     1       0.814   4.345  17.219  0.00  0.00    +0.000 F 
ATOM     11  C   UNL     1       1.648   2.651  18.722  0.00  0.00    +0.000 A 
ATOM     12  N   UNL     1       2.543   2.049  19.413  0.00  0.00    +0.000 NA
ATOM     13  C   UNL     1       3.829   2.538  19.378  0.00  0.00    +0.000 A 
ATOM     14  O   UNL     1       4.699   1.982  20.038  0.00  0.00    +0.000 OA
BRANCH  11  15
ATOM     15  O   UNL     1       0.377   2.211  18.748  0.00  0.00    +0.000 OA
ATOM     16  H   UNL     1      -0.103   2.478  19.549  0.00  0.00    +0.000 HD
ENDBRANCH  11  15
ENDBRANCH   5   7
BRANCH   1  18
ATOM     17  N   UNL     1       7.800   5.125  14.353  0.00  0.00    +0.000 NA
ATOM     18  C   UNL     1       7.015   5.106  15.211  0.00  0.00    +0.000 C 
ENDBRANCH   1  18
BRANCH   1  19
ATOM     19  O   UNL     1       4.752   4.698  15.805  0.00  0.00    +0.000 OA
ATOM     20  H   UNL     1       4.452   5.362  15.144  0.00  0.00    +0.000 HD
ENDBRANCH   1  19
BRANCH   2  21
ATOM     21  O   UNL     1       7.054   7.308  16.975  0.00  0.00    +0.000 OA
ATOM     22  H   UNL     1       6.947   8.262  16.825  0.00  0.00    +0.000 HD
ENDBRANCH   2  21
BRANCH   6  23
ATOM     23  O   UNL     1       7.765   4.684  18.010  0.00  0.00    +0.000 OA
ATOM     24  H   UNL     1       8.470   4.301  17.459  0.00  0.00    +0.000 HD
ENDBRANCH   6  23
BRANCH   3  25
ATOM     25  C   UNL     1       3.467   6.792  17.865  0.00  0.00    +0.000 C 
BRANCH  25  26
ATOM     26  O   UNL     1       3.073   8.166  17.917  0.00  0.00    +0.000 OA
ATOM     27  H   UNL     1       2.756   8.346  18.819  0.00  0.00    +0.000 HD
ENDBRANCH  25  26
ENDBRANCH   3  25
TORSDOF 8
ENDMDL
MODEL 6
REMARK VINA RESULT:      -5.9      1.291      1.439
REMARK  Name = 
REMARK  8 active torsions:
REMARK  status: ('A' for Active; 'I' for Inactive)
REMARK    1  A    between atoms: C_2  and  C_3
REMARK    2  A    between atoms: C_3  and  O_4
REMARK    3  A    between atoms: C_5  and  O_6
REMARK    4  A    between atoms: C_7  and  C_8
REMARK    5  A    between atoms: C_8  and  O_9
REMARK    6  A    between atoms: C_11  and  N_12
REMARK    7  A    between atoms: C_16  and  O_17
REMARK    8  A    between atoms: C_21  and  O_22
REMARK                            x       y       z     vdW  Elec       q    Type
REMARK                         _______ _______ _______ _____ _____    ______ ____
ROOT
ATOM      1  C   UNL     1       3.071   3.279  20.003  0.00  0.00    +0.000 C 
ATOM      2  C   UNL     1       2.106   2.751  18.916  0.00  0.00    +0.000 C 
ATOM      3  C   UNL     1       2.686   2.909  17.489  0.00  0.00    +0.000 C 
ATOM      4  O   UNL     1       4.091   2.588  17.388  0.00  0.00    +0.000 OA
ATOM      5  C   UNL     1       4.997   3.167  18.354  0.00  0.00    +0.000 C 
ATOM      6  C   UNL     1       4.504   2.759  19.766  0.00  0.00    +0.000 C 
ENDROOT
BRANCH   5   7
ATOM      7  N   UNL     1       5.376   4.557  18.010  0.00  0.00    +0.000 N 
ATOM      8  C   UNL     1       5.021   5.048  16.753  0.00  0.00    +0.000 A 
ATOM      9  C   UNL     1       5.461   6.227  16.327  0.00  0.00    +0.000 A 
ATOM     10  F   UNL     1       5.146   6.798  15.153  0.00  0.00    +0.000 F 
ATOM     11  C   UNL     1       6.376   6.911  17.226  0.00  0.00    +0.000 A 
ATOM     12  N   UNL     1       6.769   6.487  18.369  0.00  0.00    +0.000 NA
ATOM     13  C   UNL     1       6.300   5.269  18.806  0.00  0.00    +0.000 A 
ATOM     14  O   UNL     1       6.669   4.840  19.893  0.00  0.00    +0.000 OA
BRANCH  11  15
ATOM     15  O   UNL     1       6.830   8.089  16.760  0.00  0.00    +0.000 OA
ATOM     16  H   UNL     1       7.799   8.138  16.727  0.00  0.00    +0.000 HD
ENDBRANCH  11  15
ENDBRANCH   5   7
BRANCH   1  18
ATOM     17  N   UNL     1       2.192   2.554  22.392  0.00  0.00    +0.000 NA
ATOM     18  C   UNL     1       2.606   2.890  21.357  0.00  0.00    +0.000 C 
ENDBRANCH   1  18
BRANCH   1  19
ATOM     19  O   UNL     1       3.049   4.721  19.912  0.00  0.00    +0.000 OA
ATOM     20  H   UNL     1       3.977   5.009  19.754  0.00  0.00    +0.000 HD
ENDBRANCH   1  19
BRANCH   2  21
ATOM     21  O   UNL     1       1.760   1.372  19.134  0.00  0.00    +0.000 OA
ATOM     22  H   UNL     1       0.911   1.298  19.600  0.00  0.00    +0.000 HD
ENDBRANCH   2  21
BRANCH   6  23
ATOM     23  O   UNL     1       4.574   1.313  19.869  0.00  0.00    +0.000 OA
ATOM     24  H   UNL     1       4.950   0.959  19.044  0.00  0.00    +0.000 HD
ENDBRANCH   6  23
BRANCH   3  25
ATOM     25  C   UNL     1       2.326   4.248  16.825  0.00  0.00    +0.000 C 
BRANCH  25  26
ATOM     26  O   UNL     1       1.260   4.864  17.554  0.00  0.00    +0.000 OA
ATOM     27  H   UNL     1       1.516   5.789  17.721  0.00  0.00    +0.000 HD
ENDBRANCH  25  26
ENDBRANCH   3  25
TORSDOF 8
ENDMDL
MODEL 7
REMARK VINA RESULT:      -5.9      1.312      1.415
REMARK  Name = 
REMARK  8 active torsions:
REMARK  status: ('A' for Active; 'I' for Inactive)
REMARK    1  A    between atoms: C_2  and  C_3
REMARK    2  A    between atoms: C_3  and  O_4
REMARK    3  A    between atoms: C_5  and  O_6
REMARK    4  A    between atoms: C_7  and  C_8
REMARK    5  A    between atoms: C_8  and  O_9
REMARK    6  A    between atoms: C_11  and  N_12
REMARK    7  A    between atoms: C_16  and  O_17
REMARK    8  A    between atoms: C_21  and  O_22
REMARK                            x       y       z     vdW  Elec       q    Type
REMARK                         _______ _______ _______ _____ _____    ______ ____
ROOT
ATOM      1  C   UNL     1       2.841   3.902  20.051  0.00  0.00    +0.000 C 
ATOM      2  C   UNL     1       1.720   4.569  19.220  0.00  0.00    +0.000 C 
ATOM      3  C   UNL     1       2.268   5.276  17.956  0.00  0.00    +0.000 C 
ATOM      4  O   UNL     1       3.295   4.531  17.266  0.00  0.00    +0.000 OA
ATOM      5  C   UNL     1       4.391   3.993  18.042  0.00  0.00    +0.000 C 
ATOM      6  C   UNL     1       3.786   3.086  19.144  0.00  0.00    +0.000 C 
ENDROOT
BRANCH   5   7
ATOM      7  N   UNL     1       5.433   5.007  18.324  0.00  0.00    +0.000 N 
ATOM      8  C   UNL     1       5.685   5.984  17.359  0.00  0.00    +0.000 A 
ATOM      9  C   UNL     1       6.706   6.825  17.484  0.00  0.00    +0.000 A 
ATOM     10  F   UNL     1       7.006   7.817  16.630  0.00  0.00    +0.000 F 
ATOM     11  C   UNL     1       7.556   6.603  18.641  0.00  0.00    +0.000 A 
ATOM     12  N   UNL     1       7.397   5.696  19.532  0.00  0.00    +0.000 NA
ATOM     13  C   UNL     1       6.331   4.836  19.399  0.00  0.00    +0.000 A 
ATOM     14  O   UNL     1       6.165   3.956  20.236  0.00  0.00    +0.000 OA
BRANCH  11  15
ATOM     15  O   UNL     1       8.599   7.449  18.730  0.00  0.00    +0.000 OA
ATOM     16  H   UNL     1       9.306   7.123  19.312  0.00  0.00    +0.000 HD
ENDBRANCH  11  15
ENDBRANCH   5   7
BRANCH   1  18
ATOM     17  N   UNL     1       1.784   2.395  21.952  0.00  0.00    +0.000 NA
ATOM     18  C   UNL     1       2.269   3.030  21.106  0.00  0.00    +0.000 C 
ENDBRANCH   1  18
BRANCH   1  19
ATOM     19  O   UNL     1       3.574   4.969  20.692  0.00  0.00    +0.000 OA
ATOM     20  H   UNL     1       3.367   4.919  21.653  0.00  0.00    +0.000 HD
ENDBRANCH   1  19
BRANCH   2  21
ATOM     21  O   UNL     1       0.709   3.624  18.831  0.00  0.00    +0.000 OA
ATOM     22  H   UNL     1       1.099   2.751  18.662  0.00  0.00    +0.000 HD
ENDBRANCH   2  21
BRANCH   6  23
ATOM     23  O   UNL     1       3.092   1.989  18.496  0.00  0.00    +0.000 OA
ATOM     24  H   UNL     1       2.139   2.188  18.481  0.00  0.00    +0.000 HD
ENDBRANCH   6  23
BRANCH   3  25
ATOM     25  C   UNL     1       2.647   6.748  18.190  0.00  0.00    +0.000 C 
BRANCH  25  26
ATOM     26  O   UNL     1       2.161   7.161  19.470  0.00  0.00    +0.000 OA
ATOM     27  H   UNL     1       1.731   8.027  19.354  0.00  0.00    +0.000 HD
ENDBRANCH  25  26
ENDBRANCH   3  25
TORSDOF 8
ENDMDL
MODEL 8
REMARK VINA RESULT:      -5.9      2.198      5.351
REMARK  Name = 
REMARK  8 active torsions:
REMARK  status: ('A' for Active; 'I' for Inactive)
REMARK    1  A    between atoms: C_2  and  C_3
REMARK    2  A    between atoms: C_3  and  O_4
REMARK    3  A    between atoms: C_5  and  O_6
REMARK    4  A    between atoms: C_7  and  C_8
REMARK    5  A    between atoms: C_8  and  O_9
REMARK    6  A    between atoms: C_11  and  N_12
REMARK    7  A    between atoms: C_16  and  O_17
REMARK    8  A    between atoms: C_21  and  O_22
REMARK                            x       y       z     vdW  Elec       q    Type
REMARK                         _______ _______ _______ _____ _____    ______ ____
ROOT
ATOM      1  C   UNL     1       5.787   5.172  16.705  0.00  0.00    +0.000 C 
ATOM      2  C   UNL     1       5.424   6.647  16.994  0.00  0.00    +0.000 C 
ATOM      3  C   UNL     1       4.526   6.797  18.247  0.00  0.00    +0.000 C 
ATOM      4  O   UNL     1       4.912   5.947  19.350  0.00  0.00    +0.000 OA
ATOM      5  C   UNL     1       5.155   4.547  19.083  0.00  0.00    +0.000 C 
ATOM      6  C   UNL     1       6.252   4.458  17.992  0.00  0.00    +0.000 C 
ENDROOT
BRANCH   5   7
ATOM      7  N   UNL     1       3.902   3.758  19.022  0.00  0.00    +0.000 N 
ATOM      8  C   UNL     1       3.704   2.914  17.929  0.00  0.00    +0.000 A 
ATOM      9  C   UNL     1       2.541   2.299  17.739  0.00  0.00    +0.000 A 
ATOM     10  F   UNL     1       2.267   1.443  16.741  0.00  0.00    +0.000 F 
ATOM     11  C   UNL     1       1.500   2.627  18.699  0.00  0.00    +0.000 A 
ATOM     12  N   UNL     1       1.615   3.427  19.693  0.00  0.00    +0.000 NA
ATOM     13  C   UNL     1       2.825   4.051  19.887  0.00  0.00    +0.000 A 
ATOM     14  O   UNL     1       2.955   4.827  20.827  0.00  0.00    +0.000 OA
BRANCH  11  15
ATOM     15  O   UNL     1       0.324   2.014  18.469  0.00  0.00    +0.000 OA
ATOM     16  H   UNL     1      -0.148   2.372  17.700  0.00  0.00    +0.000 HD
ENDBRANCH  11  15
ENDBRANCH   5   7
BRANCH   1  18
ATOM     17  N   UNL     1       7.651   5.069  14.830  0.00  0.00    +0.000 NA
ATOM     18  C   UNL     1       6.839   5.081  15.663  0.00  0.00    +0.000 C 
ENDBRANCH   1  18
BRANCH   1  19
ATOM     19  O   UNL     1       4.590   4.542  16.198  0.00  0.00    +0.000 OA
ATOM     20  H   UNL     1       4.141   5.205  15.625  0.00  0.00    +0.000 HD
ENDBRANCH   1  19
BRANCH   2  21
ATOM     21  O   UNL     1       6.597   7.464  17.154  0.00  0.00    +0.000 OA
ATOM     22  H   UNL     1       7.293   7.195  16.532  0.00  0.00    +0.000 HD
ENDBRANCH   2  21
BRANCH   6  23
ATOM     23  O   UNL     1       7.467   5.050  18.524  0.00  0.00    +0.000 OA
ATOM     24  H   UNL     1       7.389   6.019  18.475  0.00  0.00    +0.000 HD
ENDBRANCH   6  23
BRANCH   3  25
ATOM     25  C   UNL     1       3.022   6.734  17.936  0.00  0.00    +0.000 C 
BRANCH  25  26
ATOM     26  O   UNL     1       2.291   7.298  19.028  0.00  0.00    +0.000 OA
ATOM     27  H   UNL     1       1.374   7.432  18.730  0.00  0.00    +0.000 HD
ENDBRANCH  25  26
ENDBRANCH   3  25
TORSDOF 8
ENDMDL
MODEL 9
REMARK VINA RESULT:      -5.7      2.001      3.217
REMARK  Name = 
REMARK  8 active torsions:
REMARK  status: ('A' for Active; 'I' for Inactive)
REMARK    1  A    between atoms: C_2  and  C_3
REMARK    2  A    between atoms: C_3  and  O_4
REMARK    3  A    between atoms: C_5  and  O_6
REMARK    4  A    between atoms: C_7  and  C_8
REMARK    5  A    between atoms: C_8  and  O_9
REMARK    6  A    between atoms: C_11  and  N_12
REMARK    7  A    between atoms: C_16  and  O_17
REMARK    8  A    between atoms: C_21  and  O_22
REMARK                            x       y       z     vdW  Elec       q    Type
REMARK                         _______ _______ _______ _____ _____    ______ ____
ROOT
ATOM      1  C   UNL     1       3.290   3.385  18.261  0.00  0.00    +0.000 C 
ATOM      2  C   UNL     1       3.922   3.692  19.638  0.00  0.00    +0.000 C 
ATOM      3  C   UNL     1       4.875   4.911  19.588  0.00  0.00    +0.000 C 
ATOM      4  O   UNL     1       4.383   6.009  18.788  0.00  0.00    +0.000 OA
ATOM      5  C   UNL     1       3.883   5.720  17.462  0.00  0.00    +0.000 C 
ATOM      6  C   UNL     1       2.750   4.673  17.603  0.00  0.00    +0.000 C 
ENDROOT
BRANCH   5   7
ATOM      7  N   UNL     1       4.972   5.592  16.465  0.00  0.00    +0.000 N 
ATOM      8  C   UNL     1       4.908   4.542  15.548  0.00  0.00    +0.000 A 
ATOM      9  C   UNL     1       5.923   4.282  14.730  0.00  0.00    +0.000 A 
ATOM     10  F   UNL     1       5.941   3.320  13.793  0.00  0.00    +0.000 F 
ATOM     11  C   UNL     1       7.100   5.114  14.917  0.00  0.00    +0.000 A 
ATOM     12  N   UNL     1       7.228   6.060  15.771  0.00  0.00    +0.000 NA
ATOM     13  C   UNL     1       6.167   6.328  16.606  0.00  0.00    +0.000 A 
ATOM     14  O   UNL     1       6.271   7.224  17.437  0.00  0.00    +0.000 OA
BRANCH  11  15
ATOM     15  O   UNL     1       8.124   4.813  14.098  0.00  0.00    +0.000 OA
ATOM     16  H   UNL     1       8.992   4.900  14.524  0.00  0.00    +0.000 HD
ENDBRANCH  11  15
ENDBRANCH   5   7
BRANCH   1  18
ATOM     17  N   UNL     1       1.345   1.614  18.551  0.00  0.00    +0.000 NA
ATOM     18  C   UNL     1       2.202   2.384  18.389  0.00  0.00    +0.000 C 
ENDBRANCH   1  18
BRANCH   1  19
ATOM     19  O   UNL     1       4.336   2.816  17.442  0.00  0.00    +0.000 OA
ATOM     20  H   UNL     1       5.100   3.435  17.487  0.00  0.00    +0.000 HD
ENDBRANCH   1  19
BRANCH   2  21
ATOM     21  O   UNL     1       2.921   3.917  20.646  0.00  0.00    +0.000 OA
ATOM     22  H   UNL     1       2.269   4.572  20.345  0.00  0.00    +0.000 HD
ENDBRANCH   2  21
BRANCH   6  23
ATOM     23  O   UNL     1       1.681   5.265  18.386  0.00  0.00    +0.000 OA
ATOM     24  H   UNL     1       1.295   4.579  18.958  0.00  0.00    +0.000 HD
ENDBRANCH   6  23
BRANCH   3  25
ATOM     25  C   UNL     1       6.332   4.538  19.266  0.00  0.00    +0.000 C 
BRANCH  25  26
ATOM     26  O   UNL     1       7.208   5.470  19.907  0.00  0.00    +0.000 OA
ATOM     27  H   UNL     1       7.519   5.060  20.733  0.00  0.00    +0.000 HD
ENDBRANCH  25  26
ENDBRANCH   3  25
TORSDOF 8
ENDMDL
