MODEL 1
REMARK VINA RESULT:      -7.2      0.000      0.000
REMARK  Name = 
REMARK  7 active torsions:
REMARK  status: ('A' for Active; 'I' for Inactive)
REMARK    1  A    between atoms: C_1  and  C_2
REMARK    2  A    between atoms: C_2  and  N_3
REMARK    3  A    between atoms: C_2  and  C_15
REMARK    4  A    between atoms: C_4  and  C_6
REMARK    5  A    between atoms: C_6  and  C_7
REMARK    6  A    between atoms: C_7  and  C_8
REMARK    7  A    between atoms: C_8  and  C_9
REMARK                            x       y       z     vdW  Elec       q    Type
REMARK                         _______ _______ _______ _____ _____    ______ ____
ROOT
ATOM      1  N   UNL     1       4.409   6.448  17.738  0.00  0.00    +0.000 N 
ATOM      2  C   UNL     1       5.604   5.924  18.164  0.00  0.00    +0.000 C 
ATOM      3  O   UNL     1       5.760   5.437  19.282  0.00  0.00    +0.000 OA
ATOM      4  H   UNL     1       4.304   6.878  16.822  0.00  0.00    +0.000 HD
ENDROOT
BRANCH   1   6
ATOM      5  C   UNL     1       2.306   7.566  18.285  0.00  0.00    +0.000 C 
ATOM      6  C   UNL     1       3.228   6.395  18.594  0.00  0.00    +0.000 C 
BRANCH   6   7
ATOM      7  C   UNL     1       2.546   5.019  18.405  0.00  0.00    +0.000 C 
ATOM      8  O   UNL     1       2.508   4.499  17.288  0.00  0.00    +0.000 OA
ATOM      9  N   UNL     1       2.023   4.386  19.519  0.00  0.00    +0.000 N 
ATOM     10  C   UNL     1       1.972   4.858  20.892  0.00  0.00    +0.000 C 
ATOM     11  C   UNL     1       2.169   3.588  21.703  0.00  0.00    +0.000 C 
ATOM     12  C   UNL     1       1.410   2.542  20.894  0.00  0.00    +0.000 C 
ATOM     13  C   UNL     1       1.531   3.017  19.444  0.00  0.00    +0.000 C 
ENDBRANCH   6   7
ENDBRANCH   1   6
BRANCH   2  14
ATOM     14  C   UNL     1       6.701   5.924  17.132  0.00  0.00    +0.000 C 
BRANCH  14  15
ATOM     15  C   UNL     1       7.026   4.490  16.719  0.00  0.00    +0.000 C 
BRANCH  15  16
ATOM     16  C   UNL     1       5.986   3.906  15.755  0.00  0.00    +0.000 C 
BRANCH  16  17
ATOM     17  C   UNL     1       6.439   4.063  14.328  0.00  0.00    +0.000 A 
ATOM     18  C   UNL     1       7.420   5.007  13.995  0.00  0.00    +0.000 A 
ATOM     19  C   UNL     1       7.790   5.198  12.663  0.00  0.00    +0.000 A 
ATOM     20  C   UNL     1       7.178   4.454  11.656  0.00  0.00    +0.000 A 
ATOM     21  C   UNL     1       6.202   3.511  11.980  0.00  0.00    +0.000 A 
ATOM     22  C   UNL     1       5.834   3.316  13.310  0.00  0.00    +0.000 A 
ENDBRANCH  16  17
ENDBRANCH  15  16
ENDBRANCH  14  15
ENDBRANCH   2  14
TORSDOF 6
ENDMDL
MODEL 2
REMARK VINA RESULT:      -7.2      2.278      6.936
REMARK  Name = 
REMARK  7 active torsions:
REMARK  status: ('A' for Active; 'I' for Inactive)
REMARK    1  A    between atoms: C_1  and  C_2
REMARK    2  A    between atoms: C_2  and  N_3
REMARK    3  A    between atoms: C_2  and  C_15
REMARK    4  A    between atoms: C_4  and  C_6
REMARK    5  A    between atoms: C_6  and  C_7
REMARK    6  A    between atoms: C_7  and  C_8
REMARK    7  A    between atoms: C_8  and  C_9
REMARK                            x       y       z     vdW  Elec       q    Type
REMARK                         _______ _______ _______ _____ _____    ______ ____
ROOT
ATOM      1  N   UNL     1       4.193   4.281  16.388  0.00  0.00    +0.000 N 
ATOM      2  C   UNL     1       3.887   3.939  17.681  0.00  0.00    +0.000 C 
ATOM      3  O   UNL     1       4.735   3.586  18.498  0.00  0.00    +0.000 OA
ATOM      4  H   UNL     1       3.476   4.539  15.714  0.00  0.00    +0.000 HD
ENDROOT
BRANCH   1   6
ATOM      5  C   UNL     1       5.665   3.794  14.499  0.00  0.00    +0.000 C 
ATOM      6  C   UNL     1       5.579   4.297  15.933  0.00  0.00    +0.000 C 
BRANCH   6   7
ATOM      7  C   UNL     1       6.137   5.730  16.108  0.00  0.00    +0.000 C 
ATOM      8  O   UNL     1       5.718   6.645  15.396  0.00  0.00    +0.000 OA
ATOM      9  N   UNL     1       7.078   5.953  17.097  0.00  0.00    +0.000 N 
ATOM     10  C   UNL     1       7.685   4.996  18.006  0.00  0.00    +0.000 C 
ATOM     11  C   UNL     1       7.853   5.794  19.288  0.00  0.00    +0.000 C 
ATOM     12  C   UNL     1       8.222   7.183  18.783  0.00  0.00    +0.000 C 
ATOM     13  C   UNL     1       7.510   7.303  17.433  0.00  0.00    +0.000 C 
ENDBRANCH   6   7
ENDBRANCH   1   6
BRANCH   2  14
ATOM     14  C   UNL     1       2.435   4.096  18.052  0.00  0.00    +0.000 C 
BRANCH  14  15
ATOM     15  C   UNL     1       2.243   5.367  18.878  0.00  0.00    +0.000 C 
BRANCH  15  16
ATOM     16  C   UNL     1       2.701   6.626  18.133  0.00  0.00    +0.000 C 
BRANCH  16  17
ATOM     17  C   UNL     1       2.108   7.859  18.762  0.00  0.00    +0.000 A 
ATOM     18  C   UNL     1       1.723   7.853  20.109  0.00  0.00    +0.000 A 
ATOM     19  C   UNL     1       1.113   8.974  20.672  0.00  0.00    +0.000 A 
ATOM     20  C   UNL     1       0.877  10.105  19.892  0.00  0.00    +0.000 A 
ATOM     21  C   UNL     1       1.258  10.118  18.551  0.00  0.00    +0.000 A 
ATOM     22  C   UNL     1       1.871   9.001  17.987  0.00  0.00    +0.000 A 
ENDBRANCH  16  17
ENDBRANCH  15  16
ENDBRANCH  14  15
ENDBRANCH   2  14
TORSDOF 6
ENDMDL
MODEL 3
REMARK VINA RESULT:      -7.1      4.269      5.886
REMARK  Name = 
REMARK  7 active torsions:
REMARK  status: ('A' for Active; 'I' for Inactive)
REMARK    1  A    between atoms: C_1  and  C_2
REMARK    2  A    between atoms: C_2  and  N_3
REMARK    3  A    between atoms: C_2  and  C_15
REMARK    4  A    between atoms: C_4  and  C_6
REMARK    5  A    between atoms: C_6  and  C_7
REMARK    6  A    between atoms: C_7  and  C_8
REMARK    7  A    between atoms: C_8  and  C_9
REMARK                            x       y       z     vdW  Elec       q    Type
REMARK                         _______ _______ _______ _____ _____    ______ ____
ROOT
ATOM      1  N   UNL     1       6.144   5.903  18.462  0.00  0.00    +0.000 N 
ATOM      2  C   UNL     1       6.732   6.812  17.618  0.00  0.00    +0.000 C 
ATOM      3  O   UNL     1       6.231   7.153  16.549  0.00  0.00    +0.000 OA
ATOM      4  H   UNL     1       6.586   5.605  19.327  0.00  0.00    +0.000 HD
ENDROOT
BRANCH   1   6
ATOM      5  C   UNL     1       4.786   4.928  16.678  0.00  0.00    +0.000 C 
ATOM      6  C   UNL     1       4.838   5.333  18.144  0.00  0.00    +0.000 C 
BRANCH   6   7
ATOM      7  C   UNL     1       4.570   4.153  19.109  0.00  0.00    +0.000 C 
ATOM      8  O   UNL     1       5.508   3.468  19.519  0.00  0.00    +0.000 OA
ATOM      9  N   UNL     1       3.268   3.922  19.518  0.00  0.00    +0.000 N 
ATOM     10  C   UNL     1       2.055   4.618  19.126  0.00  0.00    +0.000 C 
ATOM     11  C   UNL     1       1.223   4.609  20.398  0.00  0.00    +0.000 C 
ATOM     12  C   UNL     1       1.535   3.246  21.004  0.00  0.00    +0.000 C 
ATOM     13  C   UNL     1       2.970   2.947  20.559  0.00  0.00    +0.000 C 
ENDBRANCH   6   7
ENDBRANCH   1   6
BRANCH   2  14
ATOM     14  C   UNL     1       8.011   7.419  18.132  0.00  0.00    +0.000 C 
BRANCH  14  15
ATOM     15  C   UNL     1       8.011   8.925  17.877  0.00  0.00    +0.000 C 
BRANCH  15  16
ATOM     16  C   UNL     1       8.873   9.692  18.887  0.00  0.00    +0.000 C 
BRANCH  16  17
ATOM     17  C   UNL     1       9.441  10.939  18.260  0.00  0.00    +0.000 A 
ATOM     18  C   UNL     1      10.824  11.080  18.087  0.00  0.00    +0.000 A 
ATOM     19  C   UNL     1      11.351  12.262  17.568  0.00  0.00    +0.000 A 
ATOM     20  C   UNL     1      10.503  13.314  17.227  0.00  0.00    +0.000 A 
ATOM     21  C   UNL     1       9.125  13.180  17.395  0.00  0.00    +0.000 A 
ATOM     22  C   UNL     1       8.595  11.998  17.909  0.00  0.00    +0.000 A 
ENDBRANCH  16  17
ENDBRANCH  15  16
ENDBRANCH  14  15
ENDBRANCH   2  14
TORSDOF 6
ENDMDL
MODEL 4
REMARK VINA RESULT:      -6.9      4.799      6.857
REMARK  Name = 
REMARK  7 active torsions:
REMARK  status: ('A' for Active; 'I' for Inactive)
REMARK    1  A    between atoms: C_1  and  C_2
REMARK    2  A    between atoms: C_2  and  N_3
REMARK    3  A    between atoms: C_2  and  C_15
REMARK    4  A    between atoms: C_4  and  C_6
REMARK    5  A    between atoms: C_6  and  C_7
REMARK    6  A    between atoms: C_7  and  C_8
REMARK    7  A    between atoms: C_8  and  C_9
REMARK                            x       y       z     vdW  Elec       q    Type
REMARK                         _______ _______ _______ _____ _____    ______ ____
ROOT
ATOM      1  N   UNL     1       7.464   6.271  17.240  0.00  0.00    +0.000 N 
ATOM      2  C   UNL     1       7.350   7.555  17.712  0.00  0.00    +0.000 C 
ATOM      3  O   UNL     1       6.300   8.191  17.674  0.00  0.00    +0.000 OA
ATOM      4  H   UNL     1       8.348   5.770  17.248  0.00  0.00    +0.000 HD
ENDROOT
BRANCH   1   6
ATOM      5  C   UNL     1       6.719   4.620  15.599  0.00  0.00    +0.000 C 
ATOM      6  C   UNL     1       6.298   5.570  16.712  0.00  0.00    +0.000 C 
BRANCH   6   7
ATOM      7  C   UNL     1       5.585   4.853  17.884  0.00  0.00    +0.000 C 
ATOM      8  O   UNL     1       6.178   3.987  18.529  0.00  0.00    +0.000 OA
ATOM      9  N   UNL     1       4.294   5.238  18.201  0.00  0.00    +0.000 N 
ATOM     10  C   UNL     1       3.451   6.221  17.543  0.00  0.00    +0.000 C 
ATOM     11  C   UNL     1       2.675   6.838  18.695  0.00  0.00    +0.000 C 
ATOM     12  C   UNL     1       2.426   5.651  19.617  0.00  0.00    +0.000 C 
ATOM     13  C   UNL     1       3.632   4.734  19.397  0.00  0.00    +0.000 C 
ENDBRANCH   6   7
ENDBRANCH   1   6
BRANCH   2  14
ATOM     14  C   UNL     1       8.598   8.108  18.351  0.00  0.00    +0.000 C 
BRANCH  14  15
ATOM     15  C   UNL     1       8.594   9.633  18.264  0.00  0.00    +0.000 C 
BRANCH  15  16
ATOM     16  C   UNL     1       9.186  10.294  19.515  0.00  0.00    +0.000 C 
BRANCH  16  17
ATOM     17  C   UNL     1      10.255  11.284  19.135  0.00  0.00    +0.000 A 
ATOM     18  C   UNL     1      10.471  11.614  17.791  0.00  0.00    +0.000 A 
ATOM     19  C   UNL     1      11.504  12.482  17.436  0.00  0.00    +0.000 A 
ATOM     20  C   UNL     1      12.333  13.018  18.420  0.00  0.00    +0.000 A 
ATOM     21  C   UNL     1      12.123  12.695  19.760  0.00  0.00    +0.000 A 
ATOM     22  C   UNL     1      11.089  11.832  20.117  0.00  0.00    +0.000 A 
ENDBRANCH  16  17
ENDBRANCH  15  16
ENDBRANCH  14  15
ENDBRANCH   2  14
TORSDOF 6
ENDMDL
MODEL 5
REMARK VINA RESULT:      -6.9      5.215      7.109
REMARK  Name = 
REMARK  7 active torsions:
REMARK  status: ('A' for Active; 'I' for Inactive)
REMARK    1  A    between atoms: C_1  and  C_2
REMARK    2  A    between atoms: C_2  and  N_3
REMARK    3  A    between atoms: C_2  and  C_15
REMARK    4  A    between atoms: C_4  and  C_6
REMARK    5  A    between atoms: C_6  and  C_7
REMARK    6  A    between atoms: C_7  and  C_8
REMARK    7  A    between atoms: C_8  and  C_9
REMARK                            x       y       z     vdW  Elec       q    Type
REMARK                         _______ _______ _______ _____ _____    ______ ____
ROOT
ATOM      1  N   UNL     1       7.730   6.608  18.351  0.00  0.00    +0.000 N 
ATOM      2  C   UNL     1       7.864   7.908  17.929  0.00  0.00    +0.000 C 
ATOM      3  O   UNL     1       7.187   8.390  17.024  0.00  0.00    +0.000 OA
ATOM      4  H   UNL     1       8.321   6.214  19.079  0.00  0.00    +0.000 HD
ENDROOT
BRANCH   1   6
ATOM      5  C   UNL     1       7.369   4.663  16.916  0.00  0.00    +0.000 C 
ATOM      6  C   UNL     1       6.712   5.741  17.767  0.00  0.00    +0.000 C 
BRANCH   6   7
ATOM      7  C   UNL     1       5.844   5.164  18.912  0.00  0.00    +0.000 C 
ATOM      8  O   UNL     1       6.360   4.883  19.995  0.00  0.00    +0.000 OA
ATOM      9  N   UNL     1       4.486   5.014  18.694  0.00  0.00    +0.000 N 
ATOM     10  C   UNL     1       3.724   5.281  17.486  0.00  0.00    +0.000 C 
ATOM     11  C   UNL     1       2.399   5.802  18.020  0.00  0.00    +0.000 C 
ATOM     12  C   UNL     1       2.176   4.958  19.269  0.00  0.00    +0.000 C 
ATOM     13  C   UNL     1       3.586   4.649  19.780  0.00  0.00    +0.000 C 
ENDBRANCH   6   7
ENDBRANCH   1   6
BRANCH   2  14
ATOM     14  C   UNL     1       8.859   8.728  18.708  0.00  0.00    +0.000 C 
BRANCH  14  15
ATOM     15  C   UNL     1       8.813  10.182  18.242  0.00  0.00    +0.000 C 
BRANCH  15  16
ATOM     16  C   UNL     1       9.299  11.159  19.320  0.00  0.00    +0.000 C 
BRANCH  16  17
ATOM     17  C   UNL     1      10.057  12.301  18.696  0.00  0.00    +0.000 A 
ATOM     18  C   UNL     1      10.058  13.566  19.300  0.00  0.00    +0.000 A 
ATOM     19  C   UNL     1      10.705  14.638  18.686  0.00  0.00    +0.000 A 
ATOM     20  C   UNL     1      11.347  14.458  17.462  0.00  0.00    +0.000 A 
ATOM     21  C   UNL     1      11.351  13.202  16.856  0.00  0.00    +0.000 A 
ATOM     22  C   UNL     1      10.709  12.128  17.469  0.00  0.00    +0.000 A 
ENDBRANCH  16  17
ENDBRANCH  15  16
ENDBRANCH  14  15
ENDBRANCH   2  14
TORSDOF 6
ENDMDL
MODEL 6
REMARK VINA RESULT:      -6.8      1.795      7.101
REMARK  Name = 
REMARK  7 active torsions:
REMARK  status: ('A' for Active; 'I' for Inactive)
REMARK    1  A    between atoms: C_1  and  C_2
REMARK    2  A    between atoms: C_2  and  N_3
REMARK    3  A    between atoms: C_2  and  C_15
REMARK    4  A    between atoms: C_4  and  C_6
REMARK    5  A    between atoms: C_6  and  C_7
REMARK    6  A    between atoms: C_7  and  C_8
REMARK    7  A    between atoms: C_8  and  C_9
REMARK                            x       y       z     vdW  Elec       q    Type
REMARK                         _______ _______ _______ _____ _____    ______ ____
ROOT
ATOM      1  N   UNL     1       5.642   5.822  17.342  0.00  0.00    +0.000 N 
ATOM      2  C   UNL     1       4.831   6.736  16.718  0.00  0.00    +0.000 C 
ATOM      3  O   UNL     1       5.031   7.136  15.573  0.00  0.00    +0.000 OA
ATOM      4  H   UNL     1       5.483   5.526  18.302  0.00  0.00    +0.000 HD
ENDROOT
BRANCH   1   6
ATOM      5  C   UNL     1       7.738   4.597  17.626  0.00  0.00    +0.000 C 
ATOM      6  C   UNL     1       6.770   5.226  16.634  0.00  0.00    +0.000 C 
BRANCH   6   7
ATOM      7  C   UNL     1       6.221   4.214  15.599  0.00  0.00    +0.000 C 
ATOM      8  O   UNL     1       5.291   3.464  15.904  0.00  0.00    +0.000 OA
ATOM      9  N   UNL     1       6.773   4.206  14.331  0.00  0.00    +0.000 N 
ATOM     10  C   UNL     1       7.871   5.003  13.812  0.00  0.00    +0.000 C 
ATOM     11  C   UNL     1       7.465   5.255  12.369  0.00  0.00    +0.000 C 
ATOM     12  C   UNL     1       6.802   3.944  11.965  0.00  0.00    +0.000 C 
ATOM     13  C   UNL     1       6.187   3.409  13.261  0.00  0.00    +0.000 C 
ENDBRANCH   6   7
ENDBRANCH   1   6
BRANCH   2  14
ATOM     14  C   UNL     1       3.629   7.168  17.518  0.00  0.00    +0.000 C 
BRANCH  14  15
ATOM     15  C   UNL     1       3.678   6.540  18.910  0.00  0.00    +0.000 C 
BRANCH  15  16
ATOM     16  C   UNL     1       2.292   6.440  19.557  0.00  0.00    +0.000 C 
BRANCH  16  17
ATOM     17  C   UNL     1       1.809   5.014  19.557  0.00  0.00    +0.000 A 
ATOM     18  C   UNL     1       1.546   4.354  20.765  0.00  0.00    +0.000 A 
ATOM     19  C   UNL     1       1.163   3.012  20.765  0.00  0.00    +0.000 A 
ATOM     20  C   UNL     1       1.046   2.320  19.561  0.00  0.00    +0.000 A 
ATOM     21  C   UNL     1       1.305   2.971  18.355  0.00  0.00    +0.000 A 
ATOM     22  C   UNL     1       1.684   4.312  18.352  0.00  0.00    +0.000 A 
ENDBRANCH  16  17
ENDBRANCH  15  16
ENDBRANCH  14  15
ENDBRANCH   2  14
TORSDOF 6
ENDMDL
MODEL 7
REMARK VINA RESULT:      -6.8      5.022      7.402
REMARK  Name = 
REMARK  7 active torsions:
REMARK  status: ('A' for Active; 'I' for Inactive)
REMARK    1  A    between atoms: C_1  and  C_2
REMARK    2  A    between atoms: C_2  and  N_3
REMARK    3  A    between atoms: C_2  and  C_15
REMARK    4  A    between atoms: C_4  and  C_6
REMARK    5  A    between atoms: C_6  and  C_7
REMARK    6  A    between atoms: C_7  and  C_8
REMARK    7  A    between atoms: C_8  and  C_9
REMARK                            x       y       z     vdW  Elec       q    Type
REMARK                         _______ _______ _______ _____ _____    ______ ____
ROOT
ATOM      1  N   UNL     1       7.605   6.463  18.106  0.00  0.00    +0.000 N 
ATOM      2  C   UNL     1       7.678   7.790  17.761  0.00  0.00    +0.000 C 
ATOM      3  O   UNL     1       6.956   8.299  16.907  0.00  0.00    +0.000 OA
ATOM      4  H   UNL     1       8.232   6.049  18.791  0.00  0.00    +0.000 HD
ENDROOT
BRANCH   1   6
ATOM      5  C   UNL     1       7.279   4.479  16.718  0.00  0.00    +0.000 C 
ATOM      6  C   UNL     1       6.601   5.594  17.501  0.00  0.00    +0.000 C 
BRANCH   6   7
ATOM      7  C   UNL     1       5.668   5.069  18.619  0.00  0.00    +0.000 C 
ATOM      8  O   UNL     1       6.107   4.302  19.478  0.00  0.00    +0.000 OA
ATOM      9  N   UNL     1       4.358   5.512  18.643  0.00  0.00    +0.000 N 
ATOM     10  C   UNL     1       3.680   6.397  17.711  0.00  0.00    +0.000 C 
ATOM     11  C   UNL     1       2.740   7.189  18.605  0.00  0.00    +0.000 C 
ATOM     12  C   UNL     1       2.289   6.155  19.631  0.00  0.00    +0.000 C 
ATOM     13  C   UNL     1       3.480   5.201  19.763  0.00  0.00    +0.000 C 
ENDBRANCH   6   7
ENDBRANCH   1   6
BRANCH   2  14
ATOM     14  C   UNL     1       8.667   8.599  18.558  0.00  0.00    +0.000 C 
BRANCH  14  15
ATOM     15  C   UNL     1       8.512  10.083  18.228  0.00  0.00    +0.000 C 
BRANCH  15  16
ATOM     16  C   UNL     1       9.842  10.842  18.299  0.00  0.00    +0.000 C 
BRANCH  16  17
ATOM     17  C   UNL     1       9.820  11.845  19.423  0.00  0.00    +0.000 A 
ATOM     18  C   UNL     1      10.254  13.160  19.209  0.00  0.00    +0.000 A 
ATOM     19  C   UNL     1      10.296  14.068  20.267  0.00  0.00    +0.000 A 
ATOM     20  C   UNL     1       9.912  13.667  21.546  0.00  0.00    +0.000 A 
ATOM     21  C   UNL     1       9.477  12.361  21.765  0.00  0.00    +0.000 A 
ATOM     22  C   UNL     1       9.431  11.452  20.709  0.00  0.00    +0.000 A 
ENDBRANCH  16  17
ENDBRANCH  15  16
ENDBRANCH  14  15
ENDBRANCH   2  14
TORSDOF 6
ENDMDL
MODEL 8
REMARK VINA RESULT:      -6.8      4.254      6.384
REMARK  Name = 
REMARK  7 active torsions:
REMARK  status: ('A' for Active; 'I' for Inactive)
REMARK    1  A    between atoms: C_1  and  C_2
REMARK    2  A    between atoms: C_2  and  N_3
REMARK    3  A    between atoms: C_2  and  C_15
REMARK    4  A    between atoms: C_4  and  C_6
REMARK    5  A    between atoms: C_6  and  C_7
REMARK    6  A    between atoms: C_7  and  C_8
REMARK    7  A    between atoms: C_8  and  C_9
REMARK                            x       y       z     vdW  Elec       q    Type
REMARK                         _______ _______ _______ _____ _____    ______ ____
ROOT
ATOM      1  N   UNL     1       6.885   5.679  16.657  0.00  0.00    +0.000 N 
ATOM      2  C   UNL     1       6.816   6.984  17.076  0.00  0.00    +0.000 C 
ATOM      3  O   UNL     1       5.757   7.541  17.358  0.00  0.00    +0.000 OA
ATOM      4  H   UNL     1       7.766   5.242  16.396  0.00  0.00    +0.000 HD
ENDROOT
BRANCH   1   6
ATOM      5  C   UNL     1       5.856   3.764  15.541  0.00  0.00    +0.000 C 
ATOM      6  C   UNL     1       5.680   4.859  16.583  0.00  0.00    +0.000 C 
BRANCH   6   7
ATOM      7  C   UNL     1       5.374   4.308  17.997  0.00  0.00    +0.000 C 
ATOM      8  O   UNL     1       6.281   4.193  18.823  0.00  0.00    +0.000 OA
ATOM      9  N   UNL     1       4.064   3.989  18.309  0.00  0.00    +0.000 N 
ATOM     10  C   UNL     1       2.887   4.050  17.460  0.00  0.00    +0.000 C 
ATOM     11  C   UNL     1       1.788   4.474  18.420  0.00  0.00    +0.000 C 
ATOM     12  C   UNL     1       2.152   3.739  19.705  0.00  0.00    +0.000 C 
ATOM     13  C   UNL     1       3.680   3.638  19.669  0.00  0.00    +0.000 C 
ENDBRANCH   6   7
ENDBRANCH   1   6
BRANCH   2  14
ATOM     14  C   UNL     1       8.147   7.671  17.234  0.00  0.00    +0.000 C 
BRANCH  14  15
ATOM     15  C   UNL     1       8.100   8.630  18.422  0.00  0.00    +0.000 C 
BRANCH  15  16
ATOM     16  C   UNL     1       8.233  10.098  17.998  0.00  0.00    +0.000 C 
BRANCH  16  17
ATOM     17  C   UNL     1       9.426  10.734  18.660  0.00  0.00    +0.000 A 
ATOM     18  C   UNL     1       9.423  10.985  20.039  0.00  0.00    +0.000 A 
ATOM     19  C   UNL     1      10.502  11.635  20.638  0.00  0.00    +0.000 A 
ATOM     20  C   UNL     1      11.586  12.046  19.865  0.00  0.00    +0.000 A 
ATOM     21  C   UNL     1      11.597  11.798  18.493  0.00  0.00    +0.000 A 
ATOM     22  C   UNL     1      10.522  11.145  17.892  0.00  0.00    +0.000 A 
ENDBRANCH  16  17
ENDBRANCH  15  16
ENDBRANCH  14  15
ENDBRANCH   2  14
TORSDOF 6
ENDMDL
MODEL 9
REMARK VINA RESULT:      -6.8      0.781      1.266
REMARK  Name = 
REMARK  7 active torsions:
REMARK  status: ('A' for Active; 'I' for Inactive)
REMARK    1  A    between atoms: C_1  and  C_2
REMARK    2  A    between atoms: C_2  and  N_3
REMARK    3  A    between atoms: C_2  and  C_15
REMARK    4  A    between atoms: C_4  and  C_6
REMARK    5  A    between atoms: C_6  and  C_7
REMARK    6  A    between atoms: C_7  and  C_8
REMARK    7  A    between atoms: C_8  and  C_9
REMARK                            x       y       z     vdW  Elec       q    Type
REMARK                         _______ _______ _______ _____ _____    ______ ____
ROOT
ATOM      1  N   UNL     1       5.200   6.164  18.188  0.00  0.00    +0.000 N 
ATOM      2  C   UNL     1       6.131   5.305  18.718  0.00  0.00    +0.000 C 
ATOM      3  O   UNL     1       5.894   4.567  19.672  0.00  0.00    +0.000 OA
ATOM      4  H   UNL     1       5.422   6.793  17.420  0.00  0.00    +0.000 HD
ENDROOT
BRANCH   1   6
ATOM      5  C   UNL     1       3.078   7.373  18.119  0.00  0.00    +0.000 C 
ATOM      6  C   UNL     1       3.838   6.195  18.710  0.00  0.00    +0.000 C 
BRANCH   6   7
ATOM      7  C   UNL     1       3.168   4.831  18.415  0.00  0.00    +0.000 C 
ATOM      8  O   UNL     1       3.339   4.284  17.323  0.00  0.00    +0.000 OA
ATOM      9  N   UNL     1       2.415   4.239  19.413  0.00  0.00    +0.000 N 
ATOM     10  C   UNL     1       2.103   4.746  20.738  0.00  0.00    +0.000 C 
ATOM     11  C   UNL     1       2.097   3.491  21.596  0.00  0.00    +0.000 C 
ATOM     12  C   UNL     1       1.485   2.445  20.672  0.00  0.00    +0.000 C 
ATOM     13  C   UNL     1       1.908   2.881  19.267  0.00  0.00    +0.000 C 
ENDBRANCH   6   7
ENDBRANCH   1   6
BRANCH   2  14
ATOM     14  C   UNL     1       7.454   5.281  17.998  0.00  0.00    +0.000 C 
BRANCH  14  15
ATOM     15  C   UNL     1       7.299   4.582  16.649  0.00  0.00    +0.000 C 
BRANCH  15  16
ATOM     16  C   UNL     1       6.397   5.361  15.684  0.00  0.00    +0.000 C 
BRANCH  16  17
ATOM     17  C   UNL     1       6.517   4.812  14.286  0.00  0.00    +0.000 A 
ATOM     18  C   UNL     1       5.612   3.850  13.822  0.00  0.00    +0.000 A 
ATOM     19  C   UNL     1       5.765   3.295  12.551  0.00  0.00    +0.000 A 
ATOM     20  C   UNL     1       6.827   3.691  11.740  0.00  0.00    +0.000 A 
ATOM     21  C   UNL     1       7.731   4.649  12.196  0.00  0.00    +0.000 A 
ATOM     22  C   UNL     1       7.578   5.209  13.463  0.00  0.00    +0.000 A 
ENDBRANCH  16  17
ENDBRANCH  15  16
ENDBRANCH  14  15
ENDBRANCH   2  14
TORSDOF 6
ENDMDL
