MODEL 1
REMARK VINA RESULT:      -5.8      0.000      0.000
REMARK  Name = 
REMARK  8 active torsions:
REMARK  status: ('A' for Active; 'I' for Inactive)
REMARK    1  A    between atoms: C_1  and  C_2
REMARK    2  A    between atoms: C_2  and  C_3
REMARK    3  A    between atoms: C_3  and  C_4
REMARK    4  A    between atoms: C_4  and  C_5
REMARK    5  A    between atoms: C_6  and  S_7
REMARK    6  A    between atoms: S_7  and  C_8
REMARK    7  A    between atoms: C_15  and  S_16
REMARK    8  A    between atoms: S_16  and  C_17
REMARK                            x       y       z     vdW  Elec       q    Type
REMARK                         _______ _______ _______ _____ _____    ______ ____
ROOT
ATOM      1  C   UNL     1       2.810   4.996  18.234  0.00  0.00    +0.000 A 
ATOM      2  C   UNL     1       3.304   6.280  17.958  0.00  0.00    +0.000 A 
ATOM      3  C   UNL     1       4.601   6.095  17.524  0.00  0.00    +0.000 A 
ATOM      4  C   UNL     1       5.521   7.044  17.074  0.00  0.00    +0.000 A 
ATOM      5  N   UNL     1       6.735   6.605  16.639  0.00  0.00    +0.000 NA
ATOM      6  C   UNL     1       7.061   5.277  16.638  0.00  0.00    +0.000 A 
ATOM      7  C   UNL     1       6.127   4.332  17.091  0.00  0.00    +0.000 A 
ATOM      8  N   UNL     1       4.922   4.789  17.522  0.00  0.00    +0.000 N 
ATOM      9  C   UNL     1       3.847   4.099  17.964  0.00  0.00    +0.000 A 
ENDROOT
BRANCH   2  10
ATOM     10  S   UNL     1       2.423   7.864  17.961  0.00  0.00    +0.000 S 
ATOM     11  C   UNL     1       2.003   7.995  19.726  0.00  0.00    +0.000 C 
ENDBRANCH   2  10
BRANCH   9  12
ATOM     12  S   UNL     1       3.739   2.288  17.990  0.00  0.00    +0.000 S 
ATOM     13  C   UNL     1       4.453   2.007  19.638  0.00  0.00    +0.000 C 
ENDBRANCH   9  12
BRANCH   1  14
ATOM     14  C   UNL     1       1.418   4.625  18.676  0.00  0.00    +0.000 C 
BRANCH  14  15
ATOM     15  C   UNL     1       1.314   4.455  20.200  0.00  0.00    +0.000 C 
BRANCH  15  17
ATOM     16  C   UNL     1       1.706   2.604  21.874  0.00  0.00    +0.000 C 
ATOM     17  C   UNL     1       0.971   3.012  20.603  0.00  0.00    +0.000 C 
ENDBRANCH  15  17
ENDBRANCH  14  15
ENDBRANCH   1  14
TORSDOF 5
ENDMDL
MODEL 2
REMARK VINA RESULT:      -5.6      0.733      3.233
REMARK  Name = 
REMARK  8 active torsions:
REMARK  status: ('A' for Active; 'I' for Inactive)
REMARK    1  A    between atoms: C_1  and  C_2
REMARK    2  A    between atoms: C_2  and  C_3
REMARK    3  A    between atoms: C_3  and  C_4
REMARK    4  A    between atoms: C_4  and  C_5
REMARK    5  A    between atoms: C_6  and  S_7
REMARK    6  A    between atoms: S_7  and  C_8
REMARK    7  A    between atoms: C_15  and  S_16
REMARK    8  A    between atoms: S_16  and  C_17
REMARK                            x       y       z     vdW  Elec       q    Type
REMARK                         _______ _______ _______ _____ _____    ______ ____
ROOT
ATOM      1  C   UNL     1       2.933   4.821  17.948  0.00  0.00    +0.000 A 
ATOM      2  C   UNL     1       4.000   3.916  17.843  0.00  0.00    +0.000 A 
ATOM      3  C   UNL     1       5.115   4.685  17.575  0.00  0.00    +0.000 A 
ATOM      4  C   UNL     1       6.444   4.285  17.428  0.00  0.00    +0.000 A 
ATOM      5  N   UNL     1       7.385   5.248  17.221  0.00  0.00    +0.000 NA
ATOM      6  C   UNL     1       7.055   6.573  17.154  0.00  0.00    +0.000 A 
ATOM      7  C   UNL     1       5.715   6.964  17.304  0.00  0.00    +0.000 A 
ATOM      8  N   UNL     1       4.791   5.989  17.509  0.00  0.00    +0.000 N 
ATOM      9  C   UNL     1       3.460   6.095  17.722  0.00  0.00    +0.000 A 
ENDROOT
BRANCH   2  10
ATOM     10  S   UNL     1       4.018   2.134  18.171  0.00  0.00    +0.000 S 
ATOM     11  C   UNL     1       4.525   2.134  19.918  0.00  0.00    +0.000 C 
ENDBRANCH   2  10
BRANCH   9  12
ATOM     12  S   UNL     1       2.577   7.671  17.885  0.00  0.00    +0.000 S 
ATOM     13  C   UNL     1       2.285   7.623  19.680  0.00  0.00    +0.000 C 
ENDBRANCH   9  12
BRANCH   1  14
ATOM     14  C   UNL     1       1.499   4.510  18.298  0.00  0.00    +0.000 C 
BRANCH  14  15
ATOM     15  C   UNL     1       1.280   4.389  19.814  0.00  0.00    +0.000 C 
BRANCH  15  17
ATOM     16  C   UNL     1       1.421   2.643  21.633  0.00  0.00    +0.000 C 
ATOM     17  C   UNL     1       0.902   2.961  20.235  0.00  0.00    +0.000 C 
ENDBRANCH  15  17
ENDBRANCH  14  15
ENDBRANCH   1  14
TORSDOF 5
ENDMDL
MODEL 3
REMARK VINA RESULT:      -5.3      2.130      5.017
REMARK  Name = 
REMARK  8 active torsions:
REMARK  status: ('A' for Active; 'I' for Inactive)
REMARK    1  A    between atoms: C_1  and  C_2
REMARK    2  A    between atoms: C_2  and  C_3
REMARK    3  A    between atoms: C_3  and  C_4
REMARK    4  A    between atoms: C_4  and  C_5
REMARK    5  A    between atoms: C_6  and  S_7
REMARK    6  A    between atoms: S_7  and  C_8
REMARK    7  A    between atoms: C_15  and  S_16
REMARK    8  A    between atoms: S_16  and  C_17
REMARK                            x       y       z     vdW  Elec       q    Type
REMARK                         _______ _______ _______ _____ _____    ______ ____
ROOT
ATOM      1  C   UNL     1       4.334   5.897  17.368  0.00  0.00    +0.000 A 
ATOM      2  C   UNL     1       3.172   5.983  18.151  0.00  0.00    +0.000 A 
ATOM      3  C   UNL     1       2.665   4.701  18.207  0.00  0.00    +0.000 A 
ATOM      4  C   UNL     1       1.549   4.227  18.899  0.00  0.00    +0.000 A 
ATOM      5  N   UNL     1       1.279   2.892  18.844  0.00  0.00    +0.000 NA
ATOM      6  C   UNL     1       2.067   2.029  18.135  0.00  0.00    +0.000 A 
ATOM      7  C   UNL     1       3.187   2.516  17.444  0.00  0.00    +0.000 A 
ATOM      8  N   UNL     1       3.439   3.850  17.510  0.00  0.00    +0.000 N 
ATOM      9  C   UNL     1       4.459   4.561  16.978  0.00  0.00    +0.000 A 
ENDROOT
BRANCH   2  10
ATOM     10  S   UNL     1       2.529   7.399  19.080  0.00  0.00    +0.000 S 
ATOM     11  C   UNL     1       2.022   8.481  17.708  0.00  0.00    +0.000 C 
ENDBRANCH   2  10
BRANCH   9  12
ATOM     12  S   UNL     1       5.855   3.827  16.083  0.00  0.00    +0.000 S 
ATOM     13  C   UNL     1       5.432   4.411  14.413  0.00  0.00    +0.000 C 
ENDBRANCH   9  12
BRANCH   1  14
ATOM     14  C   UNL     1       5.308   7.003  17.048  0.00  0.00    +0.000 C 
BRANCH  14  15
ATOM     15  C   UNL     1       6.597   6.905  17.879  0.00  0.00    +0.000 C 
BRANCH  15  17
ATOM     16  C   UNL     1       8.167   8.875  18.065  0.00  0.00    +0.000 C 
ATOM     17  C   UNL     1       7.766   7.664  17.231  0.00  0.00    +0.000 C 
ENDBRANCH  15  17
ENDBRANCH  14  15
ENDBRANCH   1  14
TORSDOF 5
ENDMDL
MODEL 4
REMARK VINA RESULT:      -5.2      1.021      3.416
REMARK  Name = 
REMARK  8 active torsions:
REMARK  status: ('A' for Active; 'I' for Inactive)
REMARK    1  A    between atoms: C_1  and  C_2
REMARK    2  A    between atoms: C_2  and  C_3
REMARK    3  A    between atoms: C_3  and  C_4
REMARK    4  A    between atoms: C_4  and  C_5
REMARK    5  A    between atoms: C_6  and  S_7
REMARK    6  A    between atoms: S_7  and  C_8
REMARK    7  A    between atoms: C_15  and  S_16
REMARK    8  A    between atoms: S_16  and  C_17
REMARK                            x       y       z     vdW  Elec       q    Type
REMARK                         _______ _______ _______ _____ _____    ______ ____
ROOT
ATOM      1  C   UNL     1       2.392   4.799  18.290  0.00  0.00    +0.000 A 
ATOM      2  C   UNL     1       3.217   3.886  17.615  0.00  0.00    +0.000 A 
ATOM      3  C   UNL     1       4.324   4.608  17.217  0.00  0.00    +0.000 A 
ATOM      4  C   UNL     1       5.469   4.166  16.553  0.00  0.00    +0.000 A 
ATOM      5  N   UNL     1       6.463   5.069  16.317  0.00  0.00    +0.000 NA
ATOM      6  C   UNL     1       6.356   6.373  16.710  0.00  0.00    +0.000 A 
ATOM      7  C   UNL     1       5.200   6.807  17.377  0.00  0.00    +0.000 A 
ATOM      8  N   UNL     1       4.220   5.892  17.604  0.00  0.00    +0.000 N 
ATOM      9  C   UNL     1       3.042   6.035  18.250  0.00  0.00    +0.000 A 
ENDROOT
BRANCH   2  10
ATOM     10  S   UNL     1       3.025   2.093  17.439  0.00  0.00    +0.000 S 
ATOM     11  C   UNL     1       3.956   1.526  18.895  0.00  0.00    +0.000 C 
ENDBRANCH   2  10
BRANCH   9  12
ATOM     12  S   UNL     1       2.521   7.553  19.096  0.00  0.00    +0.000 S 
ATOM     13  C   UNL     1       1.995   8.500  17.635  0.00  0.00    +0.000 C 
ENDBRANCH   9  12
BRANCH   1  14
ATOM     14  C   UNL     1       1.085   4.513  18.985  0.00  0.00    +0.000 C 
BRANCH  14  15
ATOM     15  C   UNL     1       1.248   4.383  20.507  0.00  0.00    +0.000 C 
BRANCH  15  17
ATOM     16  C   UNL     1       2.375   2.575  21.865  0.00  0.00    +0.000 C 
ATOM     17  C   UNL     1       1.185   2.921  20.976  0.00  0.00    +0.000 C 
ENDBRANCH  15  17
ENDBRANCH  14  15
ENDBRANCH   1  14
TORSDOF 5
ENDMDL
MODEL 5
REMARK VINA RESULT:      -5.1      2.175      4.975
REMARK  Name = 
REMARK  8 active torsions:
REMARK  status: ('A' for Active; 'I' for Inactive)
REMARK    1  A    between atoms: C_1  and  C_2
REMARK    2  A    between atoms: C_2  and  C_3
REMARK    3  A    between atoms: C_3  and  C_4
REMARK    4  A    between atoms: C_4  and  C_5
REMARK    5  A    between atoms: C_6  and  S_7
REMARK    6  A    between atoms: S_7  and  C_8
REMARK    7  A    between atoms: C_15  and  S_16
REMARK    8  A    between atoms: S_16  and  C_17
REMARK                            x       y       z     vdW  Elec       q    Type
REMARK                         _______ _______ _______ _____ _____    ______ ____
ROOT
ATOM      1  C   UNL     1       4.469   4.327  17.213  0.00  0.00    +0.000 A 
ATOM      2  C   UNL     1       4.302   5.698  17.463  0.00  0.00    +0.000 A 
ATOM      3  C   UNL     1       3.366   5.781  18.474  0.00  0.00    +0.000 A 
ATOM      4  C   UNL     1       2.878   6.912  19.131  0.00  0.00    +0.000 A 
ATOM      5  N   UNL     1       1.989   6.731  20.147  0.00  0.00    +0.000 NA
ATOM      6  C   UNL     1       1.574   5.485  20.525  0.00  0.00    +0.000 A 
ATOM      7  C   UNL     1       2.071   4.354  19.859  0.00  0.00    +0.000 A 
ATOM      8  N   UNL     1       2.957   4.555  18.847  0.00  0.00    +0.000 N 
ATOM      9  C   UNL     1       3.608   3.652  18.082  0.00  0.00    +0.000 A 
ENDROOT
BRANCH   2  10
ATOM     10  S   UNL     1       5.225   7.100  16.782  0.00  0.00    +0.000 S 
ATOM     11  C   UNL     1       6.867   6.784  17.500  0.00  0.00    +0.000 C 
ENDBRANCH   2  10
BRANCH   9  12
ATOM     12  S   UNL     1       3.509   1.855  18.317  0.00  0.00    +0.000 S 
ATOM     13  C   UNL     1       4.534   1.730  19.814  0.00  0.00    +0.000 C 
ENDBRANCH   9  12
BRANCH   1  14
ATOM     14  C   UNL     1       5.429   3.683  16.245  0.00  0.00    +0.000 C 
BRANCH  14  15
ATOM     15  C   UNL     1       5.200   4.146  14.798  0.00  0.00    +0.000 C 
BRANCH  15  17
ATOM     16  C   UNL     1       6.201   3.509  12.569  0.00  0.00    +0.000 C 
ATOM     17  C   UNL     1       6.482   4.078  13.955  0.00  0.00    +0.000 C 
ENDBRANCH  15  17
ENDBRANCH  14  15
ENDBRANCH   1  14
TORSDOF 5
ENDMDL
MODEL 6
REMARK VINA RESULT:      -5.1      2.093      5.743
REMARK  Name = 
REMARK  8 active torsions:
REMARK  status: ('A' for Active; 'I' for Inactive)
REMARK    1  A    between atoms: C_1  and  C_2
REMARK    2  A    between atoms: C_2  and  C_3
REMARK    3  A    between atoms: C_3  and  C_4
REMARK    4  A    between atoms: C_4  and  C_5
REMARK    5  A    between atoms: C_6  and  S_7
REMARK    6  A    between atoms: S_7  and  C_8
REMARK    7  A    between atoms: C_15  and  S_16
REMARK    8  A    between atoms: S_16  and  C_17
REMARK                            x       y       z     vdW  Elec       q    Type
REMARK                         _______ _______ _______ _____ _____    ______ ____
ROOT
ATOM      1  C   UNL     1       4.474   5.771  17.760  0.00  0.00    +0.000 A 
ATOM      2  C   UNL     1       4.598   4.456  17.284  0.00  0.00    +0.000 A 
ATOM      3  C   UNL     1       3.502   3.777  17.776  0.00  0.00    +0.000 A 
ATOM      4  C   UNL     1       3.118   2.453  17.559  0.00  0.00    +0.000 A 
ATOM      5  N   UNL     1       1.950   2.023  18.115  0.00  0.00    +0.000 NA
ATOM      6  C   UNL     1       1.166   2.852  18.868  0.00  0.00    +0.000 A 
ATOM      7  C   UNL     1       1.561   4.181  19.079  0.00  0.00    +0.000 A 
ATOM      8  N   UNL     1       2.729   4.591  18.517  0.00  0.00    +0.000 N 
ATOM      9  C   UNL     1       3.310   5.812  18.531  0.00  0.00    +0.000 A 
ENDROOT
BRANCH   2  10
ATOM     10  S   UNL     1       5.803   3.779  16.112  0.00  0.00    +0.000 S 
ATOM     11  C   UNL     1       5.477   4.836  14.668  0.00  0.00    +0.000 C 
ENDBRANCH   2  10
BRANCH   9  12
ATOM     12  S   UNL     1       2.560   7.289  19.271  0.00  0.00    +0.000 S 
ATOM     13  C   UNL     1       2.113   8.153  17.735  0.00  0.00    +0.000 C 
ENDBRANCH   9  12
BRANCH   1  14
ATOM     14  C   UNL     1       5.374   6.943  17.460  0.00  0.00    +0.000 C 
BRANCH  14  15
ATOM     15  C   UNL     1       6.815   6.711  17.939  0.00  0.00    +0.000 C 
BRANCH  15  17
ATOM     16  C   UNL     1       8.043   8.918  17.963  0.00  0.00    +0.000 C 
ATOM     17  C   UNL     1       7.824   7.612  17.209  0.00  0.00    +0.000 C 
ENDBRANCH  15  17
ENDBRANCH  14  15
ENDBRANCH   1  14
TORSDOF 5
ENDMDL
MODEL 7
REMARK VINA RESULT:      -5.1      1.148      1.211
REMARK  Name = 
REMARK  8 active torsions:
REMARK  status: ('A' for Active; 'I' for Inactive)
REMARK    1  A    between atoms: C_1  and  C_2
REMARK    2  A    between atoms: C_2  and  C_3
REMARK    3  A    between atoms: C_3  and  C_4
REMARK    4  A    between atoms: C_4  and  C_5
REMARK    5  A    between atoms: C_6  and  S_7
REMARK    6  A    between atoms: S_7  and  C_8
REMARK    7  A    between atoms: C_15  and  S_16
REMARK    8  A    between atoms: S_16  and  C_17
REMARK                            x       y       z     vdW  Elec       q    Type
REMARK                         _______ _______ _______ _____ _____    ______ ____
ROOT
ATOM      1  C   UNL     1       2.967   5.034  18.370  0.00  0.00    +0.000 A 
ATOM      2  C   UNL     1       3.554   6.211  17.880  0.00  0.00    +0.000 A 
ATOM      3  C   UNL     1       4.470   5.803  16.931  0.00  0.00    +0.000 A 
ATOM      4  C   UNL     1       5.287   6.579  16.108  0.00  0.00    +0.000 A 
ATOM      5  N   UNL     1       6.077   5.939  15.200  0.00  0.00    +0.000 NA
ATOM      6  C   UNL     1       6.082   4.577  15.087  0.00  0.00    +0.000 A 
ATOM      7  C   UNL     1       5.256   3.807  15.920  0.00  0.00    +0.000 A 
ATOM      8  N   UNL     1       4.476   4.463  16.819  0.00  0.00    +0.000 N 
ATOM      9  C   UNL     1       3.574   3.971  17.697  0.00  0.00    +0.000 A 
ENDROOT
BRANCH   2  10
ATOM     10  S   UNL     1       3.114   7.934  18.229  0.00  0.00    +0.000 S 
ATOM     11  C   UNL     1       1.414   7.969  17.584  0.00  0.00    +0.000 C 
ENDBRANCH   2  10
BRANCH   9  12
ATOM     12  S   UNL     1       3.108   2.221  17.807  0.00  0.00    +0.000 S 
ATOM     13  C   UNL     1       4.113   1.773  19.255  0.00  0.00    +0.000 C 
ENDBRANCH   9  12
BRANCH   1  14
ATOM     14  C   UNL     1       1.853   4.918  19.379  0.00  0.00    +0.000 C 
BRANCH  14  15
ATOM     15  C   UNL     1       2.362   5.011  20.826  0.00  0.00    +0.000 C 
BRANCH  15  17
ATOM     16  C   UNL     1       1.054   2.855  20.977  0.00  0.00    +0.000 C 
ATOM     17  C   UNL     1       2.161   3.698  21.600  0.00  0.00    +0.000 C 
ENDBRANCH  15  17
ENDBRANCH  14  15
ENDBRANCH   1  14
TORSDOF 5
ENDMDL
MODEL 8
REMARK VINA RESULT:      -5.0      2.118      5.631
REMARK  Name = 
REMARK  8 active torsions:
REMARK  status: ('A' for Active; 'I' for Inactive)
REMARK    1  A    between atoms: C_1  and  C_2
REMARK    2  A    between atoms: C_2  and  C_3
REMARK    3  A    between atoms: C_3  and  C_4
REMARK    4  A    between atoms: C_4  and  C_5
REMARK    5  A    between atoms: C_6  and  S_7
REMARK    6  A    between atoms: S_7  and  C_8
REMARK    7  A    between atoms: C_15  and  S_16
REMARK    8  A    between atoms: S_16  and  C_17
REMARK                            x       y       z     vdW  Elec       q    Type
REMARK                         _______ _______ _______ _____ _____    ______ ____
ROOT
ATOM      1  C   UNL     1       5.048   4.636  18.188  0.00  0.00    +0.000 A 
ATOM      2  C   UNL     1       4.308   4.014  19.205  0.00  0.00    +0.000 A 
ATOM      3  C   UNL     1       3.411   4.965  19.647  0.00  0.00    +0.000 A 
ATOM      4  C   UNL     1       2.410   4.848  20.613  0.00  0.00    +0.000 A 
ATOM      5  N   UNL     1       1.605   5.924  20.837  0.00  0.00    +0.000 NA
ATOM      6  C   UNL     1       1.760   7.093  20.147  0.00  0.00    +0.000 A 
ATOM      7  C   UNL     1       2.769   7.200  19.177  0.00  0.00    +0.000 A 
ATOM      8  N   UNL     1       3.563   6.116  18.968  0.00  0.00    +0.000 N 
ATOM      9  C   UNL     1       4.566   5.942  18.079  0.00  0.00    +0.000 A 
ENDROOT
BRANCH   2  10
ATOM     10  S   UNL     1       4.337   2.282  19.738  0.00  0.00    +0.000 S 
ATOM     11  C   UNL     1       3.440   1.506  18.359  0.00  0.00    +0.000 C 
ENDBRANCH   2  10
BRANCH   9  12
ATOM     12  S   UNL     1       5.039   7.164  16.824  0.00  0.00    +0.000 S 
ATOM     13  C   UNL     1       6.769   7.402  17.331  0.00  0.00    +0.000 C 
ENDBRANCH   9  12
BRANCH   1  14
ATOM     14  C   UNL     1       6.118   4.017  17.324  0.00  0.00    +0.000 C 
BRANCH  14  15
ATOM     15  C   UNL     1       5.613   3.695  15.909  0.00  0.00    +0.000 C 
BRANCH  15  17
ATOM     16  C   UNL     1       6.104   3.799  13.433  0.00  0.00    +0.000 C 
ATOM     17  C   UNL     1       6.532   4.269  14.818  0.00  0.00    +0.000 C 
ENDBRANCH  15  17
ENDBRANCH  14  15
ENDBRANCH   1  14
TORSDOF 5
ENDMDL
MODEL 9
REMARK VINA RESULT:      -5.0      2.215      3.091
REMARK  Name = 
REMARK  8 active torsions:
REMARK  status: ('A' for Active; 'I' for Inactive)
REMARK    1  A    between atoms: C_1  and  C_2
REMARK    2  A    between atoms: C_2  and  C_3
REMARK    3  A    between atoms: C_3  and  C_4
REMARK    4  A    between atoms: C_4  and  C_5
REMARK    5  A    between atoms: C_6  and  S_7
REMARK    6  A    between atoms: S_7  and  C_8
REMARK    7  A    between atoms: C_15  and  S_16
REMARK    8  A    between atoms: S_16  and  C_17
REMARK                            x       y       z     vdW  Elec       q    Type
REMARK                         _______ _______ _______ _____ _____    ______ ____
ROOT
ATOM      1  C   UNL     1       5.237   4.524  18.375  0.00  0.00    +0.000 A 
ATOM      2  C   UNL     1       6.481   5.035  17.975  0.00  0.00    +0.000 A 
ATOM      3  C   UNL     1       6.552   4.820  16.614  0.00  0.00    +0.000 A 
ATOM      4  C   UNL     1       7.559   5.185  15.717  0.00  0.00    +0.000 A 
ATOM      5  N   UNL     1       7.373   4.908  14.396  0.00  0.00    +0.000 NA
ATOM      6  C   UNL     1       6.240   4.290  13.944  0.00  0.00    +0.000 A 
ATOM      7  C   UNL     1       5.235   3.928  14.854  0.00  0.00    +0.000 A 
ATOM      8  N   UNL     1       5.439   4.212  16.168  0.00  0.00    +0.000 N 
ATOM      9  C   UNL     1       4.626   4.010  17.228  0.00  0.00    +0.000 A 
ENDROOT
BRANCH   2  10
ATOM     10  S   UNL     1       7.694   5.966  18.947  0.00  0.00    +0.000 S 
ATOM     11  C   UNL     1       7.740   7.520  18.001  0.00  0.00    +0.000 C 
ENDBRANCH   2  10
BRANCH   9  12
ATOM     12  S   UNL     1       2.935   3.361  17.108  0.00  0.00    +0.000 S 
ATOM     13  C   UNL     1       3.177   1.825  18.050  0.00  0.00    +0.000 C 
ENDBRANCH   9  12
BRANCH   1  14
ATOM     14  C   UNL     1       4.629   4.565  19.754  0.00  0.00    +0.000 C 
BRANCH  14  15
ATOM     15  C   UNL     1       3.288   5.313  19.780  0.00  0.00    +0.000 C 
BRANCH  15  17
ATOM     16  C   UNL     1       1.071   4.218  20.297  0.00  0.00    +0.000 C 
ATOM     17  C   UNL     1       2.353   4.796  20.885  0.00  0.00    +0.000 C 
ENDBRANCH  15  17
ENDBRANCH  14  15
ENDBRANCH   1  14
TORSDOF 5
ENDMDL
