MODEL 1
REMARK VINA RESULT:      -7.8      0.000      0.000
REMARK  Name = 
REMARK  7 active torsions:
REMARK  status: ('A' for Active; 'I' for Inactive)
REMARK    1  A    between atoms: C_1  and  O_2
REMARK    2  A    between atoms: O_2  and  C_3
REMARK    3  A    between atoms: C_6  and  S_7
REMARK    4  A    between atoms: S_7  and  N_10
REMARK    5  A    between atoms: C_17  and  N_18
REMARK    6  A    between atoms: N_18  and  C_19
REMARK    7  A    between atoms: C_22  and  N_23
REMARK                            x       y       z     vdW  Elec       q    Type
REMARK                         _______ _______ _______ _____ _____    ______ ____
ROOT
ATOM      1  N   UNL     1       4.594   5.356  17.006  0.00  0.00    +0.000 N 
ATOM      2  C   UNL     1       5.199   4.060  17.436  0.00  0.00    +0.000 C 
ATOM      3  C   UNL     1       5.884   4.507  18.732  0.00  0.00    +0.000 C 
ATOM      4  C   UNL     1       4.599   5.049  19.304  0.00  0.00    +0.000 A 
ATOM      5  C   UNL     1       3.791   4.066  19.956  0.00  0.00    +0.000 A 
ATOM      6  C   UNL     1       2.453   3.925  19.580  0.00  0.00    +0.000 A 
ATOM      7  C   UNL     1       1.866   4.918  18.801  0.00  0.00    +0.000 A 
ATOM      8  C   UNL     1       2.642   6.106  18.657  0.00  0.00    +0.000 A 
ATOM      9  C   UNL     1       4.044   5.962  18.369  0.00  0.00    +0.000 A 
ENDROOT
BRANCH   1  10
ATOM     10  S   UNL     1       5.737   6.065  15.821  0.00  0.00    +0.000 S 
ATOM     11  O   UNL     1       6.995   6.346  16.503  0.00  0.00    +0.000 OA
ATOM     12  O   UNL     1       5.008   7.147  15.170  0.00  0.00    +0.000 OA
BRANCH  10  16
ATOM     13  C   UNL     1       6.783   3.324  12.052  0.00  0.00    +0.000 A 
ATOM     14  C   UNL     1       5.569   3.201  12.717  0.00  0.00    +0.000 A 
ATOM     15  C   UNL     1       5.235   4.034  13.802  0.00  0.00    +0.000 A 
ATOM     16  C   UNL     1       6.162   4.926  14.370  0.00  0.00    +0.000 A 
ATOM     17  C   UNL     1       7.350   5.116  13.640  0.00  0.00    +0.000 A 
ATOM     18  C   UNL     1       7.653   4.321  12.488  0.00  0.00    +0.000 A 
BRANCH  13  20
ATOM     19  C   UNL     1       6.381   1.133  11.135  0.00  0.00    +0.000 C 
ATOM     20  O   UNL     1       6.941   2.433  11.030  0.00  0.00    +0.000 OA
ENDBRANCH  13  20
ENDBRANCH  10  16
ENDBRANCH   1  10
BRANCH   8  21
ATOM     21  N   UNL     1       2.233   6.910  19.899  0.00  0.00    +0.000 N 
ATOM     22  H   UNL     1       1.976   6.264  20.647  0.00  0.00    +0.000 HD
BRANCH  21  23
ATOM     23  C   UNL     1       1.602   8.144  20.117  0.00  0.00    +0.000 A 
ATOM     24  C   UNL     1       1.227   8.557  21.382  0.00  0.00    +0.000 A 
ATOM     25  C   UNL     1       0.750   9.854  21.588  0.00  0.00    +0.000 A 
ATOM     26  C   UNL     1       0.628  10.740  20.512  0.00  0.00    +0.000 A 
ATOM     27  C   UNL     1       0.946  10.332  19.211  0.00  0.00    +0.000 A 
ATOM     28  C   UNL     1       1.439   9.032  19.026  0.00  0.00    +0.000 A 
BRANCH  26  29
ATOM     29  N   UNL     1       0.186  12.123  20.760  0.00  0.00    +0.000 N 
ATOM     30  O   UNL     1      -0.542  12.646  19.908  0.00  0.00    +0.000 OA
ATOM     31  O   UNL     1       0.550  12.671  21.811  0.00  0.00    +0.000 OA
ENDBRANCH  26  29
ENDBRANCH  21  23
ENDBRANCH   8  21
TORSDOF 6
ENDMDL
MODEL 2
REMARK VINA RESULT:      -7.7      2.757      4.398
REMARK  Name = 
REMARK  7 active torsions:
REMARK  status: ('A' for Active; 'I' for Inactive)
REMARK    1  A    between atoms: C_1  and  O_2
REMARK    2  A    between atoms: O_2  and  C_3
REMARK    3  A    between atoms: C_6  and  S_7
REMARK    4  A    between atoms: S_7  and  N_10
REMARK    5  A    between atoms: C_17  and  N_18
REMARK    6  A    between atoms: N_18  and  C_19
REMARK    7  A    between atoms: C_22  and  N_23
REMARK                            x       y       z     vdW  Elec       q    Type
REMARK                         _______ _______ _______ _____ _____    ______ ____
ROOT
ATOM      1  N   UNL     1       4.540   5.071  17.293  0.00  0.00    +0.000 N 
ATOM      2  C   UNL     1       4.628   3.611  17.599  0.00  0.00    +0.000 C 
ATOM      3  C   UNL     1       5.141   3.676  19.042  0.00  0.00    +0.000 C 
ATOM      4  C   UNL     1       3.990   4.544  19.483  0.00  0.00    +0.000 A 
ATOM      5  C   UNL     1       2.811   3.815  19.831  0.00  0.00    +0.000 A 
ATOM      6  C   UNL     1       1.596   4.157  19.231  0.00  0.00    +0.000 A 
ATOM      7  C   UNL     1       1.505   5.361  18.539  0.00  0.00    +0.000 A 
ATOM      8  C   UNL     1       2.614   6.241  18.714  0.00  0.00    +0.000 A 
ATOM      9  C   UNL     1       3.935   5.679  18.631  0.00  0.00    +0.000 A 
ENDROOT
BRANCH   1  10
ATOM     10  S   UNL     1       6.058   5.487  16.434  0.00  0.00    +0.000 S 
ATOM     11  O   UNL     1       5.714   6.042  15.131  0.00  0.00    +0.000 OA
ATOM     12  O   UNL     1       6.895   4.296  16.517  0.00  0.00    +0.000 OA
BRANCH  10  16
ATOM     13  C   UNL     1       8.614   8.780  18.765  0.00  0.00    +0.000 A 
ATOM     14  C   UNL     1       7.819   9.123  17.679  0.00  0.00    +0.000 A 
ATOM     15  C   UNL     1       7.029   8.166  17.013  0.00  0.00    +0.000 A 
ATOM     16  C   UNL     1       7.115   6.793  17.306  0.00  0.00    +0.000 A 
ATOM     17  C   UNL     1       7.844   6.463  18.463  0.00  0.00    +0.000 A 
ATOM     18  C   UNL     1       8.584   7.453  19.187  0.00  0.00    +0.000 A 
BRANCH  13  20
ATOM     19  C   UNL     1       9.704  10.904  18.440  0.00  0.00    +0.000 C 
ATOM     20  O   UNL     1       9.315   9.830  19.284  0.00  0.00    +0.000 OA
ENDBRANCH  13  20
ENDBRANCH  10  16
ENDBRANCH   1  10
BRANCH   8  21
ATOM     21  N   UNL     1       2.224   7.002  19.989  0.00  0.00    +0.000 N 
ATOM     22  H   UNL     1       2.052   6.332  20.740  0.00  0.00    +0.000 HD
BRANCH  21  23
ATOM     23  C   UNL     1       1.528   8.189  20.260  0.00  0.00    +0.000 A 
ATOM     24  C   UNL     1       1.129   8.523  21.541  0.00  0.00    +0.000 A 
ATOM     25  C   UNL     1       0.582   9.782  21.804  0.00  0.00    +0.000 A 
ATOM     26  C   UNL     1       0.416  10.708  20.769  0.00  0.00    +0.000 A 
ATOM     27  C   UNL     1       0.758  10.378  19.452  0.00  0.00    +0.000 A 
ATOM     28  C   UNL     1       1.320   9.117  19.211  0.00  0.00    +0.000 A 
BRANCH  26  29
ATOM     29  N   UNL     1      -0.100  12.053  21.079  0.00  0.00    +0.000 N 
ATOM     30  O   UNL     1      -0.604  12.693  20.149  0.00  0.00    +0.000 OA
ATOM     31  O   UNL     1      -0.018  12.454  22.249  0.00  0.00    +0.000 OA
ENDBRANCH  26  29
ENDBRANCH  21  23
ENDBRANCH   8  21
TORSDOF 6
ENDMDL
MODEL 3
REMARK VINA RESULT:      -7.7      2.457      9.199
REMARK  Name = 
REMARK  7 active torsions:
REMARK  status: ('A' for Active; 'I' for Inactive)
REMARK    1  A    between atoms: C_1  and  O_2
REMARK    2  A    between atoms: O_2  and  C_3
REMARK    3  A    between atoms: C_6  and  S_7
REMARK    4  A    between atoms: S_7  and  N_10
REMARK    5  A    between atoms: C_17  and  N_18
REMARK    6  A    between atoms: N_18  and  C_19
REMARK    7  A    between atoms: C_22  and  N_23
REMARK                            x       y       z     vdW  Elec       q    Type
REMARK                         _______ _______ _______ _____ _____    ______ ____
ROOT
ATOM      1  N   UNL     1       4.398   5.989  18.780  0.00  0.00    +0.000 N 
ATOM      2  C   UNL     1       4.841   5.050  19.854  0.00  0.00    +0.000 C 
ATOM      3  C   UNL     1       4.997   3.765  19.033  0.00  0.00    +0.000 C 
ATOM      4  C   UNL     1       5.948   4.420  18.063  0.00  0.00    +0.000 A 
ATOM      5  C   UNL     1       7.310   4.423  18.497  0.00  0.00    +0.000 A 
ATOM      6  C   UNL     1       8.013   5.630  18.528  0.00  0.00    +0.000 A 
ATOM      7  C   UNL     1       7.476   6.737  17.875  0.00  0.00    +0.000 A 
ATOM      8  C   UNL     1       6.358   6.455  17.036  0.00  0.00    +0.000 A 
ATOM      9  C   UNL     1       5.330   5.593  17.555  0.00  0.00    +0.000 A 
ENDROOT
BRANCH   1  10
ATOM     10  S   UNL     1       2.609   6.045  18.882  0.00  0.00    +0.000 S 
ATOM     11  O   UNL     1       2.193   5.350  20.095  0.00  0.00    +0.000 OA
ATOM     12  O   UNL     1       2.127   5.590  17.584  0.00  0.00    +0.000 OA
BRANCH  10  16
ATOM     13  C   UNL     1       0.953  10.515  19.176  0.00  0.00    +0.000 A 
ATOM     14  C   UNL     1       0.933   9.667  20.276  0.00  0.00    +0.000 A 
ATOM     15  C   UNL     1       1.458   8.362  20.210  0.00  0.00    +0.000 A 
ATOM     16  C   UNL     1       1.889   7.792  18.998  0.00  0.00    +0.000 A 
ATOM     17  C   UNL     1       1.996   8.680  17.913  0.00  0.00    +0.000 A 
ATOM     18  C   UNL     1       1.534  10.032  18.006  0.00  0.00    +0.000 A 
BRANCH  13  20
ATOM     19  C   UNL     1      -0.158  12.022  20.693  0.00  0.00    +0.000 C 
ATOM     20  O   UNL     1       0.398  11.739  19.417  0.00  0.00    +0.000 OA
ENDBRANCH  13  20
ENDBRANCH  10  16
ENDBRANCH   1  10
BRANCH   8  21
ATOM     21  N   UNL     1       7.036   6.068  15.714  0.00  0.00    +0.000 N 
ATOM     22  H   UNL     1       7.620   6.843  15.397  0.00  0.00    +0.000 HD
BRANCH  21  23
ATOM     23  C   UNL     1       6.678   5.278  14.613  0.00  0.00    +0.000 A 
ATOM     24  C   UNL     1       7.548   5.058  13.560  0.00  0.00    +0.000 A 
ATOM     25  C   UNL     1       7.226   4.139  12.558  0.00  0.00    +0.000 A 
ATOM     26  C   UNL     1       6.011   3.448  12.600  0.00  0.00    +0.000 A 
ATOM     27  C   UNL     1       5.085   3.691  13.622  0.00  0.00    +0.000 A 
ATOM     28  C   UNL     1       5.432   4.604  14.627  0.00  0.00    +0.000 A 
BRANCH  26  29
ATOM     29  N   UNL     1       5.718   2.436  11.570  0.00  0.00    +0.000 N 
ATOM     30  O   UNL     1       4.568   2.403  11.119  0.00  0.00    +0.000 OA
ATOM     31  O   UNL     1       6.642   1.694  11.204  0.00  0.00    +0.000 OA
ENDBRANCH  26  29
ENDBRANCH  21  23
ENDBRANCH   8  21
TORSDOF 6
ENDMDL
MODEL 4
REMARK VINA RESULT:      -7.7      4.411      7.750
REMARK  Name = 
REMARK  7 active torsions:
REMARK  status: ('A' for Active; 'I' for Inactive)
REMARK    1  A    between atoms: C_1  and  O_2
REMARK    2  A    between atoms: O_2  and  C_3
REMARK    3  A    between atoms: C_6  and  S_7
REMARK    4  A    between atoms: S_7  and  N_10
REMARK    5  A    between atoms: C_17  and  N_18
REMARK    6  A    between atoms: N_18  and  C_19
REMARK    7  A    between atoms: C_22  and  N_23
REMARK                            x       y       z     vdW  Elec       q    Type
REMARK                         _______ _______ _______ _____ _____    ______ ____
ROOT
ATOM      1  N   UNL     1       4.489   5.145  18.685  0.00  0.00    +0.000 N 
ATOM      2  C   UNL     1       4.445   3.934  17.811  0.00  0.00    +0.000 C 
ATOM      3  C   UNL     1       4.413   4.606  16.433  0.00  0.00    +0.000 C 
ATOM      4  C   UNL     1       5.676   5.382  16.707  0.00  0.00    +0.000 A 
ATOM      5  C   UNL     1       6.876   4.656  16.433  0.00  0.00    +0.000 A 
ATOM      6  C   UNL     1       7.854   4.555  17.426  0.00  0.00    +0.000 A 
ATOM      7  C   UNL     1       7.770   5.389  18.537  0.00  0.00    +0.000 A 
ATOM      8  C   UNL     1       6.806   6.435  18.433  0.00  0.00    +0.000 A 
ATOM      9  C   UNL     1       5.504   6.099  17.921  0.00  0.00    +0.000 A 
ENDROOT
BRANCH   1  10
ATOM     10  S   UNL     1       2.796   5.450  19.189  0.00  0.00    +0.000 S 
ATOM     11  O   UNL     1       2.647   5.038  20.580  0.00  0.00    +0.000 OA
ATOM     12  O   UNL     1       1.963   4.840  18.159  0.00  0.00    +0.000 OA
BRANCH  10  16
ATOM     13  C   UNL     1       1.316   9.987  18.995  0.00  0.00    +0.000 A 
ATOM     14  C   UNL     1       1.863   9.360  17.883  0.00  0.00    +0.000 A 
ATOM     15  C   UNL     1       2.262   8.010  17.919  0.00  0.00    +0.000 A 
ATOM     16  C   UNL     1       2.275   7.268  19.114  0.00  0.00    +0.000 A 
ATOM     17  C   UNL     1       1.634   7.872  20.211  0.00  0.00    +0.000 A 
ATOM     18  C   UNL     1       1.156   9.220  20.147  0.00  0.00    +0.000 A 
BRANCH  13  20
ATOM     19  C   UNL     1       2.018  12.246  18.542  0.00  0.00    +0.000 C 
ATOM     20  O   UNL     1       0.991  11.296  18.783  0.00  0.00    +0.000 OA
ENDBRANCH  13  20
ENDBRANCH  10  16
ENDBRANCH   1  10
BRANCH   8  21
ATOM     21  N   UNL     1       7.604   7.540  17.727  0.00  0.00    +0.000 N 
ATOM     22  H   UNL     1       8.263   7.113  17.074  0.00  0.00    +0.000 HD
BRANCH  21  23
ATOM     23  C   UNL     1       8.072   8.811  18.091  0.00  0.00    +0.000 A 
ATOM     24  C   UNL     1       8.983   8.985  19.118  0.00  0.00    +0.000 A 
ATOM     25  C   UNL     1       9.551  10.240  19.352  0.00  0.00    +0.000 A 
ATOM     26  C   UNL     1       9.190  11.336  18.562  0.00  0.00    +0.000 A 
ATOM     27  C   UNL     1       8.228  11.203  17.552  0.00  0.00    +0.000 A 
ATOM     28  C   UNL     1       7.681   9.933  17.322  0.00  0.00    +0.000 A 
BRANCH  26  29
ATOM     29  N   UNL     1       9.849  12.634  18.781  0.00  0.00    +0.000 N 
ATOM     30  O   UNL     1      10.350  12.834  19.894  0.00  0.00    +0.000 OA
ATOM     31  O   UNL     1       9.881  13.438  17.837  0.00  0.00    +0.000 OA
ENDBRANCH  26  29
ENDBRANCH  21  23
ENDBRANCH   8  21
TORSDOF 6
ENDMDL
MODEL 5
REMARK VINA RESULT:      -7.7      2.312      9.610
REMARK  Name = 
REMARK  7 active torsions:
REMARK  status: ('A' for Active; 'I' for Inactive)
REMARK    1  A    between atoms: C_1  and  O_2
REMARK    2  A    between atoms: O_2  and  C_3
REMARK    3  A    between atoms: C_6  and  S_7
REMARK    4  A    between atoms: S_7  and  N_10
REMARK    5  A    between atoms: C_17  and  N_18
REMARK    6  A    between atoms: N_18  and  C_19
REMARK    7  A    between atoms: C_22  and  N_23
REMARK                            x       y       z     vdW  Elec       q    Type
REMARK                         _______ _______ _______ _____ _____    ______ ____
ROOT
ATOM      1  N   UNL     1       4.224   6.842  18.300  0.00  0.00    +0.000 N 
ATOM      2  C   UNL     1       4.262   5.935  19.487  0.00  0.00    +0.000 C 
ATOM      3  C   UNL     1       4.183   4.577  18.782  0.00  0.00    +0.000 C 
ATOM      4  C   UNL     1       5.391   4.872  17.930  0.00  0.00    +0.000 A 
ATOM      5  C   UNL     1       6.638   4.580  18.565  0.00  0.00    +0.000 A 
ATOM      6  C   UNL     1       7.621   5.571  18.626  0.00  0.00    +0.000 A 
ATOM      7  C   UNL     1       7.482   6.705  17.830  0.00  0.00    +0.000 A 
ATOM      8  C   UNL     1       6.449   6.627  16.849  0.00  0.00    +0.000 A 
ATOM      9  C   UNL     1       5.172   6.105  17.259  0.00  0.00    +0.000 A 
ENDROOT
BRANCH   1  10
ATOM     10  S   UNL     1       2.515   7.352  18.124  0.00  0.00    +0.000 S 
ATOM     11  O   UNL     1       1.680   6.158  18.066  0.00  0.00    +0.000 OA
ATOM     12  O   UNL     1       2.500   8.302  17.019  0.00  0.00    +0.000 OA
BRANCH  10  16
ATOM     13  C   UNL     1       0.710   9.882  21.751  0.00  0.00    +0.000 A 
ATOM     14  C   UNL     1       0.817  10.426  20.478  0.00  0.00    +0.000 A 
ATOM     15  C   UNL     1       1.308   9.673  19.394  0.00  0.00    +0.000 A 
ATOM     16  C   UNL     1       1.858   8.390  19.565  0.00  0.00    +0.000 A 
ATOM     17  C   UNL     1       1.662   7.808  20.830  0.00  0.00    +0.000 A 
ATOM     18  C   UNL     1       1.088   8.551  21.912  0.00  0.00    +0.000 A 
BRANCH  13  20
ATOM     19  C   UNL     1      -1.176  10.801  22.935  0.00  0.00    +0.000 C 
ATOM     20  O   UNL     1       0.220  10.754  22.681  0.00  0.00    +0.000 OA
ENDBRANCH  13  20
ENDBRANCH  10  16
ENDBRANCH   1  10
BRANCH   8  21
ATOM     21  N   UNL     1       7.169   5.952  15.674  0.00  0.00    +0.000 N 
ATOM     22  H   UNL     1       7.985   6.510  15.416  0.00  0.00    +0.000 HD
BRANCH  21  23
ATOM     23  C   UNL     1       6.763   5.189  14.570  0.00  0.00    +0.000 A 
ATOM     24  C   UNL     1       7.569   5.030  13.457  0.00  0.00    +0.000 A 
ATOM     25  C   UNL     1       7.207   4.136  12.446  0.00  0.00    +0.000 A 
ATOM     26  C   UNL     1       6.016   3.409  12.541  0.00  0.00    +0.000 A 
ATOM     27  C   UNL     1       5.152   3.591  13.627  0.00  0.00    +0.000 A 
ATOM     28  C   UNL     1       5.539   4.479  14.640  0.00  0.00    +0.000 A 
BRANCH  26  29
ATOM     29  N   UNL     1       5.686   2.424  11.497  0.00  0.00    +0.000 N 
ATOM     30  O   UNL     1       4.546   2.465  11.020  0.00  0.00    +0.000 OA
ATOM     31  O   UNL     1       6.570   1.628  11.146  0.00  0.00    +0.000 OA
ENDBRANCH  26  29
ENDBRANCH  21  23
ENDBRANCH   8  21
TORSDOF 6
ENDMDL
MODEL 6
REMARK VINA RESULT:      -7.6      2.292      9.549
REMARK  Name = 
REMARK  7 active torsions:
REMARK  status: ('A' for Active; 'I' for Inactive)
REMARK    1  A    between atoms: C_1  and  O_2
REMARK    2  A    between atoms: O_2  and  C_3
REMARK    3  A    between atoms: C_6  and  S_7
REMARK    4  A    between atoms: S_7  and  N_10
REMARK    5  A    between atoms: C_17  and  N_18
REMARK    6  A    between atoms: N_18  and  C_19
REMARK    7  A    between atoms: C_22  and  N_23
REMARK                            x       y       z     vdW  Elec       q    Type
REMARK                         _______ _______ _______ _____ _____    ______ ____
ROOT
ATOM      1  N   UNL     1       4.267   6.840  18.274  0.00  0.00    +0.000 N 
ATOM      2  C   UNL     1       4.306   5.980  19.495  0.00  0.00    +0.000 C 
ATOM      3  C   UNL     1       4.272   4.595  18.841  0.00  0.00    +0.000 C 
ATOM      4  C   UNL     1       5.486   4.888  17.998  0.00  0.00    +0.000 A 
ATOM      5  C   UNL     1       6.729   4.650  18.664  0.00  0.00    +0.000 A 
ATOM      6  C   UNL     1       7.687   5.666  18.703  0.00  0.00    +0.000 A 
ATOM      7  C   UNL     1       7.534   6.765  17.862  0.00  0.00    +0.000 A 
ATOM      8  C   UNL     1       6.520   6.626  16.869  0.00  0.00    +0.000 A 
ATOM      9  C   UNL     1       5.250   6.088  17.277  0.00  0.00    +0.000 A 
ENDROOT
BRANCH   1  10
ATOM     10  S   UNL     1       2.549   7.302  18.052  0.00  0.00    +0.000 S 
ATOM     11  O   UNL     1       1.741   6.089  18.048  0.00  0.00    +0.000 OA
ATOM     12  O   UNL     1       2.528   8.191  16.896  0.00  0.00    +0.000 OA
BRANCH  10  16
ATOM     13  C   UNL     1       0.644   9.984  21.514  0.00  0.00    +0.000 A 
ATOM     14  C   UNL     1       0.769  10.466  20.218  0.00  0.00    +0.000 A 
ATOM     15  C   UNL     1       1.289   9.667  19.181  0.00  0.00    +0.000 A 
ATOM     16  C   UNL     1       1.852   8.401  19.426  0.00  0.00    +0.000 A 
ATOM     17  C   UNL     1       1.640   7.881  20.716  0.00  0.00    +0.000 A 
ATOM     18  C   UNL     1       1.036   8.668  21.749  0.00  0.00    +0.000 A 
BRANCH  13  20
ATOM     19  C   UNL     1      -1.037  10.569  23.137  0.00  0.00    +0.000 C 
ATOM     20  O   UNL     1       0.126  10.894  22.390  0.00  0.00    +0.000 OA
ENDBRANCH  13  20
ENDBRANCH  10  16
ENDBRANCH   1  10
BRANCH   8  21
ATOM     21  N   UNL     1       7.277   5.925  15.731  0.00  0.00    +0.000 N 
ATOM     22  H   UNL     1       7.990   6.556  15.364  0.00  0.00    +0.000 HD
BRANCH  21  23
ATOM     23  C   UNL     1       6.935   4.989  14.745  0.00  0.00    +0.000 A 
ATOM     24  C   UNL     1       5.988   4.006  14.969  0.00  0.00    +0.000 A 
ATOM     25  C   UNL     1       5.553   3.192  13.920  0.00  0.00    +0.000 A 
ATOM     26  C   UNL     1       6.086   3.352  12.637  0.00  0.00    +0.000 A 
ATOM     27  C   UNL     1       7.086   4.301  12.391  0.00  0.00    +0.000 A 
ATOM     28  C   UNL     1       7.498   5.118  13.452  0.00  0.00    +0.000 A 
BRANCH  26  29
ATOM     29  N   UNL     1       5.566   2.530  11.531  0.00  0.00    +0.000 N 
ATOM     30  O   UNL     1       6.295   1.625  11.107  0.00  0.00    +0.000 OA
ATOM     31  O   UNL     1       4.429   2.778  11.104  0.00  0.00    +0.000 OA
ENDBRANCH  26  29
ENDBRANCH  21  23
ENDBRANCH   8  21
TORSDOF 6
ENDMDL
MODEL 7
REMARK VINA RESULT:      -7.6      4.606      8.255
REMARK  Name = 
REMARK  7 active torsions:
REMARK  status: ('A' for Active; 'I' for Inactive)
REMARK    1  A    between atoms: C_1  and  O_2
REMARK    2  A    between atoms: O_2  and  C_3
REMARK    3  A    between atoms: C_6  and  S_7
REMARK    4  A    between atoms: S_7  and  N_10
REMARK    5  A    between atoms: C_17  and  N_18
REMARK    6  A    between atoms: N_18  and  C_19
REMARK    7  A    between atoms: C_22  and  N_23
REMARK                            x       y       z     vdW  Elec       q    Type
REMARK                         _______ _______ _______ _____ _____    ______ ____
ROOT
ATOM      1  N   UNL     1       0.331  10.613  20.731  0.00  0.00    +0.000 N 
ATOM      2  C   UNL     1       0.343  10.450  19.246  0.00  0.00    +0.000 C 
ATOM      3  C   UNL     1      -1.155  10.246  18.993  0.00  0.00    +0.000 C 
ATOM      4  C   UNL     1      -1.516  11.539  19.679  0.00  0.00    +0.000 A 
ATOM      5  C   UNL     1      -1.430  12.690  18.836  0.00  0.00    +0.000 A 
ATOM      6  C   UNL     1      -0.671  13.786  19.253  0.00  0.00    +0.000 A 
ATOM      7  C   UNL     1      -0.258  13.850  20.581  0.00  0.00    +0.000 A 
ATOM      8  C   UNL     1      -0.858  12.887  21.445  0.00  0.00    +0.000 A 
ATOM      9  C   UNL     1      -0.944  11.529  20.979  0.00  0.00    +0.000 A 
ENDROOT
BRANCH   1  10
ATOM     10  S   UNL     1       0.727   9.000  21.406  0.00  0.00    +0.000 S 
ATOM     11  O   UNL     1      -0.520   8.304  21.700  0.00  0.00    +0.000 OA
ATOM     12  O   UNL     1       1.689   9.246  22.474  0.00  0.00    +0.000 OA
BRANCH  10  16
ATOM     13  C   UNL     1       3.037   6.161  18.338  0.00  0.00    +0.000 A 
ATOM     14  C   UNL     1       2.568   5.677  19.552  0.00  0.00    +0.000 A 
ATOM     15  C   UNL     1       1.848   6.496  20.444  0.00  0.00    +0.000 A 
ATOM     16  C   UNL     1       1.697   7.878  20.230  0.00  0.00    +0.000 A 
ATOM     17  C   UNL     1       2.088   8.343  18.962  0.00  0.00    +0.000 A 
ATOM     18  C   UNL     1       2.749   7.487  18.023  0.00  0.00    +0.000 A 
BRANCH  13  20
ATOM     19  C   UNL     1       4.304   4.114  18.251  0.00  0.00    +0.000 C 
ATOM     20  O   UNL     1       3.716   5.232  17.603  0.00  0.00    +0.000 OA
ENDBRANCH  13  20
ENDBRANCH  10  16
ENDBRANCH   1  10
BRANCH   8  21
ATOM     21  N   UNL     1      -2.154  13.595  21.866  0.00  0.00    +0.000 N 
ATOM     22  H   UNL     1      -1.924  14.510  22.257  0.00  0.00    +0.000 HD
BRANCH  21  23
ATOM     23  C   UNL     1      -3.393  13.175  22.370  0.00  0.00    +0.000 A 
ATOM     24  C   UNL     1      -3.571  12.877  23.709  0.00  0.00    +0.000 A 
ATOM     25  C   UNL     1      -4.850  12.618  24.210  0.00  0.00    +0.000 A 
ATOM     26  C   UNL     1      -5.958  12.639  23.357  0.00  0.00    +0.000 A 
ATOM     27  C   UNL     1      -5.802  12.882  21.987  0.00  0.00    +0.000 A 
ATOM     28  C   UNL     1      -4.514  13.155  21.506  0.00  0.00    +0.000 A 
BRANCH  26  29
ATOM     29  N   UNL     1      -7.305  12.429  23.917  0.00  0.00    +0.000 N 
ATOM     30  O   UNL     1      -7.820  11.317  23.749  0.00  0.00    +0.000 OA
ATOM     31  O   UNL     1      -7.832  13.365  24.535  0.00  0.00    +0.000 OA
ENDBRANCH  26  29
ENDBRANCH  21  23
ENDBRANCH   8  21
TORSDOF 6
ENDMDL
MODEL 8
REMARK VINA RESULT:      -7.5      0.606      1.071
REMARK  Name = 
REMARK  7 active torsions:
REMARK  status: ('A' for Active; 'I' for Inactive)
REMARK    1  A    between atoms: C_1  and  O_2
REMARK    2  A    between atoms: O_2  and  C_3
REMARK    3  A    between atoms: C_6  and  S_7
REMARK    4  A    between atoms: S_7  and  N_10
REMARK    5  A    between atoms: C_17  and  N_18
REMARK    6  A    between atoms: N_18  and  C_19
REMARK    7  A    between atoms: C_22  and  N_23
REMARK                            x       y       z     vdW  Elec       q    Type
REMARK                         _______ _______ _______ _____ _____    ______ ____
ROOT
ATOM      1  N   UNL     1       4.535   5.401  17.195  0.00  0.00    +0.000 N 
ATOM      2  C   UNL     1       4.925   4.002  17.543  0.00  0.00    +0.000 C 
ATOM      3  C   UNL     1       5.561   4.241  18.916  0.00  0.00    +0.000 C 
ATOM      4  C   UNL     1       4.320   4.909  19.450  0.00  0.00    +0.000 A 
ATOM      5  C   UNL     1       3.340   3.999  19.955  0.00  0.00    +0.000 A 
ATOM      6  C   UNL     1       2.028   4.080  19.481  0.00  0.00    +0.000 A 
ATOM      7  C   UNL     1       1.642   5.206  18.759  0.00  0.00    +0.000 A 
ATOM      8  C   UNL     1       2.579   6.281  18.777  0.00  0.00    +0.000 A 
ATOM      9  C   UNL     1       3.967   5.965  18.568  0.00  0.00    +0.000 A 
ENDROOT
BRANCH   1  10
ATOM     10  S   UNL     1       5.851   6.036  16.157  0.00  0.00    +0.000 S 
ATOM     11  O   UNL     1       7.081   6.070  16.940  0.00  0.00    +0.000 OA
ATOM     12  O   UNL     1       5.332   7.266  15.571  0.00  0.00    +0.000 OA
BRANCH  10  16
ATOM     13  C   UNL     1       6.751   3.507  12.207  0.00  0.00    +0.000 A 
ATOM     14  C   UNL     1       5.569   3.338  12.916  0.00  0.00    +0.000 A 
ATOM     15  C   UNL     1       5.277   4.109  14.057  0.00  0.00    +0.000 A 
ATOM     16  C   UNL     1       6.221   4.980  14.631  0.00  0.00    +0.000 A 
ATOM     17  C   UNL     1       7.373   5.219  13.861  0.00  0.00    +0.000 A 
ATOM     18  C   UNL     1       7.631   4.489  12.656  0.00  0.00    +0.000 A 
BRANCH  13  20
ATOM     19  C   UNL     1       6.365   1.349  11.209  0.00  0.00    +0.000 C 
ATOM     20  O   UNL     1       6.871   2.673  11.133  0.00  0.00    +0.000 OA
ENDBRANCH  13  20
ENDBRANCH  10  16
ENDBRANCH   1  10
BRANCH   8  21
ATOM     21  N   UNL     1       2.187   7.030  20.058  0.00  0.00    +0.000 N 
ATOM     22  H   UNL     1       1.910   6.353  20.771  0.00  0.00    +0.000 HD
BRANCH  21  23
ATOM     23  C   UNL     1       1.589   8.267  20.338  0.00  0.00    +0.000 A 
ATOM     24  C   UNL     1       1.271   9.166  19.335  0.00  0.00    +0.000 A 
ATOM     25  C   UNL     1       0.533  10.316  19.627  0.00  0.00    +0.000 A 
ATOM     26  C   UNL     1       0.125  10.577  20.939  0.00  0.00    +0.000 A 
ATOM     27  C   UNL     1       0.480   9.715  21.984  0.00  0.00    +0.000 A 
ATOM     28  C   UNL     1       1.207   8.559  21.670  0.00  0.00    +0.000 A 
BRANCH  26  29
ATOM     29  N   UNL     1      -0.709  11.760  21.215  0.00  0.00    +0.000 N 
ATOM     30  O   UNL     1      -0.477  12.782  20.560  0.00  0.00    +0.000 OA
ATOM     31  O   UNL     1      -1.603  11.656  22.068  0.00  0.00    +0.000 OA
ENDBRANCH  26  29
ENDBRANCH  21  23
ENDBRANCH   8  21
TORSDOF 6
ENDMDL
MODEL 9
REMARK VINA RESULT:      -7.5      4.370      7.689
REMARK  Name = 
REMARK  7 active torsions:
REMARK  status: ('A' for Active; 'I' for Inactive)
REMARK    1  A    between atoms: C_1  and  O_2
REMARK    2  A    between atoms: O_2  and  C_3
REMARK    3  A    between atoms: C_6  and  S_7
REMARK    4  A    between atoms: S_7  and  N_10
REMARK    5  A    between atoms: C_17  and  N_18
REMARK    6  A    between atoms: N_18  and  C_19
REMARK    7  A    between atoms: C_22  and  N_23
REMARK                            x       y       z     vdW  Elec       q    Type
REMARK                         _______ _______ _______ _____ _____    ______ ____
ROOT
ATOM      1  N   UNL     1       4.474   5.050  18.797  0.00  0.00    +0.000 N 
ATOM      2  C   UNL     1       4.482   3.780  18.010  0.00  0.00    +0.000 C 
ATOM      3  C   UNL     1       4.384   4.349  16.591  0.00  0.00    +0.000 C 
ATOM      4  C   UNL     1       5.606   5.212  16.779  0.00  0.00    +0.000 A 
ATOM      5  C   UNL     1       6.840   4.536  16.528  0.00  0.00    +0.000 A 
ATOM      6  C   UNL     1       7.842   4.561  17.502  0.00  0.00    +0.000 A 
ATOM      7  C   UNL     1       7.733   5.466  18.554  0.00  0.00    +0.000 A 
ATOM      8  C   UNL     1       6.708   6.446  18.400  0.00  0.00    +0.000 A 
ATOM      9  C   UNL     1       5.418   6.003  17.944  0.00  0.00    +0.000 A 
ENDROOT
BRANCH   1  10
ATOM     10  S   UNL     1       2.777   5.295  19.319  0.00  0.00    +0.000 S 
ATOM     11  O   UNL     1       2.679   4.973  20.738  0.00  0.00    +0.000 OA
ATOM     12  O   UNL     1       1.960   4.569  18.353  0.00  0.00    +0.000 OA
BRANCH  10  16
ATOM     13  C   UNL     1       1.362   9.833  18.853  0.00  0.00    +0.000 A 
ATOM     14  C   UNL     1       1.215   9.153  20.055  0.00  0.00    +0.000 A 
ATOM     15  C   UNL     1       1.669   7.829  20.214  0.00  0.00    +0.000 A 
ATOM     16  C   UNL     1       2.151   7.071  19.132  0.00  0.00    +0.000 A 
ATOM     17  C   UNL     1       2.386   7.788  17.945  0.00  0.00    +0.000 A 
ATOM     18  C   UNL     1       1.997   9.160  17.811  0.00  0.00    +0.000 A 
BRANCH  13  20
ATOM     19  C   UNL     1      -0.543  11.308  18.848  0.00  0.00    +0.000 C 
ATOM     20  O   UNL     1       0.862  11.103  18.876  0.00  0.00    +0.000 OA
ENDBRANCH  13  20
ENDBRANCH  10  16
ENDBRANCH   1  10
BRANCH   8  21
ATOM     21  N   UNL     1       7.427   7.541  17.600  0.00  0.00    +0.000 N 
ATOM     22  H   UNL     1       7.922   7.113  16.816  0.00  0.00    +0.000 HD
BRANCH  21  23
ATOM     23  C   UNL     1       8.036   8.763  17.920  0.00  0.00    +0.000 A 
ATOM     24  C   UNL     1       7.701   9.937  17.268  0.00  0.00    +0.000 A 
ATOM     25  C   UNL     1       8.204  11.161  17.717  0.00  0.00    +0.000 A 
ATOM     26  C   UNL     1       9.066  11.208  18.817  0.00  0.00    +0.000 A 
ATOM     27  C   UNL     1       9.468  10.032  19.461  0.00  0.00    +0.000 A 
ATOM     28  C   UNL     1       8.941   8.815  19.008  0.00  0.00    +0.000 A 
BRANCH  26  29
ATOM     29  N   UNL     1       9.533  12.514  19.314  0.00  0.00    +0.000 N 
ATOM     30  O   UNL     1      10.747  12.739  19.261  0.00  0.00    +0.000 OA
ATOM     31  O   UNL     1       8.685  13.314  19.736  0.00  0.00    +0.000 OA
ENDBRANCH  26  29
ENDBRANCH  21  23
ENDBRANCH   8  21
TORSDOF 6
ENDMDL
