MODEL 1
REMARK VINA RESULT:      -7.3      0.000      0.000
REMARK  Name = 
REMARK  7 active torsions:
REMARK  status: ('A' for Active; 'I' for Inactive)
REMARK    1  A    between atoms: C_1  and  O_2
REMARK    2  A    between atoms: O_2  and  C_3
REMARK    3  A    between atoms: C_6  and  C_7
REMARK    4  A    between atoms: C_7  and  C_8
REMARK    5  A    between atoms: N_9  and  N_10
REMARK    6  A    between atoms: C_16  and  C_17
REMARK    7  A    between atoms: C_17  and  O_19
REMARK                            x       y       z     vdW  Elec       q    Type
REMARK                         _______ _______ _______ _____ _____    ______ ____
ROOT
ATOM      1  N   UNL     1       3.147   6.807  18.357  0.00  0.00    +0.000 N 
ATOM      2  C   UNL     1       3.227   5.474  18.019  0.00  0.00    +0.000 C 
ATOM      3  N   UNL     1       4.343   5.021  17.559  0.00  0.00    +0.000 NA
ATOM      4  C   UNL     1       4.499   3.765  17.049  0.00  0.00    +0.000 C 
ATOM      5  O   UNL     1       5.345   3.549  16.184  0.00  0.00    +0.000 OA
ATOM      6  C   UNL     1       3.695   2.601  17.558  0.00  0.00    +0.000 C 
ATOM      7  C   UNL     1       2.534   2.906  18.477  0.00  0.00    +0.000 C 
ATOM      8  S   UNL     1       1.777   4.514  18.168  0.00  0.00    +0.000 S 
ATOM      9  H   UNL     1       4.030   7.275  18.157  0.00  0.00    +0.000 HD
ENDROOT
BRANCH   1  12
ATOM     10  C   UNL     1       1.777   8.472  19.135  0.00  0.00    +0.000 C 
ATOM     11  C   UNL     1       1.798   9.181  17.793  0.00  0.00    +0.000 C 
ATOM     12  N   UNL     1       2.378   7.330  19.359  0.00  0.00    +0.000 NA
BRANCH  10  16
ATOM     13  C   UNL     1      -0.383  10.367  22.342  0.00  0.00    +0.000 A 
ATOM     14  C   UNL     1       0.450   9.280  22.617  0.00  0.00    +0.000 A 
ATOM     15  C   UNL     1       1.176   8.657  21.595  0.00  0.00    +0.000 A 
ATOM     16  C   UNL     1       1.052   9.107  20.279  0.00  0.00    +0.000 A 
ATOM     17  C   UNL     1       0.201  10.186  20.004  0.00  0.00    +0.000 A 
ATOM     18  C   UNL     1      -0.514  10.814  21.029  0.00  0.00    +0.000 A 
BRANCH  13  20
ATOM     19  C   UNL     1      -2.111  11.776  23.125  0.00  0.00    +0.000 C 
ATOM     20  O   UNL     1      -1.039  10.887  23.424  0.00  0.00    +0.000 OA
ENDBRANCH  13  20
ENDBRANCH  10  16
ENDBRANCH   1  12
BRANCH   7  21
ATOM     21  C   UNL     1       2.879   2.659  19.939  0.00  0.00    +0.000 C 
ATOM     22  O   UNL     1       4.020   2.500  20.346  0.00  0.00    +0.000 OA
BRANCH  21  23
ATOM     23  O   UNL     1       1.815   2.519  20.765  0.00  0.00    +0.000 OA
ATOM     24  H   UNL     1       1.357   3.369  20.935  0.00  0.00    +0.000 HD
ENDBRANCH  21  23
ENDBRANCH   7  21
TORSDOF 5
ENDMDL
MODEL 2
REMARK VINA RESULT:      -7.2      0.118      1.033
REMARK  Name = 
REMARK  7 active torsions:
REMARK  status: ('A' for Active; 'I' for Inactive)
REMARK    1  A    between atoms: C_1  and  O_2
REMARK    2  A    between atoms: O_2  and  C_3
REMARK    3  A    between atoms: C_6  and  C_7
REMARK    4  A    between atoms: C_7  and  C_8
REMARK    5  A    between atoms: N_9  and  N_10
REMARK    6  A    between atoms: C_16  and  C_17
REMARK    7  A    between atoms: C_17  and  O_19
REMARK                            x       y       z     vdW  Elec       q    Type
REMARK                         _______ _______ _______ _____ _____    ______ ____
ROOT
ATOM      1  N   UNL     1       3.087   6.864  18.335  0.00  0.00    +0.000 N 
ATOM      2  C   UNL     1       3.200   5.527  18.020  0.00  0.00    +0.000 C 
ATOM      3  N   UNL     1       4.328   5.093  17.574  0.00  0.00    +0.000 NA
ATOM      4  C   UNL     1       4.516   3.832  17.087  0.00  0.00    +0.000 C 
ATOM      5  O   UNL     1       5.372   3.621  16.230  0.00  0.00    +0.000 OA
ATOM      6  C   UNL     1       3.737   2.658  17.612  0.00  0.00    +0.000 C 
ATOM      7  C   UNL     1       2.563   2.952  18.519  0.00  0.00    +0.000 C 
ATOM      8  S   UNL     1       1.772   4.537  18.178  0.00  0.00    +0.000 S 
ATOM      9  H   UNL     1       3.961   7.349  18.132  0.00  0.00    +0.000 HD
ENDROOT
BRANCH   1  12
ATOM     10  C   UNL     1       1.743   8.552  19.109  0.00  0.00    +0.000 C 
ATOM     11  C   UNL     1       1.831   9.291  17.787  0.00  0.00    +0.000 C 
ATOM     12  N   UNL     1       2.301   7.386  19.324  0.00  0.00    +0.000 NA
BRANCH  10  16
ATOM     13  C   UNL     1      -0.323  10.299  22.459  0.00  0.00    +0.000 A 
ATOM     14  C   UNL     1      -0.535  10.807  21.174  0.00  0.00    +0.000 A 
ATOM     15  C   UNL     1       0.111  10.245  20.066  0.00  0.00    +0.000 A 
ATOM     16  C   UNL     1       0.999   9.181  20.244  0.00  0.00    +0.000 A 
ATOM     17  C   UNL     1       1.223   8.687  21.536  0.00  0.00    +0.000 A 
ATOM     18  C   UNL     1       0.567   9.243  22.639  0.00  0.00    +0.000 A 
BRANCH  13  20
ATOM     19  C   UNL     1      -2.034  11.826  23.030  0.00  0.00    +0.000 C 
ATOM     20  O   UNL     1      -1.010  10.933  23.457  0.00  0.00    +0.000 OA
ENDBRANCH  13  20
ENDBRANCH  10  16
ENDBRANCH   1  12
BRANCH   7  21
ATOM     21  C   UNL     1       2.906   2.738  19.987  0.00  0.00    +0.000 C 
ATOM     22  O   UNL     1       4.016   2.416  20.382  0.00  0.00    +0.000 OA
BRANCH  21  23
ATOM     23  O   UNL     1       1.859   2.826  20.841  0.00  0.00    +0.000 OA
ATOM     24  H   UNL     1       2.125   3.139  21.731  0.00  0.00    +0.000 HD
ENDBRANCH  21  23
ENDBRANCH   7  21
TORSDOF 5
ENDMDL
MODEL 3
REMARK VINA RESULT:      -7.1      2.607      3.707
REMARK  Name = 
REMARK  7 active torsions:
REMARK  status: ('A' for Active; 'I' for Inactive)
REMARK    1  A    between atoms: C_1  and  O_2
REMARK    2  A    between atoms: O_2  and  C_3
REMARK    3  A    between atoms: C_6  and  C_7
REMARK    4  A    between atoms: C_7  and  C_8
REMARK    5  A    between atoms: N_9  and  N_10
REMARK    6  A    between atoms: C_16  and  C_17
REMARK    7  A    between atoms: C_17  and  O_19
REMARK                            x       y       z     vdW  Elec       q    Type
REMARK                         _______ _______ _______ _____ _____    ______ ____
ROOT
ATOM      1  N   UNL     1       3.402   6.074  17.499  0.00  0.00    +0.000 N 
ATOM      2  C   UNL     1       4.671   5.536  17.493  0.00  0.00    +0.000 C 
ATOM      3  N   UNL     1       5.114   5.018  16.400  0.00  0.00    +0.000 NA
ATOM      4  C   UNL     1       6.285   4.323  16.311  0.00  0.00    +0.000 C 
ATOM      5  O   UNL     1       6.417   3.439  15.467  0.00  0.00    +0.000 OA
ATOM      6  C   UNL     1       7.463   4.644  17.189  0.00  0.00    +0.000 C 
ATOM      7  C   UNL     1       7.232   5.593  18.343  0.00  0.00    +0.000 C 
ATOM      8  S   UNL     1       5.553   5.530  18.999  0.00  0.00    +0.000 S 
ATOM      9  H   UNL     1       2.964   5.953  16.587  0.00  0.00    +0.000 HD
ENDROOT
BRANCH   1  12
ATOM     10  C   UNL     1       2.233   6.900  19.289  0.00  0.00    +0.000 C 
ATOM     11  C   UNL     1       1.881   5.503  19.764  0.00  0.00    +0.000 C 
ATOM     12  N   UNL     1       2.993   7.141  18.250  0.00  0.00    +0.000 NA
BRANCH  10  16
ATOM     13  C   UNL     1       0.660  10.233  21.518  0.00  0.00    +0.000 A 
ATOM     14  C   UNL     1       0.816  10.338  20.133  0.00  0.00    +0.000 A 
ATOM     15  C   UNL     1       1.309   9.263  19.383  0.00  0.00    +0.000 A 
ATOM     16  C   UNL     1       1.674   8.077  20.024  0.00  0.00    +0.000 A 
ATOM     17  C   UNL     1       1.534   7.982  21.415  0.00  0.00    +0.000 A 
ATOM     18  C   UNL     1       1.030   9.053  22.160  0.00  0.00    +0.000 A 
BRANCH  13  20
ATOM     19  C   UNL     1      -1.000  11.157  22.923  0.00  0.00    +0.000 C 
ATOM     20  O   UNL     1       0.171  11.350  22.136  0.00  0.00    +0.000 OA
ENDBRANCH  13  20
ENDBRANCH  10  16
ENDBRANCH   1  12
BRANCH   7  21
ATOM     21  C   UNL     1       7.719   7.002  18.033  0.00  0.00    +0.000 C 
ATOM     22  O   UNL     1       7.456   7.595  16.998  0.00  0.00    +0.000 OA
BRANCH  21  23
ATOM     23  O   UNL     1       8.566   7.531  18.947  0.00  0.00    +0.000 OA
ATOM     24  H   UNL     1       8.187   8.312  19.403  0.00  0.00    +0.000 HD
ENDBRANCH  21  23
ENDBRANCH   7  21
TORSDOF 5
ENDMDL
MODEL 4
REMARK VINA RESULT:      -7.0      2.830      3.482
REMARK  Name = 
REMARK  7 active torsions:
REMARK  status: ('A' for Active; 'I' for Inactive)
REMARK    1  A    between atoms: C_1  and  O_2
REMARK    2  A    between atoms: O_2  and  C_3
REMARK    3  A    between atoms: C_6  and  C_7
REMARK    4  A    between atoms: C_7  and  C_8
REMARK    5  A    between atoms: N_9  and  N_10
REMARK    6  A    between atoms: C_16  and  C_17
REMARK    7  A    between atoms: C_17  and  O_19
REMARK                            x       y       z     vdW  Elec       q    Type
REMARK                         _______ _______ _______ _____ _____    ______ ____
ROOT
ATOM      1  N   UNL     1       4.193   7.102  16.838  0.00  0.00    +0.000 N 
ATOM      2  C   UNL     1       5.189   6.159  16.962  0.00  0.00    +0.000 C 
ATOM      3  N   UNL     1       6.025   6.016  15.991  0.00  0.00    +0.000 NA
ATOM      4  C   UNL     1       6.954   5.018  15.931  0.00  0.00    +0.000 C 
ATOM      5  O   UNL     1       7.340   4.597  14.843  0.00  0.00    +0.000 OA
ATOM      6  C   UNL     1       7.575   4.441  17.173  0.00  0.00    +0.000 C 
ATOM      7  C   UNL     1       6.961   4.825  18.501  0.00  0.00    +0.000 C 
ATOM      8  S   UNL     1       5.193   5.171  18.400  0.00  0.00    +0.000 S 
ATOM      9  H   UNL     1       4.252   7.560  15.930  0.00  0.00    +0.000 HD
ENDROOT
BRANCH   1  12
ATOM     10  C   UNL     1       2.474   7.449  18.315  0.00  0.00    +0.000 C 
ATOM     11  C   UNL     1       1.751   6.203  17.838  0.00  0.00    +0.000 C 
ATOM     12  N   UNL     1       3.646   7.822  17.864  0.00  0.00    +0.000 NA
BRANCH  10  16
ATOM     13  C   UNL     1       0.631   9.876  21.358  0.00  0.00    +0.000 A 
ATOM     14  C   UNL     1       0.733  10.363  20.052  0.00  0.00    +0.000 A 
ATOM     15  C   UNL     1       1.313   9.587  19.041  0.00  0.00    +0.000 A 
ATOM     16  C   UNL     1       1.819   8.320  19.340  0.00  0.00    +0.000 A 
ATOM     17  C   UNL     1       1.732   7.843  20.654  0.00  0.00    +0.000 A 
ATOM     18  C   UNL     1       1.142   8.616  21.659  0.00  0.00    +0.000 A 
BRANCH  13  20
ATOM     19  C   UNL     1      -0.849  10.127  23.183  0.00  0.00    +0.000 C 
ATOM     20  O   UNL     1       0.048  10.728  22.254  0.00  0.00    +0.000 OA
ENDBRANCH  13  20
ENDBRANCH  10  16
ENDBRANCH   1  12
BRANCH   7  21
ATOM     21  C   UNL     1       7.761   5.909  19.211  0.00  0.00    +0.000 C 
ATOM     22  O   UNL     1       8.132   6.939  18.669  0.00  0.00    +0.000 OA
BRANCH  21  23
ATOM     23  O   UNL     1       8.135   5.610  20.477  0.00  0.00    +0.000 OA
ATOM     24  H   UNL     1       8.819   6.224  20.821  0.00  0.00    +0.000 HD
ENDBRANCH  21  23
ENDBRANCH   7  21
TORSDOF 5
ENDMDL
MODEL 5
REMARK VINA RESULT:      -7.0      3.025      8.453
REMARK  Name = 
REMARK  7 active torsions:
REMARK  status: ('A' for Active; 'I' for Inactive)
REMARK    1  A    between atoms: C_1  and  O_2
REMARK    2  A    between atoms: O_2  and  C_3
REMARK    3  A    between atoms: C_6  and  C_7
REMARK    4  A    between atoms: C_7  and  C_8
REMARK    5  A    between atoms: N_9  and  N_10
REMARK    6  A    between atoms: C_16  and  C_17
REMARK    7  A    between atoms: C_17  and  O_19
REMARK                            x       y       z     vdW  Elec       q    Type
REMARK                         _______ _______ _______ _____ _____    ______ ____
ROOT
ATOM      1  N   UNL     1       1.599   7.686  20.689  0.00  0.00    +0.000 N 
ATOM      2  C   UNL     1       0.882   8.828  20.977  0.00  0.00    +0.000 C 
ATOM      3  N   UNL     1       0.740   9.170  22.211  0.00  0.00    +0.000 NA
ATOM      4  C   UNL     1      -0.071  10.186  22.627  0.00  0.00    +0.000 C 
ATOM      5  O   UNL     1      -0.583  10.151  23.745  0.00  0.00    +0.000 OA
ATOM      6  C   UNL     1      -0.321  11.398  21.773  0.00  0.00    +0.000 C 
ATOM      7  C   UNL     1       0.151  11.346  20.338  0.00  0.00    +0.000 C 
ATOM      8  S   UNL     1       0.153   9.682  19.642  0.00  0.00    +0.000 S 
ATOM      9  H   UNL     1       1.909   7.239  21.551  0.00  0.00    +0.000 HD
ENDROOT
BRANCH   1  12
ATOM     10  C   UNL     1       2.623   6.249  19.226  0.00  0.00    +0.000 C 
ATOM     11  C   UNL     1       2.033   5.040  19.928  0.00  0.00    +0.000 C 
ATOM     12  N   UNL     1       2.362   7.485  19.573  0.00  0.00    +0.000 NA
BRANCH  10  16
ATOM     13  C   UNL     1       5.315   5.511  15.948  0.00  0.00    +0.000 A 
ATOM     14  C   UNL     1       5.037   6.825  16.332  0.00  0.00    +0.000 A 
ATOM     15  C   UNL     1       4.179   7.092  17.406  0.00  0.00    +0.000 A 
ATOM     16  C   UNL     1       3.570   6.036  18.089  0.00  0.00    +0.000 A 
ATOM     17  C   UNL     1       3.837   4.720  17.688  0.00  0.00    +0.000 A 
ATOM     18  C   UNL     1       4.704   4.457  16.623  0.00  0.00    +0.000 A 
BRANCH  13  20
ATOM     19  C   UNL     1       6.197   4.096  14.273  0.00  0.00    +0.000 C 
ATOM     20  O   UNL     1       6.166   5.381  14.885  0.00  0.00    +0.000 OA
ENDBRANCH  13  20
ENDBRANCH  10  16
ENDBRANCH   1  12
BRANCH   7  21
ATOM     21  C   UNL     1       1.460  12.098  20.138  0.00  0.00    +0.000 C 
ATOM     22  O   UNL     1       2.016  12.733  21.021  0.00  0.00    +0.000 OA
BRANCH  21  23
ATOM     23  O   UNL     1       1.929  12.108  18.868  0.00  0.00    +0.000 OA
ATOM     24  H   UNL     1       2.230  12.998  18.586  0.00  0.00    +0.000 HD
ENDBRANCH  21  23
ENDBRANCH   7  21
TORSDOF 5
ENDMDL
MODEL 6
REMARK VINA RESULT:      -7.0      2.519      3.527
REMARK  Name = 
REMARK  7 active torsions:
REMARK  status: ('A' for Active; 'I' for Inactive)
REMARK    1  A    between atoms: C_1  and  O_2
REMARK    2  A    between atoms: O_2  and  C_3
REMARK    3  A    between atoms: C_6  and  C_7
REMARK    4  A    between atoms: C_7  and  C_8
REMARK    5  A    between atoms: N_9  and  N_10
REMARK    6  A    between atoms: C_16  and  C_17
REMARK    7  A    between atoms: C_17  and  O_19
REMARK                            x       y       z     vdW  Elec       q    Type
REMARK                         _______ _______ _______ _____ _____    ______ ____
ROOT
ATOM      1  N   UNL     1       3.253   5.929  17.780  0.00  0.00    +0.000 N 
ATOM      2  C   UNL     1       4.543   5.454  17.681  0.00  0.00    +0.000 C 
ATOM      3  N   UNL     1       4.904   4.875  16.587  0.00  0.00    +0.000 NA
ATOM      4  C   UNL     1       6.097   4.232  16.428  0.00  0.00    +0.000 C 
ATOM      5  O   UNL     1       6.193   3.294  15.639  0.00  0.00    +0.000 OA
ATOM      6  C   UNL     1       7.337   4.676  17.154  0.00  0.00    +0.000 C 
ATOM      7  C   UNL     1       7.169   5.698  18.256  0.00  0.00    +0.000 C 
ATOM      8  S   UNL     1       5.570   5.605  19.084  0.00  0.00    +0.000 S 
ATOM      9  H   UNL     1       2.734   5.718  16.929  0.00  0.00    +0.000 HD
ENDROOT
BRANCH   1  12
ATOM     10  C   UNL     1       2.177   6.834  19.590  0.00  0.00    +0.000 C 
ATOM     11  C   UNL     1       1.896   5.459  20.168  0.00  0.00    +0.000 C 
ATOM     12  N   UNL     1       2.862   7.029  18.490  0.00  0.00    +0.000 NA
BRANCH  10  16
ATOM     13  C   UNL     1       0.587  10.359  21.486  0.00  0.00    +0.000 A 
ATOM     14  C   UNL     1       0.830   9.212  22.248  0.00  0.00    +0.000 A 
ATOM     15  C   UNL     1       1.362   8.059  21.659  0.00  0.00    +0.000 A 
ATOM     16  C   UNL     1       1.633   8.039  20.289  0.00  0.00    +0.000 A 
ATOM     17  C   UNL     1       1.371   9.184  19.524  0.00  0.00    +0.000 A 
ATOM     18  C   UNL     1       0.849  10.338  20.118  0.00  0.00    +0.000 A 
BRANCH  13  20
ATOM     19  C   UNL     1      -1.069  11.127  22.986  0.00  0.00    +0.000 C 
ATOM     20  O   UNL     1       0.065  11.418  22.175  0.00  0.00    +0.000 OA
ENDBRANCH  13  20
ENDBRANCH  10  16
ENDBRANCH   1  12
BRANCH   7  21
ATOM     21  C   UNL     1       7.544   7.101  17.798  0.00  0.00    +0.000 C 
ATOM     22  O   UNL     1       8.300   7.834  18.418  0.00  0.00    +0.000 OA
BRANCH  21  23
ATOM     23  O   UNL     1       6.894   7.538  16.694  0.00  0.00    +0.000 OA
ATOM     24  H   UNL     1       6.680   8.494  16.738  0.00  0.00    +0.000 HD
ENDBRANCH  21  23
ENDBRANCH   7  21
TORSDOF 5
ENDMDL
MODEL 7
REMARK VINA RESULT:      -7.0      3.034      8.370
REMARK  Name = 
REMARK  7 active torsions:
REMARK  status: ('A' for Active; 'I' for Inactive)
REMARK    1  A    between atoms: C_1  and  O_2
REMARK    2  A    between atoms: O_2  and  C_3
REMARK    3  A    between atoms: C_6  and  C_7
REMARK    4  A    between atoms: C_7  and  C_8
REMARK    5  A    between atoms: N_9  and  N_10
REMARK    6  A    between atoms: C_16  and  C_17
REMARK    7  A    between atoms: C_17  and  O_19
REMARK                            x       y       z     vdW  Elec       q    Type
REMARK                         _______ _______ _______ _____ _____    ______ ____
ROOT
ATOM      1  N   UNL     1       1.763   7.545  20.676  0.00  0.00    +0.000 N 
ATOM      2  C   UNL     1       1.019   8.665  20.981  0.00  0.00    +0.000 C 
ATOM      3  N   UNL     1       0.917   9.018  22.216  0.00  0.00    +0.000 NA
ATOM      4  C   UNL     1       0.089  10.010  22.655  0.00  0.00    +0.000 C 
ATOM      5  O   UNL     1      -0.375   9.971  23.793  0.00  0.00    +0.000 OA
ATOM      6  C   UNL     1      -0.239  11.202  21.799  0.00  0.00    +0.000 C 
ATOM      7  C   UNL     1       0.175  11.148  20.345  0.00  0.00    +0.000 C 
ATOM      8  S   UNL     1       0.206   9.477  19.668  0.00  0.00    +0.000 S 
ATOM      9  H   UNL     1       2.124   7.119  21.529  0.00  0.00    +0.000 HD
ENDROOT
BRANCH   1  12
ATOM     10  C   UNL     1       2.735   6.124  19.163  0.00  0.00    +0.000 C 
ATOM     11  C   UNL     1       2.172   4.907  19.874  0.00  0.00    +0.000 C 
ATOM     12  N   UNL     1       2.485   7.356  19.531  0.00  0.00    +0.000 NA
BRANCH  10  16
ATOM     13  C   UNL     1       5.377   5.673  15.792  0.00  0.00    +0.000 A 
ATOM     14  C   UNL     1       4.850   4.539  16.415  0.00  0.00    +0.000 A 
ATOM     15  C   UNL     1       3.976   4.659  17.502  0.00  0.00    +0.000 A 
ATOM     16  C   UNL     1       3.641   5.924  17.990  0.00  0.00    +0.000 A 
ATOM     17  C   UNL     1       4.186   7.059  17.374  0.00  0.00    +0.000 A 
ATOM     18  C   UNL     1       5.050   6.936  16.281  0.00  0.00    +0.000 A 
BRANCH  13  20
ATOM     19  C   UNL     1       6.343   4.059  14.363  0.00  0.00    +0.000 C 
ATOM     20  O   UNL     1       6.219   5.425  14.744  0.00  0.00    +0.000 OA
ENDBRANCH  13  20
ENDBRANCH  10  16
ENDBRANCH   1  12
BRANCH   7  21
ATOM     21  C   UNL     1       1.448  11.942  20.082  0.00  0.00    +0.000 C 
ATOM     22  O   UNL     1       2.001  12.631  20.926  0.00  0.00    +0.000 OA
BRANCH  21  23
ATOM     23  O   UNL     1       1.883  11.922  18.800  0.00  0.00    +0.000 OA
ATOM     24  H   UNL     1       2.543  11.215  18.638  0.00  0.00    +0.000 HD
ENDBRANCH  21  23
ENDBRANCH   7  21
TORSDOF 5
ENDMDL
MODEL 8
REMARK VINA RESULT:      -6.9      2.756      8.405
REMARK  Name = 
REMARK  7 active torsions:
REMARK  status: ('A' for Active; 'I' for Inactive)
REMARK    1  A    between atoms: C_1  and  O_2
REMARK    2  A    between atoms: O_2  and  C_3
REMARK    3  A    between atoms: C_6  and  C_7
REMARK    4  A    between atoms: C_7  and  C_8
REMARK    5  A    between atoms: N_9  and  N_10
REMARK    6  A    between atoms: C_16  and  C_17
REMARK    7  A    between atoms: C_17  and  O_19
REMARK                            x       y       z     vdW  Elec       q    Type
REMARK                         _______ _______ _______ _____ _____    ______ ____
ROOT
ATOM      1  N   UNL     1       1.652   7.981  20.632  0.00  0.00    +0.000 N 
ATOM      2  C   UNL     1       1.006   9.199  20.621  0.00  0.00    +0.000 C 
ATOM      3  N   UNL     1       0.941   9.871  21.719  0.00  0.00    +0.000 NA
ATOM      4  C   UNL     1       0.201  11.007  21.868  0.00  0.00    +0.000 C 
ATOM      5  O   UNL     1      -0.257  11.307  22.970  0.00  0.00    +0.000 OA
ATOM      6  C   UNL     1      -0.032  11.955  20.725  0.00  0.00    +0.000 C 
ATOM      7  C   UNL     1       0.367  11.488  19.343  0.00  0.00    +0.000 C 
ATOM      8  S   UNL     1       0.254   9.701  19.129  0.00  0.00    +0.000 S 
ATOM      9  H   UNL     1       1.982   7.766  21.572  0.00  0.00    +0.000 HD
ENDROOT
BRANCH   1  12
ATOM     10  C   UNL     1       2.415   6.134  19.509  0.00  0.00    +0.000 C 
ATOM     11  C   UNL     1       1.669   5.200  20.444  0.00  0.00    +0.000 C 
ATOM     12  N   UNL     1       2.349   7.440  19.588  0.00  0.00    +0.000 NA
BRANCH  10  16
ATOM     13  C   UNL     1       5.002   4.563  16.447  0.00  0.00    +0.000 A 
ATOM     14  C   UNL     1       4.182   3.695  17.172  0.00  0.00    +0.000 A 
ATOM     15  C   UNL     1       3.320   4.182  18.161  0.00  0.00    +0.000 A 
ATOM     16  C   UNL     1       3.292   5.549  18.448  0.00  0.00    +0.000 A 
ATOM     17  C   UNL     1       4.129   6.414  17.732  0.00  0.00    +0.000 A 
ATOM     18  C   UNL     1       4.981   5.926  16.736  0.00  0.00    +0.000 A 
BRANCH  13  20
ATOM     19  C   UNL     1       6.761   4.814  14.889  0.00  0.00    +0.000 C 
ATOM     20  O   UNL     1       5.800   3.966  15.510  0.00  0.00    +0.000 OA
ENDBRANCH  13  20
ENDBRANCH  10  16
ENDBRANCH   1  12
BRANCH   7  21
ATOM     21  C   UNL     1       1.699  12.078  18.901  0.00  0.00    +0.000 C 
ATOM     22  O   UNL     1       2.235  13.027  19.454  0.00  0.00    +0.000 OA
BRANCH  21  23
ATOM     23  O   UNL     1       2.217  11.545  17.769  0.00  0.00    +0.000 OA
ATOM     24  H   UNL     1       2.618  10.662  17.920  0.00  0.00    +0.000 HD
ENDBRANCH  21  23
ENDBRANCH   7  21
TORSDOF 5
ENDMDL
MODEL 9
REMARK VINA RESULT:      -6.8      3.062      8.531
REMARK  Name = 
REMARK  7 active torsions:
REMARK  status: ('A' for Active; 'I' for Inactive)
REMARK    1  A    between atoms: C_1  and  O_2
REMARK    2  A    between atoms: O_2  and  C_3
REMARK    3  A    between atoms: C_6  and  C_7
REMARK    4  A    between atoms: C_7  and  C_8
REMARK    5  A    between atoms: N_9  and  N_10
REMARK    6  A    between atoms: C_16  and  C_17
REMARK    7  A    between atoms: C_17  and  O_19
REMARK                            x       y       z     vdW  Elec       q    Type
REMARK                         _______ _______ _______ _____ _____    ______ ____
ROOT
ATOM      1  N   UNL     1       1.445   8.519  20.264  0.00  0.00    +0.000 N 
ATOM      2  C   UNL     1       0.950   9.803  20.183  0.00  0.00    +0.000 C 
ATOM      3  N   UNL     1       0.892  10.509  21.260  0.00  0.00    +0.000 NA
ATOM      4  C   UNL     1       0.284  11.728  21.335  0.00  0.00    +0.000 C 
ATOM      5  O   UNL     1      -0.208  12.110  22.395  0.00  0.00    +0.000 OA
ATOM      6  C   UNL     1       0.242  12.664  20.159  0.00  0.00    +0.000 C 
ATOM      7  C   UNL     1       0.674  12.115  18.818  0.00  0.00    +0.000 C 
ATOM      8  S   UNL     1       0.365  10.348  18.633  0.00  0.00    +0.000 S 
ATOM      9  H   UNL     1       1.684   8.294  21.229  0.00  0.00    +0.000 HD
ENDROOT
BRANCH   1  12
ATOM     10  C   UNL     1       2.338   6.583  19.422  0.00  0.00    +0.000 C 
ATOM     11  C   UNL     1       1.740   5.762  20.549  0.00  0.00    +0.000 C 
ATOM     12  N   UNL     1       2.142   7.871  19.283  0.00  0.00    +0.000 NA
BRANCH  10  16
ATOM     13  C   UNL     1       4.788   4.531  16.536  0.00  0.00    +0.000 A 
ATOM     14  C   UNL     1       5.010   5.887  16.793  0.00  0.00    +0.000 A 
ATOM     15  C   UNL     1       4.239   6.573  17.739  0.00  0.00    +0.000 A 
ATOM     16  C   UNL     1       3.217   5.906  18.419  0.00  0.00    +0.000 A 
ATOM     17  C   UNL     1       2.985   4.552  18.145  0.00  0.00    +0.000 A 
ATOM     18  C   UNL     1       3.764   3.866  17.208  0.00  0.00    +0.000 A 
BRANCH  13  20
ATOM     19  C   UNL     1       6.056   4.859  14.569  0.00  0.00    +0.000 C 
ATOM     20  O   UNL     1       5.604   3.975  15.590  0.00  0.00    +0.000 OA
ENDBRANCH  13  20
ENDBRANCH  10  16
ENDBRANCH   1  12
BRANCH   7  21
ATOM     21  C   UNL     1       2.094  12.532  18.458  0.00  0.00    +0.000 C 
ATOM     22  O   UNL     1       2.753  13.323  19.117  0.00  0.00    +0.000 OA
BRANCH  21  23
ATOM     23  O   UNL     1       2.556  12.045  17.283  0.00  0.00    +0.000 OA
ATOM     24  H   UNL     1       2.496  12.701  16.556  0.00  0.00    +0.000 HD
ENDBRANCH  21  23
ENDBRANCH   7  21
TORSDOF 5
ENDMDL
