MODEL 1
REMARK VINA RESULT:      -7.4      0.000      0.000
REMARK  Name = 
REMARK  11 active torsions:
REMARK  status: ('A' for Active; 'I' for Inactive)
REMARK    1  A    between atoms: C_1  and  O_2
REMARK    2  A    between atoms: O_2  and  C_3
REMARK    3  A    between atoms: C_7  and  O_8
REMARK    4  A    between atoms: O_8  and  C_9
REMARK    5  A    between atoms: C_10  and  O_11
REMARK    6  A    between atoms: O_11  and  C_12
REMARK    7  A    between atoms: C_17  and  C_18
REMARK    8  A    between atoms: C_18  and  C_19
REMARK    9  A    between atoms: C_19  and  O_20
REMARK   10  A    between atoms: C_25  and  N_26
REMARK   11  A    between atoms: C_27  and  C_28
REMARK                            x       y       z     vdW  Elec       q    Type
REMARK                         _______ _______ _______ _____ _____    ______ ____
ROOT
ATOM      1  C   UNL     1       6.232   3.964  14.527  0.00  0.00    +0.000 A 
ATOM      2  C   UNL     1       5.164   3.295  15.146  0.00  0.00    +0.000 A 
ATOM      3  C   UNL     1       4.408   3.897  16.158  0.00  0.00    +0.000 A 
ATOM      4  C   UNL     1       4.787   5.169  16.629  0.00  0.00    +0.000 A 
ATOM      5  C   UNL     1       6.000   5.755  16.145  0.00  0.00    +0.000 A 
ATOM      6  C   UNL     1       6.705   5.182  15.059  0.00  0.00    +0.000 A 
ATOM      7  C   UNL     1       3.854   5.947  17.507  0.00  0.00    +0.000 A 
ATOM      8  C   UNL     1       3.568   7.261  17.096  0.00  0.00    +0.000 A 
ATOM      9  C   UNL     1       2.774   8.099  17.876  0.00  0.00    +0.000 A 
ATOM     10  C   UNL     1       2.431   9.456  17.790  0.00  0.00    +0.000 A 
ATOM     11  C   UNL     1       1.646   9.742  18.884  0.00  0.00    +0.000 A 
ATOM     12  O   UNL     1       1.459   8.607  19.637  0.00  0.00    +0.000 OA
ATOM     13  C   UNL     1       2.174   7.594  19.016  0.00  0.00    +0.000 A 
ATOM     14  C   UNL     1       2.341   6.258  19.428  0.00  0.00    +0.000 A 
ATOM     15  C   UNL     1       3.227   5.426  18.672  0.00  0.00    +0.000 A 
ATOM     16  C   UNL     1       3.605   4.001  19.093  0.00  0.00    +0.000 C 
ATOM     17  C   UNL     1       3.097   2.904  18.128  0.00  0.00    +0.000 C 
ATOM     18  C   UNL     1       3.140   3.229  16.634  0.00  0.00    +0.000 C 
ENDROOT
BRANCH  16  19
ATOM     19  N   UNL     1       3.219   3.670  20.464  0.00  0.00    +0.000 N 
ATOM     20  C   UNL     1       1.988   3.120  20.747  0.00  0.00    +0.000 C 
ATOM     21  C   UNL     1       1.749   2.868  22.212  0.00  0.00    +0.000 C 
ATOM     22  O   UNL     1       1.138   2.864  19.903  0.00  0.00    +0.000 OA
ATOM     23  H   UNL     1       3.724   4.102  21.221  0.00  0.00    +0.000 HD
ENDBRANCH  16  19
BRANCH   1  25
ATOM     24  C   UNL     1       5.998   3.211  12.296  0.00  0.00    +0.000 C 
ATOM     25  O   UNL     1       6.842   3.412  13.433  0.00  0.00    +0.000 OA
ENDBRANCH   1  25
BRANCH   5  26
ATOM     26  O   UNL     1       6.345   6.910  16.826  0.00  0.00    +0.000 OA
ATOM     27  C   UNL     1       7.428   6.940  17.739  0.00  0.00    +0.000 C 
ENDBRANCH   5  26
BRANCH   6  28
ATOM     28  O   UNL     1       7.788   5.885  14.608  0.00  0.00    +0.000 OA
ATOM     29  C   UNL     1       8.215   5.801  13.259  0.00  0.00    +0.000 C 
ENDBRANCH   6  28
BRANCH  11  30
ATOM     30  C   UNL     1       1.108  11.078  19.269  0.00  0.00    +0.000 C 
BRANCH  30  31
ATOM     31  C   UNL     1       1.271  11.557  20.694  0.00  0.00    +0.000 C 
BRANCH  31  32
ATOM     32  O   UNL     1       1.009  10.520  21.637  0.00  0.00    +0.000 OA
ATOM     33  H   UNL     1       0.189  10.082  21.336  0.00  0.00    +0.000 HD
ENDBRANCH  31  32
ENDBRANCH  30  31
ENDBRANCH  11  30
TORSDOF 7
ENDMDL
MODEL 2
REMARK VINA RESULT:      -7.3      6.607     11.802
REMARK  Name = 
REMARK  11 active torsions:
REMARK  status: ('A' for Active; 'I' for Inactive)
REMARK    1  A    between atoms: C_1  and  O_2
REMARK    2  A    between atoms: O_2  and  C_3
REMARK    3  A    between atoms: C_7  and  O_8
REMARK    4  A    between atoms: O_8  and  C_9
REMARK    5  A    between atoms: C_10  and  O_11
REMARK    6  A    between atoms: O_11  and  C_12
REMARK    7  A    between atoms: C_17  and  C_18
REMARK    8  A    between atoms: C_18  and  C_19
REMARK    9  A    between atoms: C_19  and  O_20
REMARK   10  A    between atoms: C_25  and  N_26
REMARK   11  A    between atoms: C_27  and  C_28
REMARK                            x       y       z     vdW  Elec       q    Type
REMARK                         _______ _______ _______ _____ _____    ______ ____
ROOT
ATOM      1  C   UNL     1      -3.890  14.648  22.641  0.00  0.00    +0.000 A 
ATOM      2  C   UNL     1      -2.538  14.518  22.285  0.00  0.00    +0.000 A 
ATOM      3  C   UNL     1      -2.122  13.620  21.295  0.00  0.00    +0.000 A 
ATOM      4  C   UNL     1      -3.074  12.764  20.707  0.00  0.00    +0.000 A 
ATOM      5  C   UNL     1      -4.409  12.753  21.222  0.00  0.00    +0.000 A 
ATOM      6  C   UNL     1      -4.839  13.724  22.157  0.00  0.00    +0.000 A 
ATOM      7  C   UNL     1      -2.719  11.993  19.471  0.00  0.00    +0.000 A 
ATOM      8  C   UNL     1      -3.604  12.122  18.386  0.00  0.00    +0.000 A 
ATOM      9  C   UNL     1      -3.413  11.393  17.215  0.00  0.00    +0.000 A 
ATOM     10  C   UNL     1      -4.175  11.223  16.051  0.00  0.00    +0.000 A 
ATOM     11  C   UNL     1      -3.493  10.336  15.250  0.00  0.00    +0.000 A 
ATOM     12  O   UNL     1      -2.315   9.966  15.855  0.00  0.00    +0.000 OA
ATOM     13  C   UNL     1      -2.278  10.612  17.082  0.00  0.00    +0.000 A 
ATOM     14  C   UNL     1      -1.303  10.519  18.093  0.00  0.00    +0.000 A 
ATOM     15  C   UNL     1      -1.547  11.202  19.328  0.00  0.00    +0.000 A 
ATOM     16  C   UNL     1      -0.638  11.067  20.556  0.00  0.00    +0.000 C 
ATOM     17  C   UNL     1       0.093  12.374  20.943  0.00  0.00    +0.000 C 
ATOM     18  C   UNL     1      -0.698  13.674  20.795  0.00  0.00    +0.000 C 
ENDROOT
BRANCH  16  19
ATOM     19  N   UNL     1       0.326   9.973  20.458  0.00  0.00    +0.000 N 
ATOM     20  C   UNL     1       0.273   8.893  21.311  0.00  0.00    +0.000 C 
ATOM     21  C   UNL     1       1.359   7.875  21.085  0.00  0.00    +0.000 C 
ATOM     22  O   UNL     1      -0.563   8.756  22.196  0.00  0.00    +0.000 OA
ATOM     23  H   UNL     1       1.191  10.140  19.967  0.00  0.00    +0.000 HD
ENDBRANCH  16  19
BRANCH   1  25
ATOM     24  C   UNL     1      -3.692  15.607  24.796  0.00  0.00    +0.000 C 
ATOM     25  O   UNL     1      -4.278  15.648  23.491  0.00  0.00    +0.000 OA
ENDBRANCH   1  25
BRANCH   5  26
ATOM     26  O   UNL     1      -5.182  11.739  20.682  0.00  0.00    +0.000 OA
ATOM     27  C   UNL     1      -6.454  11.994  20.113  0.00  0.00    +0.000 C 
ENDBRANCH   5  26
BRANCH   6  28
ATOM     28  O   UNL     1      -6.164  13.687  22.496  0.00  0.00    +0.000 OA
ATOM     29  C   UNL     1      -6.603  13.084  23.701  0.00  0.00    +0.000 C 
ENDBRANCH   6  28
BRANCH  11  30
ATOM     30  C   UNL     1      -3.949   9.782  13.942  0.00  0.00    +0.000 C 
BRANCH  30  31
ATOM     31  C   UNL     1      -2.950   9.623  12.818  0.00  0.00    +0.000 C 
BRANCH  31  32
ATOM     32  O   UNL     1      -3.578   9.668  11.539  0.00  0.00    +0.000 OA
ATOM     33  H   UNL     1      -4.262  10.363  11.598  0.00  0.00    +0.000 HD
ENDBRANCH  31  32
ENDBRANCH  30  31
ENDBRANCH  11  30
TORSDOF 7
ENDMDL
MODEL 3
REMARK VINA RESULT:      -6.9      7.099     12.097
REMARK  Name = 
REMARK  11 active torsions:
REMARK  status: ('A' for Active; 'I' for Inactive)
REMARK    1  A    between atoms: C_1  and  O_2
REMARK    2  A    between atoms: O_2  and  C_3
REMARK    3  A    between atoms: C_7  and  O_8
REMARK    4  A    between atoms: O_8  and  C_9
REMARK    5  A    between atoms: C_10  and  O_11
REMARK    6  A    between atoms: O_11  and  C_12
REMARK    7  A    between atoms: C_17  and  C_18
REMARK    8  A    between atoms: C_18  and  C_19
REMARK    9  A    between atoms: C_19  and  O_20
REMARK   10  A    between atoms: C_25  and  N_26
REMARK   11  A    between atoms: C_27  and  C_28
REMARK                            x       y       z     vdW  Elec       q    Type
REMARK                         _______ _______ _______ _____ _____    ______ ____
ROOT
ATOM      1  C   UNL     1      -5.183  14.478  21.772  0.00  0.00    +0.000 A 
ATOM      2  C   UNL     1      -3.784  14.477  21.657  0.00  0.00    +0.000 A 
ATOM      3  C   UNL     1      -3.119  13.602  20.789  0.00  0.00    +0.000 A 
ATOM      4  C   UNL     1      -3.868  12.640  20.084  0.00  0.00    +0.000 A 
ATOM      5  C   UNL     1      -5.265  12.505  20.365  0.00  0.00    +0.000 A 
ATOM      6  C   UNL     1      -5.942  13.451  21.173  0.00  0.00    +0.000 A 
ATOM      7  C   UNL     1      -3.233  11.880  18.960  0.00  0.00    +0.000 A 
ATOM      8  C   UNL     1      -3.925  11.892  17.735  0.00  0.00    +0.000 A 
ATOM      9  C   UNL     1      -3.465  11.158  16.645  0.00  0.00    +0.000 A 
ATOM     10  C   UNL     1      -3.994  10.883  15.376  0.00  0.00    +0.000 A 
ATOM     11  C   UNL     1      -3.101  10.050  14.740  0.00  0.00    +0.000 A 
ATOM     12  O   UNL     1      -2.016   9.817  15.552  0.00  0.00    +0.000 OA
ATOM     13  C   UNL     1      -2.254  10.493  16.739  0.00  0.00    +0.000 A 
ATOM     14  C   UNL     1      -1.465  10.525  17.904  0.00  0.00    +0.000 A 
ATOM     15  C   UNL     1      -1.983  11.208  19.050  0.00  0.00    +0.000 A 
ATOM     16  C   UNL     1      -1.291  11.196  20.419  0.00  0.00    +0.000 C 
ATOM     17  C   UNL     1      -0.767  12.580  20.870  0.00  0.00    +0.000 C 
ATOM     18  C   UNL     1      -1.642  13.789  20.537  0.00  0.00    +0.000 C 
ENDROOT
BRANCH  16  19
ATOM     19  N   UNL     1      -0.224  10.204  20.531  0.00  0.00    +0.000 N 
ATOM     20  C   UNL     1      -0.020   9.501  21.697  0.00  0.00    +0.000 C 
ATOM     21  C   UNL     1       1.139   8.541  21.644  0.00  0.00    +0.000 C 
ATOM     22  O   UNL     1      -0.697   9.637  22.710  0.00  0.00    +0.000 OA
ATOM     23  H   UNL     1       0.535  10.240  19.867  0.00  0.00    +0.000 HD
ENDBRANCH  16  19
BRANCH   1  25
ATOM     24  C   UNL     1      -6.155  16.637  21.777  0.00  0.00    +0.000 C 
ATOM     25  O   UNL     1      -5.807  15.453  22.502  0.00  0.00    +0.000 OA
ENDBRANCH   1  25
BRANCH   5  26
ATOM     26  O   UNL     1      -5.831  11.405  19.745  0.00  0.00    +0.000 OA
ATOM     27  C   UNL     1      -6.897  10.683  20.337  0.00  0.00    +0.000 C 
ENDBRANCH   5  26
BRANCH   6  28
ATOM     28  O   UNL     1      -7.295  13.287  21.284  0.00  0.00    +0.000 OA
ATOM     29  C   UNL     1      -7.916  13.091  22.542  0.00  0.00    +0.000 C 
ENDBRANCH   6  28
BRANCH  11  30
ATOM     30  C   UNL     1      -3.270   9.422  13.398  0.00  0.00    +0.000 C 
BRANCH  30  31
ATOM     31  C   UNL     1      -4.351   9.933  12.473  0.00  0.00    +0.000 C 
BRANCH  31  32
ATOM     32  O   UNL     1      -3.935   9.914  11.109  0.00  0.00    +0.000 OA
ATOM     33  H   UNL     1      -2.960   9.848  11.124  0.00  0.00    +0.000 HD
ENDBRANCH  31  32
ENDBRANCH  30  31
ENDBRANCH  11  30
TORSDOF 7
ENDMDL
MODEL 4
REMARK VINA RESULT:      -6.6      6.085     11.121
REMARK  Name = 
REMARK  11 active torsions:
REMARK  status: ('A' for Active; 'I' for Inactive)
REMARK    1  A    between atoms: C_1  and  O_2
REMARK    2  A    between atoms: O_2  and  C_3
REMARK    3  A    between atoms: C_7  and  O_8
REMARK    4  A    between atoms: O_8  and  C_9
REMARK    5  A    between atoms: C_10  and  O_11
REMARK    6  A    between atoms: O_11  and  C_12
REMARK    7  A    between atoms: C_17  and  C_18
REMARK    8  A    between atoms: C_18  and  C_19
REMARK    9  A    between atoms: C_19  and  O_20
REMARK   10  A    between atoms: C_25  and  N_26
REMARK   11  A    between atoms: C_27  and  C_28
REMARK                            x       y       z     vdW  Elec       q    Type
REMARK                         _______ _______ _______ _____ _____    ______ ____
ROOT
ATOM      1  C   UNL     1      -2.312  14.760  22.258  0.00  0.00    +0.000 A 
ATOM      2  C   UNL     1      -1.053  14.344  21.796  0.00  0.00    +0.000 A 
ATOM      3  C   UNL     1      -0.920  13.338  20.833  0.00  0.00    +0.000 A 
ATOM      4  C   UNL     1      -2.073  12.665  20.385  0.00  0.00    +0.000 A 
ATOM      5  C   UNL     1      -3.328  12.946  21.013  0.00  0.00    +0.000 A 
ATOM      6  C   UNL     1      -3.466  14.025  21.918  0.00  0.00    +0.000 A 
ATOM      7  C   UNL     1      -1.999  11.784  19.174  0.00  0.00    +0.000 A 
ATOM      8  C   UNL     1      -2.943  12.039  18.164  0.00  0.00    +0.000 A 
ATOM      9  C   UNL     1      -3.013  11.235  17.029  0.00  0.00    +0.000 A 
ATOM     10  C   UNL     1      -3.903  11.169  15.948  0.00  0.00    +0.000 A 
ATOM     11  C   UNL     1      -3.490  10.128  15.149  0.00  0.00    +0.000 A 
ATOM     12  O   UNL     1      -2.354   9.556  15.673  0.00  0.00    +0.000 OA
ATOM     13  C   UNL     1      -2.072  10.236  16.848  0.00  0.00    +0.000 A 
ATOM     14  C   UNL     1      -1.041   9.995  17.776  0.00  0.00    +0.000 A 
ATOM     15  C   UNL     1      -1.024  10.767  18.981  0.00  0.00    +0.000 A 
ATOM     16  C   UNL     1      -0.045  10.507  20.132  0.00  0.00    +0.000 C 
ATOM     17  C   UNL     1       0.963  11.657  20.371  0.00  0.00    +0.000 C 
ATOM     18  C   UNL     1       0.432  13.082  20.210  0.00  0.00    +0.000 C 
ENDROOT
BRANCH  16  19
ATOM     19  N   UNL     1       0.672   9.238  20.020  0.00  0.00    +0.000 N 
ATOM     20  C   UNL     1       0.995   8.498  21.136  0.00  0.00    +0.000 C 
ATOM     21  C   UNL     1       1.756   7.234  20.838  0.00  0.00    +0.000 C 
ATOM     22  O   UNL     1       0.715   8.825  22.284  0.00  0.00    +0.000 OA
ATOM     23  H   UNL     1       1.179   9.048  19.170  0.00  0.00    +0.000 HD
ENDBRANCH  16  19
BRANCH   1  25
ATOM     24  C   UNL     1      -1.527  16.935  22.764  0.00  0.00    +0.000 C 
ATOM     25  O   UNL     1      -2.412  15.855  23.074  0.00  0.00    +0.000 OA
ENDBRANCH   1  25
BRANCH   5  26
ATOM     26  O   UNL     1      -4.334  12.085  20.607  0.00  0.00    +0.000 OA
ATOM     27  C   UNL     1      -5.524  12.562  20.006  0.00  0.00    +0.000 C 
ENDBRANCH   5  26
BRANCH   6  28
ATOM     28  O   UNL     1      -4.733  14.271  22.372  0.00  0.00    +0.000 OA
ATOM     29  C   UNL     1      -5.442  15.438  21.992  0.00  0.00    +0.000 C 
ENDBRANCH   6  28
BRANCH  11  30
ATOM     30  C   UNL     1      -4.171   9.619  13.924  0.00  0.00    +0.000 C 
BRANCH  30  31
ATOM     31  C   UNL     1      -3.580   9.930  12.567  0.00  0.00    +0.000 C 
BRANCH  31  32
ATOM     32  O   UNL     1      -2.242   9.450  12.448  0.00  0.00    +0.000 OA
ATOM     33  H   UNL     1      -1.737   9.877  13.167  0.00  0.00    +0.000 HD
ENDBRANCH  31  32
ENDBRANCH  30  31
ENDBRANCH  11  30
TORSDOF 7
ENDMDL
MODEL 5
REMARK VINA RESULT:      -6.5      8.986     10.943
REMARK  Name = 
REMARK  11 active torsions:
REMARK  status: ('A' for Active; 'I' for Inactive)
REMARK    1  A    between atoms: C_1  and  O_2
REMARK    2  A    between atoms: O_2  and  C_3
REMARK    3  A    between atoms: C_7  and  O_8
REMARK    4  A    between atoms: O_8  and  C_9
REMARK    5  A    between atoms: C_10  and  O_11
REMARK    6  A    between atoms: O_11  and  C_12
REMARK    7  A    between atoms: C_17  and  C_18
REMARK    8  A    between atoms: C_18  and  C_19
REMARK    9  A    between atoms: C_19  and  O_20
REMARK   10  A    between atoms: C_25  and  N_26
REMARK   11  A    between atoms: C_27  and  C_28
REMARK                            x       y       z     vdW  Elec       q    Type
REMARK                         _______ _______ _______ _____ _____    ______ ____
ROOT
ATOM      1  C   UNL     1      10.637  15.969  18.328  0.00  0.00    +0.000 A 
ATOM      2  C   UNL     1       9.590  16.805  18.747  0.00  0.00    +0.000 A 
ATOM      3  C   UNL     1       8.553  16.332  19.560  0.00  0.00    +0.000 A 
ATOM      4  C   UNL     1       8.513  14.963  19.887  0.00  0.00    +0.000 A 
ATOM      5  C   UNL     1       9.462  14.077  19.283  0.00  0.00    +0.000 A 
ATOM      6  C   UNL     1      10.557  14.577  18.539  0.00  0.00    +0.000 A 
ATOM      7  C   UNL     1       7.584  14.480  20.960  0.00  0.00    +0.000 A 
ATOM      8  C   UNL     1       8.166  13.707  21.980  0.00  0.00    +0.000 A 
ATOM      9  C   UNL     1       7.385  13.144  22.986  0.00  0.00    +0.000 A 
ATOM     10  C   UNL     1       7.657  12.250  24.031  0.00  0.00    +0.000 A 
ATOM     11  C   UNL     1       6.466  12.016  24.680  0.00  0.00    +0.000 A 
ATOM     12  O   UNL     1       5.462  12.754  24.100  0.00  0.00    +0.000 OA
ATOM     13  C   UNL     1       6.034  13.440  23.039  0.00  0.00    +0.000 A 
ATOM     14  C   UNL     1       5.410  14.289  22.105  0.00  0.00    +0.000 A 
ATOM     15  C   UNL     1       6.199  14.794  21.023  0.00  0.00    +0.000 A 
ATOM     16  C   UNL     1       5.612  15.609  19.864  0.00  0.00    +0.000 C 
ATOM     17  C   UNL     1       6.110  17.073  19.810  0.00  0.00    +0.000 C 
ATOM     18  C   UNL     1       7.577  17.314  20.163  0.00  0.00    +0.000 C 
ENDROOT
BRANCH  16  19
ATOM     19  N   UNL     1       4.151  15.582  19.806  0.00  0.00    +0.000 N 
ATOM     20  C   UNL     1       3.485  15.474  18.606  0.00  0.00    +0.000 C 
ATOM     21  C   UNL     1       1.984  15.489  18.730  0.00  0.00    +0.000 C 
ATOM     22  O   UNL     1       4.039  15.388  17.516  0.00  0.00    +0.000 OA
ATOM     23  H   UNL     1       3.634  15.929  20.599  0.00  0.00    +0.000 HD
ENDBRANCH  16  19
BRANCH   1  25
ATOM     24  C   UNL     1      11.865  17.920  17.789  0.00  0.00    +0.000 C 
ATOM     25  O   UNL     1      11.716  16.501  17.675  0.00  0.00    +0.000 OA
ENDBRANCH   1  25
BRANCH   5  26
ATOM     26  O   UNL     1       9.190  12.744  19.544  0.00  0.00    +0.000 OA
ATOM     27  C   UNL     1      10.176  11.873  20.069  0.00  0.00    +0.000 C 
ENDBRANCH   5  26
BRANCH   6  28
ATOM     28  O   UNL     1      11.462  13.648  18.103  0.00  0.00    +0.000 OA
ATOM     29  C   UNL     1      11.509  13.242  16.746  0.00  0.00    +0.000 C 
ENDBRANCH   6  28
BRANCH  11  30
ATOM     30  C   UNL     1       6.238  11.067  25.809  0.00  0.00    +0.000 C 
BRANCH  30  31
ATOM     31  C   UNL     1       4.825  10.808  26.280  0.00  0.00    +0.000 C 
BRANCH  31  32
ATOM     32  O   UNL     1       4.245   9.681  25.627  0.00  0.00    +0.000 OA
ATOM     33  H   UNL     1       3.766   9.183  26.318  0.00  0.00    +0.000 HD
ENDBRANCH  31  32
ENDBRANCH  30  31
ENDBRANCH  11  30
TORSDOF 7
ENDMDL
MODEL 6
REMARK VINA RESULT:      -6.5      8.581     12.613
REMARK  Name = 
REMARK  11 active torsions:
REMARK  status: ('A' for Active; 'I' for Inactive)
REMARK    1  A    between atoms: C_1  and  O_2
REMARK    2  A    between atoms: O_2  and  C_3
REMARK    3  A    between atoms: C_7  and  O_8
REMARK    4  A    between atoms: O_8  and  C_9
REMARK    5  A    between atoms: C_10  and  O_11
REMARK    6  A    between atoms: O_11  and  C_12
REMARK    7  A    between atoms: C_17  and  C_18
REMARK    8  A    between atoms: C_18  and  C_19
REMARK    9  A    between atoms: C_19  and  O_20
REMARK   10  A    between atoms: C_25  and  N_26
REMARK   11  A    between atoms: C_27  and  C_28
REMARK                            x       y       z     vdW  Elec       q    Type
REMARK                         _______ _______ _______ _____ _____    ______ ____
ROOT
ATOM      1  C   UNL     1      -3.280  15.284  24.320  0.00  0.00    +0.000 A 
ATOM      2  C   UNL     1      -2.526  16.059  23.424  0.00  0.00    +0.000 A 
ATOM      3  C   UNL     1      -1.969  15.507  22.264  0.00  0.00    +0.000 A 
ATOM      4  C   UNL     1      -2.092  14.122  22.041  0.00  0.00    +0.000 A 
ATOM      5  C   UNL     1      -2.676  13.303  23.060  0.00  0.00    +0.000 A 
ATOM      6  C   UNL     1      -3.315  13.881  24.183  0.00  0.00    +0.000 A 
ATOM      7  C   UNL     1      -1.749  13.550  20.698  0.00  0.00    +0.000 A 
ATOM      8  C   UNL     1      -2.734  12.746  20.098  0.00  0.00    +0.000 A 
ATOM      9  C   UNL     1      -2.494  12.104  18.886  0.00  0.00    +0.000 A 
ATOM     10  C   UNL     1      -3.215  11.167  18.132  0.00  0.00    +0.000 A 
ATOM     11  C   UNL     1      -2.445  10.856  17.034  0.00  0.00    +0.000 A 
ATOM     12  O   UNL     1      -1.280  11.587  17.055  0.00  0.00    +0.000 OA
ATOM     13  C   UNL     1      -1.308  12.347  18.214  0.00  0.00    +0.000 A 
ATOM     14  C   UNL     1      -0.324  13.221  18.714  0.00  0.00    +0.000 A 
ATOM     15  C   UNL     1      -0.538  13.810  20.001  0.00  0.00    +0.000 A 
ATOM     16  C   UNL     1       0.515  14.663  20.720  0.00  0.00    +0.000 C 
ATOM     17  C   UNL     1       0.108  16.144  20.900  0.00  0.00    +0.000 C 
ATOM     18  C   UNL     1      -1.360  16.420  21.227  0.00  0.00    +0.000 C 
ENDROOT
BRANCH  16  19
ATOM     19  N   UNL     1       1.846  14.586  20.119  0.00  0.00    +0.000 N 
ATOM     20  C   UNL     1       2.978  14.494  20.897  0.00  0.00    +0.000 C 
ATOM     21  C   UNL     1       4.263  14.452  20.114  0.00  0.00    +0.000 C 
ATOM     22  O   UNL     1       2.971  14.465  22.122  0.00  0.00    +0.000 OA
ATOM     23  H   UNL     1       1.957  14.888  19.163  0.00  0.00    +0.000 HD
ENDBRANCH  16  19
BRANCH   1  25
ATOM     24  C   UNL     1      -4.857  16.925  24.973  0.00  0.00    +0.000 C 
ATOM     25  O   UNL     1      -3.945  15.889  25.352  0.00  0.00    +0.000 OA
ENDBRANCH   1  25
BRANCH   5  26
ATOM     26  O   UNL     1      -2.562  11.950  22.789  0.00  0.00    +0.000 OA
ATOM     27  C   UNL     1      -1.435  11.200  23.206  0.00  0.00    +0.000 C 
ENDBRANCH   5  26
BRANCH   6  28
ATOM     28  O   UNL     1      -3.935  13.010  25.036  0.00  0.00    +0.000 OA
ATOM     29  C   UNL     1      -5.193  12.437  24.723  0.00  0.00    +0.000 C 
ENDBRANCH   6  28
BRANCH  11  30
ATOM     30  C   UNL     1      -2.756   9.842  15.986  0.00  0.00    +0.000 C 
BRANCH  30  31
ATOM     31  C   UNL     1      -3.428  10.286  14.706  0.00  0.00    +0.000 C 
BRANCH  31  32
ATOM     32  O   UNL     1      -2.640   9.978  13.558  0.00  0.00    +0.000 OA
ATOM     33  H   UNL     1      -2.589  10.803  13.036  0.00  0.00    +0.000 HD
ENDBRANCH  31  32
ENDBRANCH  30  31
ENDBRANCH  11  30
TORSDOF 7
ENDMDL
MODEL 7
REMARK VINA RESULT:      -6.3      4.377      8.069
REMARK  Name = 
REMARK  11 active torsions:
REMARK  status: ('A' for Active; 'I' for Inactive)
REMARK    1  A    between atoms: C_1  and  O_2
REMARK    2  A    between atoms: O_2  and  C_3
REMARK    3  A    between atoms: C_7  and  O_8
REMARK    4  A    between atoms: O_8  and  C_9
REMARK    5  A    between atoms: C_10  and  O_11
REMARK    6  A    between atoms: O_11  and  C_12
REMARK    7  A    between atoms: C_17  and  C_18
REMARK    8  A    between atoms: C_18  and  C_19
REMARK    9  A    between atoms: C_19  and  O_20
REMARK   10  A    between atoms: C_25  and  N_26
REMARK   11  A    between atoms: C_27  and  C_28
REMARK                            x       y       z     vdW  Elec       q    Type
REMARK                         _______ _______ _______ _____ _____    ______ ____
ROOT
ATOM      1  C   UNL     1       2.255   7.381  19.998  0.00  0.00    +0.000 A 
ATOM      2  C   UNL     1       1.486   7.685  21.133  0.00  0.00    +0.000 A 
ATOM      3  C   UNL     1       0.485   8.663  21.102  0.00  0.00    +0.000 A 
ATOM      4  C   UNL     1       0.308   9.421  19.928  0.00  0.00    +0.000 A 
ATOM      5  C   UNL     1       1.232   9.253  18.848  0.00  0.00    +0.000 A 
ATOM      6  C   UNL     1       2.180   8.203  18.854  0.00  0.00    +0.000 A 
ATOM      7  C   UNL     1      -0.913  10.275  19.770  0.00  0.00    +0.000 A 
ATOM      8  C   UNL     1      -1.655  10.083  18.591  0.00  0.00    +0.000 A 
ATOM      9  C   UNL     1      -2.765  10.874  18.306  0.00  0.00    +0.000 A 
ATOM     10  C   UNL     1      -3.599  10.996  17.185  0.00  0.00    +0.000 A 
ATOM     11  C   UNL     1      -4.510  11.988  17.468  0.00  0.00    +0.000 A 
ATOM     12  O   UNL     1      -4.298  12.472  18.738  0.00  0.00    +0.000 OA
ATOM     13  C   UNL     1      -3.204  11.789  19.247  0.00  0.00    +0.000 A 
ATOM     14  C   UNL     1      -2.564  11.958  20.489  0.00  0.00    +0.000 A 
ATOM     15  C   UNL     1      -1.373  11.205  20.742  0.00  0.00    +0.000 A 
ATOM     16  C   UNL     1      -0.505  11.401  21.990  0.00  0.00    +0.000 C 
ATOM     17  C   UNL     1      -0.479  10.176  22.935  0.00  0.00    +0.000 C 
ATOM     18  C   UNL     1      -0.456   8.797  22.275  0.00  0.00    +0.000 C 
ENDROOT
BRANCH  16  19
ATOM     19  N   UNL     1      -0.831  12.605  22.753  0.00  0.00    +0.000 N 
ATOM     20  C   UNL     1      -0.287  13.827  22.427  0.00  0.00    +0.000 C 
ATOM     21  C   UNL     1      -0.711  14.952  23.334  0.00  0.00    +0.000 C 
ATOM     22  O   UNL     1       0.490  14.009  21.497  0.00  0.00    +0.000 OA
ATOM     23  H   UNL     1      -1.217  12.496  23.678  0.00  0.00    +0.000 HD
ENDBRANCH  16  19
BRANCH   1  25
ATOM     24  C   UNL     1       2.513   5.057  20.368  0.00  0.00    +0.000 C 
ATOM     25  O   UNL     1       3.108   6.310  20.018  0.00  0.00    +0.000 OA
ENDBRANCH   1  25
BRANCH   5  26
ATOM     26  O   UNL     1       1.054  10.188  17.842  0.00  0.00    +0.000 OA
ATOM     27  C   UNL     1       1.798  11.393  17.805  0.00  0.00    +0.000 C 
ENDBRANCH   5  26
BRANCH   6  28
ATOM     28  O   UNL     1       2.937   8.069  17.722  0.00  0.00    +0.000 OA
ATOM     29  C   UNL     1       3.673   6.886  17.460  0.00  0.00    +0.000 C 
ENDBRANCH   6  28
BRANCH  11  30
ATOM     30  C   UNL     1      -5.549  12.532  16.548  0.00  0.00    +0.000 C 
BRANCH  30  31
ATOM     31  C   UNL     1      -6.654  13.398  17.111  0.00  0.00    +0.000 C 
BRANCH  31  32
ATOM     32  O   UNL     1      -6.164  14.314  18.088  0.00  0.00    +0.000 OA
ATOM     33  H   UNL     1      -6.195  15.197  17.671  0.00  0.00    +0.000 HD
ENDBRANCH  31  32
ENDBRANCH  30  31
ENDBRANCH  11  30
TORSDOF 7
ENDMDL
MODEL 8
REMARK VINA RESULT:      -6.3      6.218     11.880
REMARK  Name = 
REMARK  11 active torsions:
REMARK  status: ('A' for Active; 'I' for Inactive)
REMARK    1  A    between atoms: C_1  and  O_2
REMARK    2  A    between atoms: O_2  and  C_3
REMARK    3  A    between atoms: C_7  and  O_8
REMARK    4  A    between atoms: O_8  and  C_9
REMARK    5  A    between atoms: C_10  and  O_11
REMARK    6  A    between atoms: O_11  and  C_12
REMARK    7  A    between atoms: C_17  and  C_18
REMARK    8  A    between atoms: C_18  and  C_19
REMARK    9  A    between atoms: C_19  and  O_20
REMARK   10  A    between atoms: C_25  and  N_26
REMARK   11  A    between atoms: C_27  and  C_28
REMARK                            x       y       z     vdW  Elec       q    Type
REMARK                         _______ _______ _______ _____ _____    ______ ____
ROOT
ATOM      1  C   UNL     1      -4.878  14.100  21.570  0.00  0.00    +0.000 A 
ATOM      2  C   UNL     1      -3.486  13.983  21.428  0.00  0.00    +0.000 A 
ATOM      3  C   UNL     1      -2.913  13.122  20.485  0.00  0.00    +0.000 A 
ATOM      4  C   UNL     1      -3.754  12.287  19.724  0.00  0.00    +0.000 A 
ATOM      5  C   UNL     1      -5.154  12.256  20.020  0.00  0.00    +0.000 A 
ATOM      6  C   UNL     1      -5.733  13.193  20.909  0.00  0.00    +0.000 A 
ATOM      7  C   UNL     1      -3.204  11.562  18.533  0.00  0.00    +0.000 A 
ATOM      8  C   UNL     1      -3.907  11.730  17.326  0.00  0.00    +0.000 A 
ATOM      9  C   UNL     1      -3.528  11.044  16.175  0.00  0.00    +0.000 A 
ATOM     10  C   UNL     1      -4.096  10.915  14.900  0.00  0.00    +0.000 A 
ATOM     11  C   UNL     1      -3.290  10.058  14.186  0.00  0.00    +0.000 A 
ATOM     12  O   UNL     1      -2.220   9.668  14.956  0.00  0.00    +0.000 OA
ATOM     13  C   UNL     1      -2.382  10.269  16.195  0.00  0.00    +0.000 A 
ATOM     14  C   UNL     1      -1.579  10.140  17.344  0.00  0.00    +0.000 A 
ATOM     15  C   UNL     1      -2.019  10.777  18.548  0.00  0.00    +0.000 A 
ATOM     16  C   UNL     1      -1.315  10.598  19.899  0.00  0.00    +0.000 C 
ATOM     17  C   UNL     1      -0.662  11.891  20.443  0.00  0.00    +0.000 C 
ATOM     18  C   UNL     1      -1.428  13.196  20.219  0.00  0.00    +0.000 C 
ENDROOT
BRANCH  16  19
ATOM     19  N   UNL     1      -0.339   9.509  19.916  0.00  0.00    +0.000 N 
ATOM     20  C   UNL     1       0.935   9.682  19.423  0.00  0.00    +0.000 C 
ATOM     21  C   UNL     1       1.796   8.449  19.495  0.00  0.00    +0.000 C 
ATOM     22  O   UNL     1       1.352  10.731  18.947  0.00  0.00    +0.000 OA
ATOM     23  H   UNL     1      -0.679   8.565  20.017  0.00  0.00    +0.000 HD
ENDBRANCH  16  19
BRANCH   1  25
ATOM     24  C   UNL     1      -4.449  15.946  22.988  0.00  0.00    +0.000 C 
ATOM     25  O   UNL     1      -5.403  15.067  22.383  0.00  0.00    +0.000 OA
ENDBRANCH   1  25
BRANCH   5  26
ATOM     26  O   UNL     1      -5.825  11.262  19.329  0.00  0.00    +0.000 OA
ATOM     27  C   UNL     1      -6.936  11.552  18.499  0.00  0.00    +0.000 C 
ENDBRANCH   5  26
BRANCH   6  28
ATOM     28  O   UNL     1      -7.095  13.143  21.033  0.00  0.00    +0.000 OA
ATOM     29  C   UNL     1      -7.716  12.399  22.067  0.00  0.00    +0.000 C 
ENDBRANCH   6  28
BRANCH  11  30
ATOM     30  C   UNL     1      -3.530   9.552  12.803  0.00  0.00    +0.000 C 
BRANCH  30  31
ATOM     31  C   UNL     1      -4.897   9.726  12.180  0.00  0.00    +0.000 C 
BRANCH  31  32
ATOM     32  O   UNL     1      -4.924   9.283  10.825  0.00  0.00    +0.000 OA
ATOM     33  H   UNL     1      -4.262   8.566  10.762  0.00  0.00    +0.000 HD
ENDBRANCH  31  32
ENDBRANCH  30  31
ENDBRANCH  11  30
TORSDOF 7
ENDMDL
MODEL 9
REMARK VINA RESULT:      -6.2      5.211     11.275
REMARK  Name = 
REMARK  11 active torsions:
REMARK  status: ('A' for Active; 'I' for Inactive)
REMARK    1  A    between atoms: C_1  and  O_2
REMARK    2  A    between atoms: O_2  and  C_3
REMARK    3  A    between atoms: C_7  and  O_8
REMARK    4  A    between atoms: O_8  and  C_9
REMARK    5  A    between atoms: C_10  and  O_11
REMARK    6  A    between atoms: O_11  and  C_12
REMARK    7  A    between atoms: C_17  and  C_18
REMARK    8  A    between atoms: C_18  and  C_19
REMARK    9  A    between atoms: C_19  and  O_20
REMARK   10  A    between atoms: C_25  and  N_26
REMARK   11  A    between atoms: C_27  and  C_28
REMARK                            x       y       z     vdW  Elec       q    Type
REMARK                         _______ _______ _______ _____ _____    ______ ____
ROOT
ATOM      1  C   UNL     1      -2.583  14.386  22.655  0.00  0.00    +0.000 A 
ATOM      2  C   UNL     1      -1.304  14.023  22.205  0.00  0.00    +0.000 A 
ATOM      3  C   UNL     1      -1.125  13.107  21.162  0.00  0.00    +0.000 A 
ATOM      4  C   UNL     1      -2.254  12.468  20.614  0.00  0.00    +0.000 A 
ATOM      5  C   UNL     1      -3.534  12.682  21.218  0.00  0.00    +0.000 A 
ATOM      6  C   UNL     1      -3.717  13.675  22.209  0.00  0.00    +0.000 A 
ATOM      7  C   UNL     1      -2.126  11.699  19.334  0.00  0.00    +0.000 A 
ATOM      8  C   UNL     1      -3.035  12.036  18.315  0.00  0.00    +0.000 A 
ATOM      9  C   UNL     1      -3.056  11.334  17.112  0.00  0.00    +0.000 A 
ATOM     10  C   UNL     1      -3.906  11.358  15.998  0.00  0.00    +0.000 A 
ATOM     11  C   UNL     1      -3.452  10.395  15.125  0.00  0.00    +0.000 A 
ATOM     12  O   UNL     1      -2.329   9.789  15.638  0.00  0.00    +0.000 OA
ATOM     13  C   UNL     1      -2.098  10.363  16.878  0.00  0.00    +0.000 A 
ATOM     14  C   UNL     1      -1.098  10.049  17.818  0.00  0.00    +0.000 A 
ATOM     15  C   UNL     1      -1.134  10.711  19.087  0.00  0.00    +0.000 A 
ATOM     16  C   UNL     1      -0.193  10.357  20.245  0.00  0.00    +0.000 C 
ATOM     17  C   UNL     1       0.792  11.489  20.622  0.00  0.00    +0.000 C 
ATOM     18  C   UNL     1       0.251  12.919  20.569  0.00  0.00    +0.000 C 
ENDROOT
BRANCH  16  19
ATOM     19  N   UNL     1       0.542   9.109  20.048  0.00  0.00    +0.000 N 
ATOM     20  C   UNL     1       1.593   9.030  19.163  0.00  0.00    +0.000 C 
ATOM     21  C   UNL     1       2.217   7.662  19.067  0.00  0.00    +0.000 C 
ATOM     22  O   UNL     1       1.996   9.969  18.487  0.00  0.00    +0.000 OA
ATOM     23  H   UNL     1       0.105   8.247  20.336  0.00  0.00    +0.000 HD
ENDBRANCH  16  19
BRANCH   1  25
ATOM     24  C   UNL     1      -2.415  15.066  24.916  0.00  0.00    +0.000 C 
ATOM     25  O   UNL     1      -2.725  15.403  23.561  0.00  0.00    +0.000 OA
ENDBRANCH   1  25
BRANCH   5  26
ATOM     26  O   UNL     1      -4.514  11.852  20.700  0.00  0.00    +0.000 OA
ATOM     27  C   UNL     1      -5.723  12.368  20.171  0.00  0.00    +0.000 C 
ENDBRANCH   5  26
BRANCH   6  28
ATOM     28  O   UNL     1      -5.002  13.869  22.636  0.00  0.00    +0.000 OA
ATOM     29  C   UNL     1      -5.501  13.225  23.795  0.00  0.00    +0.000 C 
ENDBRANCH   6  28
BRANCH  11  30
ATOM     30  C   UNL     1      -4.083   9.992  13.835  0.00  0.00    +0.000 C 
BRANCH  30  31
ATOM     31  C   UNL     1      -3.200   9.631  12.662  0.00  0.00    +0.000 C 
BRANCH  31  32
ATOM     32  O   UNL     1      -3.903   9.708  11.424  0.00  0.00    +0.000 OA
ATOM     33  H   UNL     1      -3.361  10.274  10.841  0.00  0.00    +0.000 HD
ENDBRANCH  31  32
ENDBRANCH  30  31
ENDBRANCH  11  30
TORSDOF 7
ENDMDL
