MODEL 1
REMARK VINA RESULT:      -8.1      0.000      0.000
REMARK  Name = 
REMARK  8 active torsions:
REMARK  status: ('A' for Active; 'I' for Inactive)
REMARK    1  A    between atoms: C_1  and  S_2
REMARK    2  A    between atoms: S_2  and  C_3
REMARK    3  A    between atoms: C_6  and  C_7
REMARK    4  A    between atoms: N_8  and  N_9
REMARK    5  A    between atoms: C_10  and  C_12
REMARK    6  A    between atoms: C_12  and  N_13
REMARK    7  A    between atoms: N_16  and  C_17
REMARK    8  A    between atoms: C_17  and  C_18
REMARK                            x       y       z     vdW  Elec       q    Type
REMARK                         _______ _______ _______ _____ _____    ______ ____
ROOT
ATOM      1  N   UNL     1       8.415   8.008  18.870  0.00  0.00    +0.000 N 
ATOM      2  C   UNL     1       7.929   7.163  17.871  0.00  0.00    +0.000 C 
ATOM      3  O   UNL     1       7.918   7.466  16.670  0.00  0.00    +0.000 OA
ATOM      4  H   UNL     1       8.324   7.757  19.848  0.00  0.00    +0.000 HD
ENDROOT
BRANCH   1   6
ATOM      5  C   UNL     1       9.451  10.062  19.238  0.00  0.00    +0.000 C 
ATOM      6  N   UNL     1       8.787   9.256  18.478  0.00  0.00    +0.000 NA
BRANCH   5  10
ATOM      7  C   UNL     1      10.345  13.995  17.726  0.00  0.00    +0.000 A 
ATOM      8  C   UNL     1       9.271  13.789  18.586  0.00  0.00    +0.000 A 
ATOM      9  C   UNL     1       8.995  12.506  19.071  0.00  0.00    +0.000 A 
ATOM     10  C   UNL     1       9.789  11.408  18.693  0.00  0.00    +0.000 A 
ATOM     11  C   UNL     1      10.856  11.607  17.824  0.00  0.00    +0.000 A 
ATOM     12  C   UNL     1      11.125  12.898  17.331  0.00  0.00    +0.000 A 
BRANCH   7  14
ATOM     13  C   UNL     1       9.741  16.638  18.241  0.00  0.00    +0.000 C 
ATOM     14  S   UNL     1      10.705  15.621  17.086  0.00  0.00    +0.000 S 
ENDBRANCH   7  14
ENDBRANCH   5  10
ENDBRANCH   1   6
BRANCH   2  15
ATOM     15  C   UNL     1       7.415   5.780  18.303  0.00  0.00    +0.000 C 
BRANCH  15  16
ATOM     16  N   UNL     1       6.052   5.804  18.885  0.00  0.00    +0.000 NA
ATOM     17  C   UNL     1       5.132   6.605  18.052  0.00  0.00    +0.000 C 
ATOM     18  C   UNL     1       4.586   5.883  16.797  0.00  0.00    +0.000 C 
ATOM     19  N   UNL     1       3.804   4.673  17.125  0.00  0.00    +0.000 NA
ATOM     20  C   UNL     1       4.694   3.777  17.888  0.00  0.00    +0.000 C 
ATOM     21  C   UNL     1       5.515   4.420  19.052  0.00  0.00    +0.000 C 
BRANCH  19  22
ATOM     22  C   UNL     1       2.571   5.071  17.828  0.00  0.00    +0.000 C 
BRANCH  22  23
ATOM     23  C   UNL     1       2.158   4.223  19.006  0.00  0.00    +0.000 A 
ATOM     24  C   UNL     1       2.412   4.677  20.310  0.00  0.00    +0.000 A 
ATOM     25  C   UNL     1       1.957   3.958  21.413  0.00  0.00    +0.000 A 
ATOM     26  C   UNL     1       1.238   2.780  21.224  0.00  0.00    +0.000 A 
ATOM     27  C   UNL     1       0.979   2.318  19.935  0.00  0.00    +0.000 A 
ATOM     28  C   UNL     1       1.443   3.032  18.828  0.00  0.00    +0.000 A 
ENDBRANCH  22  23
ENDBRANCH  19  22
ENDBRANCH  15  16
ENDBRANCH   2  15
TORSDOF 7
ENDMDL
MODEL 2
REMARK VINA RESULT:      -8.1      0.943      1.282
REMARK  Name = 
REMARK  8 active torsions:
REMARK  status: ('A' for Active; 'I' for Inactive)
REMARK    1  A    between atoms: C_1  and  S_2
REMARK    2  A    between atoms: S_2  and  C_3
REMARK    3  A    between atoms: C_6  and  C_7
REMARK    4  A    between atoms: N_8  and  N_9
REMARK    5  A    between atoms: C_10  and  C_12
REMARK    6  A    between atoms: C_12  and  N_13
REMARK    7  A    between atoms: N_16  and  C_17
REMARK    8  A    between atoms: C_17  and  C_18
REMARK                            x       y       z     vdW  Elec       q    Type
REMARK                         _______ _______ _______ _____ _____    ______ ____
ROOT
ATOM      1  N   UNL     1       8.583   8.265  18.991  0.00  0.00    +0.000 N 
ATOM      2  C   UNL     1       7.951   7.572  17.958  0.00  0.00    +0.000 C 
ATOM      3  O   UNL     1       7.863   8.007  16.801  0.00  0.00    +0.000 OA
ATOM      4  H   UNL     1       8.555   7.913  19.942  0.00  0.00    +0.000 HD
ENDROOT
BRANCH   1   6
ATOM      5  C   UNL     1       9.475  10.331  19.596  0.00  0.00    +0.000 C 
ATOM      6  N   UNL     1       9.016   9.522  18.700  0.00  0.00    +0.000 NA
BRANCH   5  10
ATOM      7  C   UNL     1      10.733  14.277  18.413  0.00  0.00    +0.000 A 
ATOM      8  C   UNL     1      10.498  13.975  19.751  0.00  0.00    +0.000 A 
ATOM      9  C   UNL     1      10.092  12.687  20.120  0.00  0.00    +0.000 A 
ATOM     10  C   UNL     1       9.909  11.685  19.149  0.00  0.00    +0.000 A 
ATOM     11  C   UNL     1      10.131  11.986  17.810  0.00  0.00    +0.000 A 
ATOM     12  C   UNL     1      10.530  13.285  17.442  0.00  0.00    +0.000 A 
BRANCH   7  14
ATOM     13  C   UNL     1      10.866  16.834  19.443  0.00  0.00    +0.000 C 
ATOM     14  S   UNL     1      11.237  15.916  17.921  0.00  0.00    +0.000 S 
ENDBRANCH   7  14
ENDBRANCH   5  10
ENDBRANCH   1   6
BRANCH   2  15
ATOM     15  C   UNL     1       7.370   6.187  18.288  0.00  0.00    +0.000 C 
BRANCH  15  16
ATOM     16  N   UNL     1       5.890   6.160  18.352  0.00  0.00    +0.000 NA
ATOM     17  C   UNL     1       5.301   6.020  17.004  0.00  0.00    +0.000 C 
ATOM     18  C   UNL     1       5.304   4.583  16.432  0.00  0.00    +0.000 C 
ATOM     19  N   UNL     1       4.529   3.634  17.256  0.00  0.00    +0.000 NA
ATOM     20  C   UNL     1       5.121   3.651  18.608  0.00  0.00    +0.000 C 
ATOM     21  C   UNL     1       5.411   5.054  19.234  0.00  0.00    +0.000 C 
BRANCH  19  22
ATOM     22  C   UNL     1       3.102   3.999  17.199  0.00  0.00    +0.000 C 
BRANCH  22  23
ATOM     23  C   UNL     1       2.280   3.719  18.432  0.00  0.00    +0.000 A 
ATOM     24  C   UNL     1       1.960   2.393  18.767  0.00  0.00    +0.000 A 
ATOM     25  C   UNL     1       1.284   2.103  19.950  0.00  0.00    +0.000 A 
ATOM     26  C   UNL     1       0.926   3.134  20.815  0.00  0.00    +0.000 A 
ATOM     27  C   UNL     1       1.238   4.455  20.496  0.00  0.00    +0.000 A 
ATOM     28  C   UNL     1       1.907   4.749  19.305  0.00  0.00    +0.000 A 
ENDBRANCH  22  23
ENDBRANCH  19  22
ENDBRANCH  15  16
ENDBRANCH   2  15
TORSDOF 7
ENDMDL
MODEL 3
REMARK VINA RESULT:      -7.7      1.531      1.883
REMARK  Name = 
REMARK  8 active torsions:
REMARK  status: ('A' for Active; 'I' for Inactive)
REMARK    1  A    between atoms: C_1  and  S_2
REMARK    2  A    between atoms: S_2  and  C_3
REMARK    3  A    between atoms: C_6  and  C_7
REMARK    4  A    between atoms: N_8  and  N_9
REMARK    5  A    between atoms: C_10  and  C_12
REMARK    6  A    between atoms: C_12  and  N_13
REMARK    7  A    between atoms: N_16  and  C_17
REMARK    8  A    between atoms: C_17  and  C_18
REMARK                            x       y       z     vdW  Elec       q    Type
REMARK                         _______ _______ _______ _____ _____    ______ ____
ROOT
ATOM      1  N   UNL     1       7.454   8.942  17.404  0.00  0.00    +0.000 N 
ATOM      2  C   UNL     1       7.823   7.683  17.880  0.00  0.00    +0.000 C 
ATOM      3  O   UNL     1       8.557   7.515  18.863  0.00  0.00    +0.000 OA
ATOM      4  H   UNL     1       6.925   9.035  16.544  0.00  0.00    +0.000 HD
ENDROOT
BRANCH   1   6
ATOM      5  C   UNL     1       9.216  10.436  17.709  0.00  0.00    +0.000 C 
ATOM      6  N   UNL     1       8.035  10.012  18.013  0.00  0.00    +0.000 NA
BRANCH   5  10
ATOM      7  C   UNL     1      10.687  13.906  19.794  0.00  0.00    +0.000 A 
ATOM      8  C   UNL     1       9.983  14.037  18.602  0.00  0.00    +0.000 A 
ATOM      9  C   UNL     1       9.509  12.900  17.937  0.00  0.00    +0.000 A 
ATOM     10  C   UNL     1       9.743  11.613  18.458  0.00  0.00    +0.000 A 
ATOM     11  C   UNL     1      10.457  11.478  19.642  0.00  0.00    +0.000 A 
ATOM     12  C   UNL     1      10.940  12.624  20.303  0.00  0.00    +0.000 A 
BRANCH   7  14
ATOM     13  C   UNL     1      11.862  16.340  19.235  0.00  0.00    +0.000 C 
ATOM     14  S   UNL     1      11.311  15.343  20.649  0.00  0.00    +0.000 S 
ENDBRANCH   7  14
ENDBRANCH   5  10
ENDBRANCH   1   6
BRANCH   2  15
ATOM     15  C   UNL     1       7.253   6.456  17.148  0.00  0.00    +0.000 C 
BRANCH  15  16
ATOM     16  N   UNL     1       5.780   6.329  17.253  0.00  0.00    +0.000 NA
ATOM     17  C   UNL     1       5.222   5.626  16.080  0.00  0.00    +0.000 C 
ATOM     18  C   UNL     1       5.359   4.086  16.110  0.00  0.00    +0.000 C 
ATOM     19  N   UNL     1       4.662   3.469  17.257  0.00  0.00    +0.000 NA
ATOM     20  C   UNL     1       5.235   4.061  18.482  0.00  0.00    +0.000 C 
ATOM     21  C   UNL     1       5.392   5.616  18.507  0.00  0.00    +0.000 C 
BRANCH  19  22
ATOM     22  C   UNL     1       3.209   3.658  17.097  0.00  0.00    +0.000 C 
BRANCH  22  23
ATOM     23  C   UNL     1       2.368   3.540  18.344  0.00  0.00    +0.000 A 
ATOM     24  C   UNL     1       2.098   2.272  18.882  0.00  0.00    +0.000 A 
ATOM     25  C   UNL     1       1.404   2.143  20.083  0.00  0.00    +0.000 A 
ATOM     26  C   UNL     1       0.978   3.281  20.764  0.00  0.00    +0.000 A 
ATOM     27  C   UNL     1       1.240   4.547  20.241  0.00  0.00    +0.000 A 
ATOM     28  C   UNL     1       1.927   4.678  19.032  0.00  0.00    +0.000 A 
ENDBRANCH  22  23
ENDBRANCH  19  22
ENDBRANCH  15  16
ENDBRANCH   2  15
TORSDOF 7
ENDMDL
MODEL 4
REMARK VINA RESULT:      -7.7      0.859      1.512
REMARK  Name = 
REMARK  8 active torsions:
REMARK  status: ('A' for Active; 'I' for Inactive)
REMARK    1  A    between atoms: C_1  and  S_2
REMARK    2  A    between atoms: S_2  and  C_3
REMARK    3  A    between atoms: C_6  and  C_7
REMARK    4  A    between atoms: N_8  and  N_9
REMARK    5  A    between atoms: C_10  and  C_12
REMARK    6  A    between atoms: C_12  and  N_13
REMARK    7  A    between atoms: N_16  and  C_17
REMARK    8  A    between atoms: C_17  and  C_18
REMARK                            x       y       z     vdW  Elec       q    Type
REMARK                         _______ _______ _______ _____ _____    ______ ____
ROOT
ATOM      1  N   UNL     1       8.464   7.585  18.894  0.00  0.00    +0.000 N 
ATOM      2  C   UNL     1       7.915   6.904  17.807  0.00  0.00    +0.000 C 
ATOM      3  O   UNL     1       7.972   7.322  16.643  0.00  0.00    +0.000 OA
ATOM      4  H   UNL     1       8.318   7.252  19.841  0.00  0.00    +0.000 HD
ENDROOT
BRANCH   1   6
ATOM      5  C   UNL     1       8.262   9.823  18.279  0.00  0.00    +0.000 C 
ATOM      6  N   UNL     1       8.986   8.815  18.636  0.00  0.00    +0.000 NA
BRANCH   5  10
ATOM      7  C   UNL     1      10.372  13.503  17.527  0.00  0.00    +0.000 A 
ATOM      8  C   UNL     1      11.063  12.333  17.824  0.00  0.00    +0.000 A 
ATOM      9  C   UNL     1      10.364  11.144  18.063  0.00  0.00    +0.000 A 
ATOM     10  C   UNL     1       8.958  11.115  18.015  0.00  0.00    +0.000 A 
ATOM     11  C   UNL     1       8.263  12.285  17.732  0.00  0.00    +0.000 A 
ATOM     12  C   UNL     1       8.970  13.481  17.501  0.00  0.00    +0.000 A 
BRANCH   7  14
ATOM     13  C   UNL     1      12.328  15.064  18.690  0.00  0.00    +0.000 C 
ATOM     14  S   UNL     1      11.244  15.031  17.233  0.00  0.00    +0.000 S 
ENDBRANCH   7  14
ENDBRANCH   5  10
ENDBRANCH   1   6
BRANCH   2  15
ATOM     15  C   UNL     1       7.235   5.553  18.090  0.00  0.00    +0.000 C 
BRANCH  15  16
ATOM     16  N   UNL     1       5.933   5.674  18.788  0.00  0.00    +0.000 NA
ATOM     17  C   UNL     1       5.010   6.555  18.044  0.00  0.00    +0.000 C 
ATOM     18  C   UNL     1       4.304   5.895  16.835  0.00  0.00    +0.000 C 
ATOM     19  N   UNL     1       3.462   4.745  17.220  0.00  0.00    +0.000 NA
ATOM     20  C   UNL     1       4.341   3.771  17.896  0.00  0.00    +0.000 C 
ATOM     21  C   UNL     1       5.307   4.332  18.989  0.00  0.00    +0.000 C 
BRANCH  19  22
ATOM     22  C   UNL     1       2.328   5.225  18.030  0.00  0.00    +0.000 C 
BRANCH  22  23
ATOM     23  C   UNL     1       1.934   4.379  19.215  0.00  0.00    +0.000 A 
ATOM     24  C   UNL     1       1.266   3.161  19.006  0.00  0.00    +0.000 A 
ATOM     25  C   UNL     1       0.975   2.318  20.076  0.00  0.00    +0.000 A 
ATOM     26  C   UNL     1       1.356   2.680  21.367  0.00  0.00    +0.000 A 
ATOM     27  C   UNL     1       2.020   3.885  21.588  0.00  0.00    +0.000 A 
ATOM     28  C   UNL     1       2.303   4.736  20.518  0.00  0.00    +0.000 A 
ENDBRANCH  22  23
ENDBRANCH  19  22
ENDBRANCH  15  16
ENDBRANCH   2  15
TORSDOF 7
ENDMDL
MODEL 5
REMARK VINA RESULT:      -7.6      1.265      1.417
REMARK  Name = 
REMARK  8 active torsions:
REMARK  status: ('A' for Active; 'I' for Inactive)
REMARK    1  A    between atoms: C_1  and  S_2
REMARK    2  A    between atoms: S_2  and  C_3
REMARK    3  A    between atoms: C_6  and  C_7
REMARK    4  A    between atoms: N_8  and  N_9
REMARK    5  A    between atoms: C_10  and  C_12
REMARK    6  A    between atoms: C_12  and  N_13
REMARK    7  A    between atoms: N_16  and  C_17
REMARK    8  A    between atoms: C_17  and  C_18
REMARK                            x       y       z     vdW  Elec       q    Type
REMARK                         _______ _______ _______ _____ _____    ______ ____
ROOT
ATOM      1  N   UNL     1       8.693   8.590  18.895  0.00  0.00    +0.000 N 
ATOM      2  C   UNL     1       7.804   8.240  17.878  0.00  0.00    +0.000 C 
ATOM      3  O   UNL     1       7.379   9.046  17.039  0.00  0.00    +0.000 OA
ATOM      4  H   UNL     1       8.947   7.920  19.614  0.00  0.00    +0.000 HD
ENDROOT
BRANCH   1   6
ATOM      5  C   UNL     1      10.146  10.396  18.655  0.00  0.00    +0.000 C 
ATOM      6  N   UNL     1       9.000   9.912  19.002  0.00  0.00    +0.000 NA
BRANCH   5  10
ATOM      7  C   UNL     1      10.712  14.647  19.061  0.00  0.00    +0.000 A 
ATOM      8  C   UNL     1      10.138  14.111  17.913  0.00  0.00    +0.000 A 
ATOM      9  C   UNL     1       9.958  12.728  17.797  0.00  0.00    +0.000 A 
ATOM     10  C   UNL     1      10.360  11.861  18.830  0.00  0.00    +0.000 A 
ATOM     11  C   UNL     1      10.946  12.392  19.973  0.00  0.00    +0.000 A 
ATOM     12  C   UNL     1      11.133  13.783  20.082  0.00  0.00    +0.000 A 
BRANCH   7  14
ATOM     13  C   UNL     1      10.834  16.907  17.482  0.00  0.00    +0.000 C 
ATOM     14  S   UNL     1      10.963  16.406  19.222  0.00  0.00    +0.000 S 
ENDBRANCH   7  14
ENDBRANCH   5  10
ENDBRANCH   1   6
BRANCH   2  15
ATOM     15  C   UNL     1       7.369   6.767  17.797  0.00  0.00    +0.000 C 
BRANCH  15  16
ATOM     16  N   UNL     1       5.906   6.568  17.925  0.00  0.00    +0.000 NA
ATOM     17  C   UNL     1       5.303   6.204  16.627  0.00  0.00    +0.000 C 
ATOM     18  C   UNL     1       5.470   4.722  16.217  0.00  0.00    +0.000 C 
ATOM     19  N   UNL     1       4.843   3.787  17.173  0.00  0.00    +0.000 NA
ATOM     20  C   UNL     1       5.466   4.031  18.489  0.00  0.00    +0.000 C 
ATOM     21  C   UNL     1       5.595   5.521  18.944  0.00  0.00    +0.000 C 
BRANCH  19  22
ATOM     22  C   UNL     1       3.381   3.967  17.135  0.00  0.00    +0.000 C 
BRANCH  22  23
ATOM     23  C   UNL     1       2.630   3.691  18.414  0.00  0.00    +0.000 A 
ATOM     24  C   UNL     1       2.082   4.760  19.141  0.00  0.00    +0.000 A 
ATOM     25  C   UNL     1       1.305   4.525  20.273  0.00  0.00    +0.000 A 
ATOM     26  C   UNL     1       1.062   3.217  20.688  0.00  0.00    +0.000 A 
ATOM     27  C   UNL     1       1.600   2.147  19.976  0.00  0.00    +0.000 A 
ATOM     28  C   UNL     1       2.387   2.381  18.846  0.00  0.00    +0.000 A 
ENDBRANCH  22  23
ENDBRANCH  19  22
ENDBRANCH  15  16
ENDBRANCH   2  15
TORSDOF 7
ENDMDL
MODEL 6
REMARK VINA RESULT:      -7.5      1.935      2.414
REMARK  Name = 
REMARK  8 active torsions:
REMARK  status: ('A' for Active; 'I' for Inactive)
REMARK    1  A    between atoms: C_1  and  S_2
REMARK    2  A    between atoms: S_2  and  C_3
REMARK    3  A    between atoms: C_6  and  C_7
REMARK    4  A    between atoms: N_8  and  N_9
REMARK    5  A    between atoms: C_10  and  C_12
REMARK    6  A    between atoms: C_12  and  N_13
REMARK    7  A    between atoms: N_16  and  C_17
REMARK    8  A    between atoms: C_17  and  C_18
REMARK                            x       y       z     vdW  Elec       q    Type
REMARK                         _______ _______ _______ _____ _____    ______ ____
ROOT
ATOM      1  N   UNL     1       7.449   8.708  17.244  0.00  0.00    +0.000 N 
ATOM      2  C   UNL     1       7.721   7.398  17.642  0.00  0.00    +0.000 C 
ATOM      3  O   UNL     1       8.199   7.108  18.748  0.00  0.00    +0.000 OA
ATOM      4  H   UNL     1       7.142   8.907  16.298  0.00  0.00    +0.000 HD
ENDROOT
BRANCH   1   6
ATOM      5  C   UNL     1       8.887  10.423  17.893  0.00  0.00    +0.000 C 
ATOM      6  N   UNL     1       7.841   9.693  18.097  0.00  0.00    +0.000 NA
BRANCH   5  10
ATOM      7  C   UNL     1       9.806  13.509  20.753  0.00  0.00    +0.000 A 
ATOM      8  C   UNL     1       9.453  13.831  19.447  0.00  0.00    +0.000 A 
ATOM      9  C   UNL     1       9.155  12.817  18.529  0.00  0.00    +0.000 A 
ATOM     10  C   UNL     1       9.214  11.463  18.909  0.00  0.00    +0.000 A 
ATOM     11  C   UNL     1       9.579  11.137  20.210  0.00  0.00    +0.000 A 
ATOM     12  C   UNL     1       9.887  12.160  21.128  0.00  0.00    +0.000 A 
BRANCH   7  14
ATOM     13  C   UNL     1       8.909  14.490  23.172  0.00  0.00    +0.000 C 
ATOM     14  S   UNL     1      10.204  14.787  21.934  0.00  0.00    +0.000 S 
ENDBRANCH   7  14
ENDBRANCH   5  10
ENDBRANCH   1   6
BRANCH   2  15
ATOM     15  C   UNL     1       7.372   6.273  16.654  0.00  0.00    +0.000 C 
BRANCH  15  16
ATOM     16  N   UNL     1       7.062   4.979  17.307  0.00  0.00    +0.000 NA
ATOM     17  C   UNL     1       6.022   5.142  18.343  0.00  0.00    +0.000 C 
ATOM     18  C   UNL     1       4.572   5.224  17.812  0.00  0.00    +0.000 C 
ATOM     19  N   UNL     1       4.157   4.008  17.083  0.00  0.00    +0.000 NA
ATOM     20  C   UNL     1       5.105   3.828  15.966  0.00  0.00    +0.000 C 
ATOM     21  C   UNL     1       6.626   3.962  16.303  0.00  0.00    +0.000 C 
BRANCH  19  22
ATOM     22  C   UNL     1       4.088   2.879  18.028  0.00  0.00    +0.000 C 
BRANCH  22  23
ATOM     23  C   UNL     1       3.068   2.983  19.136  0.00  0.00    +0.000 A 
ATOM     24  C   UNL     1       1.716   3.186  18.817  0.00  0.00    +0.000 A 
ATOM     25  C   UNL     1       0.745   3.191  19.816  0.00  0.00    +0.000 A 
ATOM     26  C   UNL     1       1.114   2.987  21.143  0.00  0.00    +0.000 A 
ATOM     27  C   UNL     1       2.453   2.783  21.473  0.00  0.00    +0.000 A 
ATOM     28  C   UNL     1       3.429   2.788  20.475  0.00  0.00    +0.000 A 
ENDBRANCH  22  23
ENDBRANCH  19  22
ENDBRANCH  15  16
ENDBRANCH   2  15
TORSDOF 7
ENDMDL
MODEL 7
REMARK VINA RESULT:      -7.5      0.955      1.909
REMARK  Name = 
REMARK  8 active torsions:
REMARK  status: ('A' for Active; 'I' for Inactive)
REMARK    1  A    between atoms: C_1  and  S_2
REMARK    2  A    between atoms: S_2  and  C_3
REMARK    3  A    between atoms: C_6  and  C_7
REMARK    4  A    between atoms: N_8  and  N_9
REMARK    5  A    between atoms: C_10  and  C_12
REMARK    6  A    between atoms: C_12  and  N_13
REMARK    7  A    between atoms: N_16  and  C_17
REMARK    8  A    between atoms: C_17  and  C_18
REMARK                            x       y       z     vdW  Elec       q    Type
REMARK                         _______ _______ _______ _____ _____    ______ ____
ROOT
ATOM      1  N   UNL     1       8.311   7.889  18.866  0.00  0.00    +0.000 N 
ATOM      2  C   UNL     1       7.863   7.093  17.810  0.00  0.00    +0.000 C 
ATOM      3  O   UNL     1       7.837   7.475  16.633  0.00  0.00    +0.000 OA
ATOM      4  H   UNL     1       8.232   7.568  19.825  0.00  0.00    +0.000 HD
ENDROOT
BRANCH   1   6
ATOM      5  C   UNL     1       9.340   9.927  19.331  0.00  0.00    +0.000 C 
ATOM      6  N   UNL     1       8.626   9.177  18.559  0.00  0.00    +0.000 NA
BRANCH   5  10
ATOM      7  C   UNL     1      10.177  13.923  17.959  0.00  0.00    +0.000 A 
ATOM      8  C   UNL     1      10.794  12.824  17.371  0.00  0.00    +0.000 A 
ATOM      9  C   UNL     1      10.510  11.531  17.826  0.00  0.00    +0.000 A 
ATOM     10  C   UNL     1       9.606  11.324  18.885  0.00  0.00    +0.000 A 
ATOM     11  C   UNL     1       8.997  12.421  19.483  0.00  0.00    +0.000 A 
ATOM     12  C   UNL     1       9.292  13.720  19.028  0.00  0.00    +0.000 A 
BRANCH   7  14
ATOM     13  C   UNL     1      12.333  15.455  17.171  0.00  0.00    +0.000 C 
ATOM     14  S   UNL     1      10.536  15.579  17.402  0.00  0.00    +0.000 S 
ENDBRANCH   7  14
ENDBRANCH   5  10
ENDBRANCH   1   6
BRANCH   2  15
ATOM     15  C   UNL     1       7.412   5.662  18.148  0.00  0.00    +0.000 C 
BRANCH  15  16
ATOM     16  N   UNL     1       6.166   5.250  17.459  0.00  0.00    +0.000 NA
ATOM     17  C   UNL     1       5.256   4.542  18.383  0.00  0.00    +0.000 C 
ATOM     18  C   UNL     1       4.436   5.455  19.325  0.00  0.00    +0.000 C 
ATOM     19  N   UNL     1       3.548   6.383  18.595  0.00  0.00    +0.000 NA
ATOM     20  C   UNL     1       4.404   7.195  17.708  0.00  0.00    +0.000 C 
ATOM     21  C   UNL     1       5.469   6.428  16.860  0.00  0.00    +0.000 C 
BRANCH  19  22
ATOM     22  C   UNL     1       2.499   5.609  17.908  0.00  0.00    +0.000 C 
BRANCH  22  23
ATOM     23  C   UNL     1       1.912   4.443  18.664  0.00  0.00    +0.000 A 
ATOM     24  C   UNL     1       1.869   3.176  18.061  0.00  0.00    +0.000 A 
ATOM     25  C   UNL     1       1.419   2.065  18.772  0.00  0.00    +0.000 A 
ATOM     26  C   UNL     1       1.012   2.209  20.096  0.00  0.00    +0.000 A 
ATOM     27  C   UNL     1       1.050   3.461  20.708  0.00  0.00    +0.000 A 
ATOM     28  C   UNL     1       1.491   4.577  19.993  0.00  0.00    +0.000 A 
ENDBRANCH  22  23
ENDBRANCH  19  22
ENDBRANCH  15  16
ENDBRANCH   2  15
TORSDOF 7
ENDMDL
MODEL 8
REMARK VINA RESULT:      -7.5      1.678      2.405
REMARK  Name = 
REMARK  8 active torsions:
REMARK  status: ('A' for Active; 'I' for Inactive)
REMARK    1  A    between atoms: C_1  and  S_2
REMARK    2  A    between atoms: S_2  and  C_3
REMARK    3  A    between atoms: C_6  and  C_7
REMARK    4  A    between atoms: N_8  and  N_9
REMARK    5  A    between atoms: C_10  and  C_12
REMARK    6  A    between atoms: C_12  and  N_13
REMARK    7  A    between atoms: N_16  and  C_17
REMARK    8  A    between atoms: C_17  and  C_18
REMARK                            x       y       z     vdW  Elec       q    Type
REMARK                         _______ _______ _______ _____ _____    ______ ____
ROOT
ATOM      1  N   UNL     1       7.683   7.529  17.095  0.00  0.00    +0.000 N 
ATOM      2  C   UNL     1       7.541   6.306  17.751  0.00  0.00    +0.000 C 
ATOM      3  O   UNL     1       7.604   6.181  18.981  0.00  0.00    +0.000 OA
ATOM      4  H   UNL     1       7.713   7.573  16.082  0.00  0.00    +0.000 HD
ENDROOT
BRANCH   1   6
ATOM      5  C   UNL     1       8.663   9.618  17.423  0.00  0.00    +0.000 C 
ATOM      6  N   UNL     1       8.013   8.596  17.873  0.00  0.00    +0.000 NA
BRANCH   5  10
ATOM      7  C   UNL     1       9.579  12.719  20.269  0.00  0.00    +0.000 A 
ATOM      8  C   UNL     1       9.631  11.378  20.635  0.00  0.00    +0.000 A 
ATOM      9  C   UNL     1       9.333  10.382  19.698  0.00  0.00    +0.000 A 
ATOM     10  C   UNL     1       8.971  10.719  18.381  0.00  0.00    +0.000 A 
ATOM     11  C   UNL     1       8.906  12.058  18.014  0.00  0.00    +0.000 A 
ATOM     12  C   UNL     1       9.197  13.057  18.962  0.00  0.00    +0.000 A 
BRANCH   7  14
ATOM     13  C   UNL     1      11.050  15.047  20.460  0.00  0.00    +0.000 C 
ATOM     14  S   UNL     1       9.942  14.005  21.452  0.00  0.00    +0.000 S 
ENDBRANCH   7  14
ENDBRANCH   5  10
ENDBRANCH   1   6
BRANCH   2  15
ATOM     15  C   UNL     1       7.260   5.068  16.882  0.00  0.00    +0.000 C 
BRANCH  15  16
ATOM     16  N   UNL     1       5.835   4.911  16.507  0.00  0.00    +0.000 NA
ATOM     17  C   UNL     1       5.079   4.212  17.566  0.00  0.00    +0.000 C 
ATOM     18  C   UNL     1       4.668   5.093  18.769  0.00  0.00    +0.000 C 
ATOM     19  N   UNL     1       3.785   6.213  18.386  0.00  0.00    +0.000 NA
ATOM     20  C   UNL     1       4.515   7.017  17.386  0.00  0.00    +0.000 C 
ATOM     21  C   UNL     1       5.207   6.236  16.222  0.00  0.00    +0.000 C 
BRANCH  19  22
ATOM     22  C   UNL     1       2.493   5.674  17.926  0.00  0.00    +0.000 C 
BRANCH  22  23
ATOM     23  C   UNL     1       1.863   4.601  18.780  0.00  0.00    +0.000 A 
ATOM     24  C   UNL     1       1.467   3.390  18.191  0.00  0.00    +0.000 A 
ATOM     25  C   UNL     1       0.970   2.349  18.973  0.00  0.00    +0.000 A 
ATOM     26  C   UNL     1       0.870   2.506  20.353  0.00  0.00    +0.000 A 
ATOM     27  C   UNL     1       1.261   3.703  20.951  0.00  0.00    +0.000 A 
ATOM     28  C   UNL     1       1.750   4.751  20.168  0.00  0.00    +0.000 A 
ENDBRANCH  22  23
ENDBRANCH  19  22
ENDBRANCH  15  16
ENDBRANCH   2  15
TORSDOF 7
ENDMDL
MODEL 9
REMARK VINA RESULT:      -7.4      1.673      2.214
REMARK  Name = 
REMARK  8 active torsions:
REMARK  status: ('A' for Active; 'I' for Inactive)
REMARK    1  A    between atoms: C_1  and  S_2
REMARK    2  A    between atoms: S_2  and  C_3
REMARK    3  A    between atoms: C_6  and  C_7
REMARK    4  A    between atoms: N_8  and  N_9
REMARK    5  A    between atoms: C_10  and  C_12
REMARK    6  A    between atoms: C_12  and  N_13
REMARK    7  A    between atoms: N_16  and  C_17
REMARK    8  A    between atoms: C_17  and  C_18
REMARK                            x       y       z     vdW  Elec       q    Type
REMARK                         _______ _______ _______ _____ _____    ______ ____
ROOT
ATOM      1  N   UNL     1       7.804   7.375  17.169  0.00  0.00    +0.000 N 
ATOM      2  C   UNL     1       7.572   6.167  17.829  0.00  0.00    +0.000 C 
ATOM      3  O   UNL     1       7.589   6.050  19.062  0.00  0.00    +0.000 OA
ATOM      4  H   UNL     1       7.868   7.407  16.158  0.00  0.00    +0.000 HD
ENDROOT
BRANCH   1   6
ATOM      5  C   UNL     1       8.516   9.573  17.463  0.00  0.00    +0.000 C 
ATOM      6  N   UNL     1       8.168   8.429  17.949  0.00  0.00    +0.000 NA
BRANCH   5  10
ATOM      7  C   UNL     1       9.600  12.747  20.167  0.00  0.00    +0.000 A 
ATOM      8  C   UNL     1       9.141  13.029  18.884  0.00  0.00    +0.000 A 
ATOM      9  C   UNL     1       8.790  11.987  18.018  0.00  0.00    +0.000 A 
ATOM     10  C   UNL     1       8.903  10.645  18.426  0.00  0.00    +0.000 A 
ATOM     11  C   UNL     1       9.374  10.359  19.702  0.00  0.00    +0.000 A 
ATOM     12  C   UNL     1       9.734  11.410  20.567  0.00  0.00    +0.000 A 
BRANCH   7  14
ATOM     13  C   UNL     1      11.213  14.986  20.220  0.00  0.00    +0.000 C 
ATOM     14  S   UNL     1      10.066  14.061  21.280  0.00  0.00    +0.000 S 
ENDBRANCH   7  14
ENDBRANCH   5  10
ENDBRANCH   1   6
BRANCH   2  15
ATOM     15  C   UNL     1       7.250   4.939  16.960  0.00  0.00    +0.000 C 
BRANCH  15  16
ATOM     16  N   UNL     1       5.819   4.825  16.593  0.00  0.00    +0.000 NA
ATOM     17  C   UNL     1       5.038   4.202  17.681  0.00  0.00    +0.000 C 
ATOM     18  C   UNL     1       4.666   5.148  18.847  0.00  0.00    +0.000 C 
ATOM     19  N   UNL     1       3.828   6.287  18.418  0.00  0.00    +0.000 NA
ATOM     20  C   UNL     1       4.588   7.017  17.384  0.00  0.00    +0.000 C 
ATOM     21  C   UNL     1       5.244   6.161  16.253  0.00  0.00    +0.000 C 
BRANCH  19  22
ATOM     22  C   UNL     1       2.514   5.782  17.983  0.00  0.00    +0.000 C 
BRANCH  22  23
ATOM     23  C   UNL     1       1.952   4.607  18.743  0.00  0.00    +0.000 A 
ATOM     24  C   UNL     1       1.723   4.719  20.124  0.00  0.00    +0.000 A 
ATOM     25  C   UNL     1       1.118   3.681  20.830  0.00  0.00    +0.000 A 
ATOM     26  C   UNL     1       0.731   2.522  20.163  0.00  0.00    +0.000 A 
ATOM     27  C   UNL     1       0.952   2.397  18.792  0.00  0.00    +0.000 A 
ATOM     28  C   UNL     1       1.567   3.432  18.084  0.00  0.00    +0.000 A 
ENDBRANCH  22  23
ENDBRANCH  19  22
ENDBRANCH  15  16
ENDBRANCH   2  15
TORSDOF 7
ENDMDL
