MODEL 1
REMARK VINA RESULT:      -7.7      0.000      0.000
REMARK  Name = 
REMARK  5 active torsions:
REMARK  status: ('A' for Active; 'I' for Inactive)
REMARK    1  A    between atoms: C_1  and  N_2
REMARK    2  A    between atoms: C_6  and  C_8
REMARK    3  A    between atoms: C_8  and  S_9
REMARK    4  A    between atoms: S_9  and  C_10
REMARK    5  A    between atoms: C_13  and  C_14
REMARK                            x       y       z     vdW  Elec       q    Type
REMARK                         _______ _______ _______ _____ _____    ______ ____
ROOT
ATOM      1  S   UNL     1       6.946   6.682  17.670  0.00  0.00    +0.000 S 
ENDROOT
BRANCH   1   2
ATOM      2  C   UNL     1       5.241   6.397  17.824  0.00  0.00    +0.000 A 
ATOM      3  N   UNL     1       4.332   7.271  17.448  0.00  0.00    +0.000 NA
ATOM      4  N   UNL     1       3.108   6.759  17.828  0.00  0.00    +0.000 NA
ATOM      5  C   UNL     1       3.350   5.603  18.414  0.00  0.00    +0.000 A 
ATOM      6  O   UNL     1       4.692   5.303  18.442  0.00  0.00    +0.000 OA
BRANCH   5   7
ATOM      7  C   UNL     1       2.419   4.643  18.996  0.00  0.00    +0.000 A 
ATOM      8  C   UNL     1       1.735   3.744  18.160  0.00  0.00    +0.000 A 
ATOM      9  C   UNL     1       0.822   2.826  18.685  0.00  0.00    +0.000 A 
ATOM     10  C   UNL     1       0.577   2.796  20.055  0.00  0.00    +0.000 A 
ATOM     11  C   UNL     1       1.254   3.671  20.901  0.00  0.00    +0.000 A 
ATOM     12  C   UNL     1       2.172   4.587  20.377  0.00  0.00    +0.000 A 
ENDBRANCH   5   7
ENDBRANCH   1   2
BRANCH   1  13
ATOM     13  C   UNL     1       7.594   5.019  17.378  0.00  0.00    +0.000 C 
BRANCH  13  19
ATOM     14  C   UNL     1       6.082   3.281  12.138  0.00  0.00    +0.000 C 
ATOM     15  N   UNL     1       6.452   3.773  13.426  0.00  0.00    +0.000 N 
ATOM     16  C   UNL     1       7.288   4.833  13.600  0.00  0.00    +0.000 C 
ATOM     17  O   UNL     1       7.806   5.459  12.677  0.00  0.00    +0.000 OA
ATOM     18  N   UNL     1       7.543   5.182  14.909  0.00  0.00    +0.000 N 
ATOM     19  C   UNL     1       7.092   4.511  16.039  0.00  0.00    +0.000 C 
ATOM     20  O   UNL     1       6.283   3.581  15.999  0.00  0.00    +0.000 OA
ATOM     21  H   UNL     1       6.081   3.322  14.270  0.00  0.00    +0.000 HD
ATOM     22  H   UNL     1       8.215   5.926  15.002  0.00  0.00    +0.000 HD
ENDBRANCH  13  19
ENDBRANCH   1  13
TORSDOF 4
ENDMDL
MODEL 2
REMARK VINA RESULT:      -7.7      0.386      1.143
REMARK  Name = 
REMARK  5 active torsions:
REMARK  status: ('A' for Active; 'I' for Inactive)
REMARK    1  A    between atoms: C_1  and  N_2
REMARK    2  A    between atoms: C_6  and  C_8
REMARK    3  A    between atoms: C_8  and  S_9
REMARK    4  A    between atoms: S_9  and  C_10
REMARK    5  A    between atoms: C_13  and  C_14
REMARK                            x       y       z     vdW  Elec       q    Type
REMARK                         _______ _______ _______ _____ _____    ______ ____
ROOT
ATOM      1  S   UNL     1       6.468   6.992  17.178  0.00  0.00    +0.000 S 
ENDROOT
BRANCH   1   2
ATOM      2  C   UNL     1       4.813   6.653  17.579  0.00  0.00    +0.000 A 
ATOM      3  N   UNL     1       3.862   7.561  17.525  0.00  0.00    +0.000 NA
ATOM      4  N   UNL     1       2.719   6.970  18.022  0.00  0.00    +0.000 NA
ATOM      5  C   UNL     1       3.047   5.735  18.349  0.00  0.00    +0.000 A 
ATOM      6  O   UNL     1       4.370   5.459  18.088  0.00  0.00    +0.000 OA
BRANCH   5   7
ATOM      7  C   UNL     1       2.223   4.672  18.914  0.00  0.00    +0.000 A 
ATOM      8  C   UNL     1       1.972   4.649  20.296  0.00  0.00    +0.000 A 
ATOM      9  C   UNL     1       1.203   3.633  20.870  0.00  0.00    +0.000 A 
ATOM     10  C   UNL     1       0.676   2.623  20.069  0.00  0.00    +0.000 A 
ATOM     11  C   UNL     1       0.905   2.637  18.696  0.00  0.00    +0.000 A 
ATOM     12  C   UNL     1       1.670   3.656  18.120  0.00  0.00    +0.000 A 
ENDBRANCH   5   7
ENDBRANCH   1   2
BRANCH   1  13
ATOM     13  C   UNL     1       7.203   5.340  17.130  0.00  0.00    +0.000 C 
BRANCH  13  19
ATOM     14  C   UNL     1       6.201   2.956  12.023  0.00  0.00    +0.000 C 
ATOM     15  N   UNL     1       6.444   3.606  13.271  0.00  0.00    +0.000 N 
ATOM     16  C   UNL     1       7.227   4.713  13.388  0.00  0.00    +0.000 C 
ATOM     17  O   UNL     1       7.802   5.252  12.443  0.00  0.00    +0.000 OA
ATOM     18  N   UNL     1       7.358   5.219  14.663  0.00  0.00    +0.000 N 
ATOM     19  C   UNL     1       6.834   4.663  15.823  0.00  0.00    +0.000 C 
ATOM     20  O   UNL     1       6.061   3.701  15.826  0.00  0.00    +0.000 OA
ATOM     21  H   UNL     1       6.017   3.239  14.128  0.00  0.00    +0.000 HD
ATOM     22  H   UNL     1       7.995   5.997  14.723  0.00  0.00    +0.000 HD
ENDBRANCH  13  19
ENDBRANCH   1  13
TORSDOF 4
ENDMDL
MODEL 3
REMARK VINA RESULT:      -7.6      4.421      6.842
REMARK  Name = 
REMARK  5 active torsions:
REMARK  status: ('A' for Active; 'I' for Inactive)
REMARK    1  A    between atoms: C_1  and  N_2
REMARK    2  A    between atoms: C_6  and  C_8
REMARK    3  A    between atoms: C_8  and  S_9
REMARK    4  A    between atoms: S_9  and  C_10
REMARK    5  A    between atoms: C_13  and  C_14
REMARK                            x       y       z     vdW  Elec       q    Type
REMARK                         _______ _______ _______ _____ _____    ______ ____
ROOT
ATOM      1  S   UNL     1       7.640   5.474  18.347  0.00  0.00    +0.000 S 
ENDROOT
BRANCH   1   2
ATOM      2  C   UNL     1       7.800   7.194  18.173  0.00  0.00    +0.000 A 
ATOM      3  N   UNL     1       7.165   7.883  17.249  0.00  0.00    +0.000 NA
ATOM      4  N   UNL     1       7.623   9.182  17.337  0.00  0.00    +0.000 NA
ATOM      5  C   UNL     1       8.511   9.201  18.311  0.00  0.00    +0.000 A 
ATOM      6  O   UNL     1       8.672   7.967  18.896  0.00  0.00    +0.000 OA
BRANCH   5   7
ATOM      7  C   UNL     1       9.297  10.315  18.830  0.00  0.00    +0.000 A 
ATOM      8  C   UNL     1      10.037  11.116  17.943  0.00  0.00    +0.000 A 
ATOM      9  C   UNL     1      10.816  12.177  18.410  0.00  0.00    +0.000 A 
ATOM     10  C   UNL     1      10.870  12.451  19.774  0.00  0.00    +0.000 A 
ATOM     11  C   UNL     1      10.134  11.676  20.667  0.00  0.00    +0.000 A 
ATOM     12  C   UNL     1       9.350  10.617  20.199  0.00  0.00    +0.000 A 
ENDBRANCH   5   7
ENDBRANCH   1   2
BRANCH   1  13
ATOM     13  C   UNL     1       5.933   5.187  17.826  0.00  0.00    +0.000 C 
BRANCH  13  19
ATOM     14  C   UNL     1       6.329   3.493  12.372  0.00  0.00    +0.000 C 
ATOM     15  N   UNL     1       6.237   3.974  13.714  0.00  0.00    +0.000 N 
ATOM     16  C   UNL     1       7.051   4.947  14.208  0.00  0.00    +0.000 C 
ATOM     17  O   UNL     1       7.939   5.495  13.558  0.00  0.00    +0.000 OA
ATOM     18  N   UNL     1       6.829   5.298  15.522  0.00  0.00    +0.000 N 
ATOM     19  C   UNL     1       5.921   4.703  16.387  0.00  0.00    +0.000 C 
ATOM     20  O   UNL     1       5.094   3.859  16.030  0.00  0.00    +0.000 OA
ATOM     21  H   UNL     1       5.532   3.583  14.348  0.00  0.00    +0.000 HD
ATOM     22  H   UNL     1       7.490   5.972  15.874  0.00  0.00    +0.000 HD
ENDBRANCH  13  19
ENDBRANCH   1  13
TORSDOF 4
ENDMDL
MODEL 4
REMARK VINA RESULT:      -7.3      2.033      2.298
REMARK  Name = 
REMARK  5 active torsions:
REMARK  status: ('A' for Active; 'I' for Inactive)
REMARK    1  A    between atoms: C_1  and  N_2
REMARK    2  A    between atoms: C_6  and  C_8
REMARK    3  A    between atoms: C_8  and  S_9
REMARK    4  A    between atoms: S_9  and  C_10
REMARK    5  A    between atoms: C_13  and  C_14
REMARK                            x       y       z     vdW  Elec       q    Type
REMARK                         _______ _______ _______ _____ _____    ______ ____
ROOT
ATOM      1  S   UNL     1       6.706   5.764  16.243  0.00  0.00    +0.000 S 
ENDROOT
BRANCH   1   2
ATOM      2  C   UNL     1       5.886   5.028  17.584  0.00  0.00    +0.000 A 
ATOM      3  N   UNL     1       6.519   4.475  18.596  0.00  0.00    +0.000 NA
ATOM      4  N   UNL     1       5.557   3.895  19.398  0.00  0.00    +0.000 NA
ATOM      5  C   UNL     1       4.396   4.133  18.822  0.00  0.00    +0.000 A 
ATOM      6  O   UNL     1       4.527   4.858  17.661  0.00  0.00    +0.000 OA
BRANCH   5   7
ATOM      7  C   UNL     1       3.052   3.753  19.247  0.00  0.00    +0.000 A 
ATOM      8  C   UNL     1       2.291   2.885  18.446  0.00  0.00    +0.000 A 
ATOM      9  C   UNL     1       0.994   2.518  18.815  0.00  0.00    +0.000 A 
ATOM     10  C   UNL     1       0.438   3.019  19.989  0.00  0.00    +0.000 A 
ATOM     11  C   UNL     1       1.182   3.871  20.801  0.00  0.00    +0.000 A 
ATOM     12  C   UNL     1       2.482   4.234  20.435  0.00  0.00    +0.000 A 
ENDBRANCH   5   7
ENDBRANCH   1   2
BRANCH   1  13
ATOM     13  C   UNL     1       7.197   4.333  15.253  0.00  0.00    +0.000 C 
BRANCH  13  19
ATOM     14  C   UNL     1       3.627   3.178  10.930  0.00  0.00    +0.000 C 
ATOM     15  N   UNL     1       4.564   3.465  11.969  0.00  0.00    +0.000 N 
ATOM     16  C   UNL     1       5.770   2.844  12.068  0.00  0.00    +0.000 C 
ATOM     17  O   UNL     1       6.164   1.978  11.288  0.00  0.00    +0.000 OA
ATOM     18  N   UNL     1       6.558   3.238  13.127  0.00  0.00    +0.000 N 
ATOM     19  C   UNL     1       6.202   4.138  14.123  0.00  0.00    +0.000 C 
ATOM     20  O   UNL     1       5.163   4.803  14.098  0.00  0.00    +0.000 OA
ATOM     21  H   UNL     1       4.337   4.169  12.679  0.00  0.00    +0.000 HD
ATOM     22  H   UNL     1       7.414   2.713  13.209  0.00  0.00    +0.000 HD
ENDBRANCH  13  19
ENDBRANCH   1  13
TORSDOF 4
ENDMDL
MODEL 5
REMARK VINA RESULT:      -7.3      2.044      2.549
REMARK  Name = 
REMARK  5 active torsions:
REMARK  status: ('A' for Active; 'I' for Inactive)
REMARK    1  A    between atoms: C_1  and  N_2
REMARK    2  A    between atoms: C_6  and  C_8
REMARK    3  A    between atoms: C_8  and  S_9
REMARK    4  A    between atoms: S_9  and  C_10
REMARK    5  A    between atoms: C_13  and  C_14
REMARK                            x       y       z     vdW  Elec       q    Type
REMARK                         _______ _______ _______ _____ _____    ______ ____
ROOT
ATOM      1  S   UNL     1       6.758   5.747  16.182  0.00  0.00    +0.000 S 
ENDROOT
BRANCH   1   2
ATOM      2  C   UNL     1       5.897   5.050  17.518  0.00  0.00    +0.000 A 
ATOM      3  N   UNL     1       6.493   4.617  18.608  0.00  0.00    +0.000 NA
ATOM      4  N   UNL     1       5.519   4.028  19.388  0.00  0.00    +0.000 NA
ATOM      5  C   UNL     1       4.387   4.140  18.721  0.00  0.00    +0.000 A 
ATOM      6  O   UNL     1       4.550   4.789  17.519  0.00  0.00    +0.000 OA
BRANCH   5   7
ATOM      7  C   UNL     1       3.046   3.696  19.085  0.00  0.00    +0.000 A 
ATOM      8  C   UNL     1       2.452   4.176  20.264  0.00  0.00    +0.000 A 
ATOM      9  C   UNL     1       1.177   3.754  20.651  0.00  0.00    +0.000 A 
ATOM     10  C   UNL     1       0.479   2.842  19.864  0.00  0.00    +0.000 A 
ATOM     11  C   UNL     1       1.047   2.364  18.686  0.00  0.00    +0.000 A 
ATOM     12  C   UNL     1       2.321   2.790  18.296  0.00  0.00    +0.000 A 
ENDBRANCH   5   7
ENDBRANCH   1   2
BRANCH   1  13
ATOM     13  C   UNL     1       7.192   4.293  15.198  0.00  0.00    +0.000 C 
BRANCH  13  19
ATOM     14  C   UNL     1       3.523   3.198  10.943  0.00  0.00    +0.000 C 
ATOM     15  N   UNL     1       4.485   3.469  11.964  0.00  0.00    +0.000 N 
ATOM     16  C   UNL     1       5.676   2.818  12.048  0.00  0.00    +0.000 C 
ATOM     17  O   UNL     1       6.035   1.937  11.268  0.00  0.00    +0.000 OA
ATOM     18  N   UNL     1       6.492   3.200  13.091  0.00  0.00    +0.000 N 
ATOM     19  C   UNL     1       6.175   4.116  14.086  0.00  0.00    +0.000 C 
ATOM     20  O   UNL     1       5.153   4.807  14.073  0.00  0.00    +0.000 OA
ATOM     21  H   UNL     1       4.287   4.184  12.672  0.00  0.00    +0.000 HD
ATOM     22  H   UNL     1       7.335   2.653  13.163  0.00  0.00    +0.000 HD
ENDBRANCH  13  19
ENDBRANCH   1  13
TORSDOF 4
ENDMDL
MODEL 6
REMARK VINA RESULT:      -7.3      4.601      7.804
REMARK  Name = 
REMARK  5 active torsions:
REMARK  status: ('A' for Active; 'I' for Inactive)
REMARK    1  A    between atoms: C_1  and  N_2
REMARK    2  A    between atoms: C_6  and  C_8
REMARK    3  A    between atoms: C_8  and  S_9
REMARK    4  A    between atoms: S_9  and  C_10
REMARK    5  A    between atoms: C_13  and  C_14
REMARK                            x       y       z     vdW  Elec       q    Type
REMARK                         _______ _______ _______ _____ _____    ______ ____
ROOT
ATOM      1  S   UNL     1       7.647   5.267  18.250  0.00  0.00    +0.000 S 
ENDROOT
BRANCH   1   2
ATOM      2  C   UNL     1       7.737   6.993  18.093  0.00  0.00    +0.000 A 
ATOM      3  N   UNL     1       7.058   7.668  17.190  0.00  0.00    +0.000 NA
ATOM      4  N   UNL     1       7.468   8.982  17.285  0.00  0.00    +0.000 NA
ATOM      5  C   UNL     1       8.373   9.025  18.242  0.00  0.00    +0.000 A 
ATOM      6  O   UNL     1       8.593   7.791  18.810  0.00  0.00    +0.000 OA
BRANCH   5   7
ATOM      7  C   UNL     1       9.127  10.162  18.760  0.00  0.00    +0.000 A 
ATOM      8  C   UNL     1       9.755  11.044  17.864  0.00  0.00    +0.000 A 
ATOM      9  C   UNL     1      10.501  12.130  18.328  0.00  0.00    +0.000 A 
ATOM     10  C   UNL     1      10.631  12.349  19.697  0.00  0.00    +0.000 A 
ATOM     11  C   UNL     1      10.006  11.493  20.600  0.00  0.00    +0.000 A 
ATOM     12  C   UNL     1       9.255  10.408  20.135  0.00  0.00    +0.000 A 
ENDBRANCH   5   7
ENDBRANCH   1   2
BRANCH   1  13
ATOM     13  C   UNL     1       6.084   4.882  17.425  0.00  0.00    +0.000 C 
BRANCH  13  19
ATOM     14  C   UNL     1       2.319   2.775  21.187  0.00  0.00    +0.000 C 
ATOM     15  N   UNL     1       3.221   3.283  20.203  0.00  0.00    +0.000 N 
ATOM     16  C   UNL     1       3.525   2.608  19.061  0.00  0.00    +0.000 C 
ATOM     17  O   UNL     1       3.064   1.505  18.770  0.00  0.00    +0.000 OA
ATOM     18  N   UNL     1       4.411   3.238  18.214  0.00  0.00    +0.000 N 
ATOM     19  C   UNL     1       5.066   4.439  18.459  0.00  0.00    +0.000 C 
ATOM     20  O   UNL     1       4.820   5.161  19.429  0.00  0.00    +0.000 OA
ATOM     21  H   UNL     1       3.669   4.195  20.344  0.00  0.00    +0.000 HD
ATOM     22  H   UNL     1       4.664   2.684  17.412  0.00  0.00    +0.000 HD
ENDBRANCH  13  19
ENDBRANCH   1  13
TORSDOF 4
ENDMDL
MODEL 7
REMARK VINA RESULT:      -7.3      4.629      7.716
REMARK  Name = 
REMARK  5 active torsions:
REMARK  status: ('A' for Active; 'I' for Inactive)
REMARK    1  A    between atoms: C_1  and  N_2
REMARK    2  A    between atoms: C_6  and  C_8
REMARK    3  A    between atoms: C_8  and  S_9
REMARK    4  A    between atoms: S_9  and  C_10
REMARK    5  A    between atoms: C_13  and  C_14
REMARK                            x       y       z     vdW  Elec       q    Type
REMARK                         _______ _______ _______ _____ _____    ______ ____
ROOT
ATOM      1  S   UNL     1       7.648   5.401  18.511  0.00  0.00    +0.000 S 
ENDROOT
BRANCH   1   2
ATOM      2  C   UNL     1       7.812   7.108  18.239  0.00  0.00    +0.000 A 
ATOM      3  N   UNL     1       7.214   7.737  17.250  0.00  0.00    +0.000 NA
ATOM      4  N   UNL     1       7.666   9.040  17.277  0.00  0.00    +0.000 NA
ATOM      5  C   UNL     1       8.514   9.122  18.283  0.00  0.00    +0.000 A 
ATOM      6  O   UNL     1       8.653   7.926  18.949  0.00  0.00    +0.000 OA
BRANCH   5   7
ATOM      7  C   UNL     1       9.277  10.269  18.764  0.00  0.00    +0.000 A 
ATOM      8  C   UNL     1       9.344  10.529  20.144  0.00  0.00    +0.000 A 
ATOM      9  C   UNL     1      10.050  11.630  20.635  0.00  0.00    +0.000 A 
ATOM     10  C   UNL     1      10.697  12.490  19.752  0.00  0.00    +0.000 A 
ATOM     11  C   UNL     1      10.652  12.242  18.383  0.00  0.00    +0.000 A 
ATOM     12  C   UNL     1       9.950  11.137  17.891  0.00  0.00    +0.000 A 
ENDBRANCH   5   7
ENDBRANCH   1   2
BRANCH   1  13
ATOM     13  C   UNL     1       6.368   4.938  17.321  0.00  0.00    +0.000 C 
BRANCH  13  19
ATOM     14  C   UNL     1       1.901   2.224  19.655  0.00  0.00    +0.000 C 
ATOM     15  N   UNL     1       2.976   2.944  19.051  0.00  0.00    +0.000 N 
ATOM     16  C   UNL     1       2.896   3.486  17.805  0.00  0.00    +0.000 C 
ATOM     17  O   UNL     1       1.904   3.404  17.083  0.00  0.00    +0.000 OA
ATOM     18  N   UNL     1       4.022   4.151  17.371  0.00  0.00    +0.000 N 
ATOM     19  C   UNL     1       5.230   4.246  18.049  0.00  0.00    +0.000 C 
ATOM     20  O   UNL     1       5.394   3.847  19.205  0.00  0.00    +0.000 OA
ATOM     21  H   UNL     1       3.856   3.070  19.564  0.00  0.00    +0.000 HD
ATOM     22  H   UNL     1       3.952   4.483  16.423  0.00  0.00    +0.000 HD
ENDBRANCH  13  19
ENDBRANCH   1  13
TORSDOF 4
ENDMDL
MODEL 8
REMARK VINA RESULT:      -7.1      1.726      6.726
REMARK  Name = 
REMARK  5 active torsions:
REMARK  status: ('A' for Active; 'I' for Inactive)
REMARK    1  A    between atoms: C_1  and  N_2
REMARK    2  A    between atoms: C_6  and  C_8
REMARK    3  A    between atoms: C_8  and  S_9
REMARK    4  A    between atoms: S_9  and  C_10
REMARK    5  A    between atoms: C_13  and  C_14
REMARK                            x       y       z     vdW  Elec       q    Type
REMARK                         _______ _______ _______ _____ _____    ______ ____
ROOT
ATOM      1  S   UNL     1       6.952   4.849  17.649  0.00  0.00    +0.000 S 
ENDROOT
BRANCH   1   2
ATOM      2  C   UNL     1       7.009   4.771  15.916  0.00  0.00    +0.000 A 
ATOM      3  N   UNL     1       7.594   5.688  15.175  0.00  0.00    +0.000 NA
ATOM      4  N   UNL     1       7.338   5.360  13.860  0.00  0.00    +0.000 NA
ATOM      5  C   UNL     1       6.611   4.261  13.882  0.00  0.00    +0.000 A 
ATOM      6  O   UNL     1       6.365   3.822  15.163  0.00  0.00    +0.000 OA
BRANCH   5   7
ATOM      7  C   UNL     1       6.069   3.482  12.774  0.00  0.00    +0.000 A 
ATOM      8  C   UNL     1       4.770   3.747  12.308  0.00  0.00    +0.000 A 
ATOM      9  C   UNL     1       4.215   3.005  11.263  0.00  0.00    +0.000 A 
ATOM     10  C   UNL     1       4.951   1.983  10.669  0.00  0.00    +0.000 A 
ATOM     11  C   UNL     1       6.244   1.713  11.109  0.00  0.00    +0.000 A 
ATOM     12  C   UNL     1       6.802   2.459  12.153  0.00  0.00    +0.000 A 
ENDBRANCH   5   7
ENDBRANCH   1   2
BRANCH   1  13
ATOM     13  C   UNL     1       5.603   6.017  17.942  0.00  0.00    +0.000 C 
BRANCH  13  19
ATOM     14  C   UNL     1       1.162   2.916  19.792  0.00  0.00    +0.000 C 
ATOM     15  N   UNL     1       2.238   3.704  19.280  0.00  0.00    +0.000 N 
ATOM     16  C   UNL     1       2.617   3.677  17.973  0.00  0.00    +0.000 C 
ATOM     17  O   UNL     1       2.082   2.975  17.116  0.00  0.00    +0.000 OA
ATOM     18  N   UNL     1       3.672   4.500  17.642  0.00  0.00    +0.000 N 
ATOM     19  C   UNL     1       4.413   5.276  18.523  0.00  0.00    +0.000 C 
ATOM     20  O   UNL     1       4.120   5.422  19.713  0.00  0.00    +0.000 OA
ATOM     21  H   UNL     1       2.758   4.324  19.909  0.00  0.00    +0.000 HD
ATOM     22  H   UNL     1       3.968   4.407  16.684  0.00  0.00    +0.000 HD
ENDBRANCH  13  19
ENDBRANCH   1  13
TORSDOF 4
ENDMDL
MODEL 9
REMARK VINA RESULT:      -7.0      2.106      6.923
REMARK  Name = 
REMARK  5 active torsions:
REMARK  status: ('A' for Active; 'I' for Inactive)
REMARK    1  A    between atoms: C_1  and  N_2
REMARK    2  A    between atoms: C_6  and  C_8
REMARK    3  A    between atoms: C_8  and  S_9
REMARK    4  A    between atoms: S_9  and  C_10
REMARK    5  A    between atoms: C_13  and  C_14
REMARK                            x       y       z     vdW  Elec       q    Type
REMARK                         _______ _______ _______ _____ _____    ______ ____
ROOT
ATOM      1  S   UNL     1       6.976   4.782  17.849  0.00  0.00    +0.000 S 
ENDROOT
BRANCH   1   2
ATOM      2  C   UNL     1       7.014   4.767  16.114  0.00  0.00    +0.000 A 
ATOM      3  N   UNL     1       7.601   5.704  15.401  0.00  0.00    +0.000 NA
ATOM      4  N   UNL     1       7.328   5.427  14.077  0.00  0.00    +0.000 NA
ATOM      5  C   UNL     1       6.589   4.335  14.068  0.00  0.00    +0.000 A 
ATOM      6  O   UNL     1       6.352   3.852  15.334  0.00  0.00    +0.000 OA
BRANCH   5   7
ATOM      7  C   UNL     1       6.027   3.602  12.938  0.00  0.00    +0.000 A 
ATOM      8  C   UNL     1       4.713   3.872  12.520  0.00  0.00    +0.000 A 
ATOM      9  C   UNL     1       4.139   3.173  11.455  0.00  0.00    +0.000 A 
ATOM     10  C   UNL     1       4.872   2.191  10.793  0.00  0.00    +0.000 A 
ATOM     11  C   UNL     1       6.180   1.919  11.186  0.00  0.00    +0.000 A 
ATOM     12  C   UNL     1       6.756   2.621  12.249  0.00  0.00    +0.000 A 
ENDBRANCH   5   7
ENDBRANCH   1   2
BRANCH   1  13
ATOM     13  C   UNL     1       5.616   5.922  18.199  0.00  0.00    +0.000 C 
BRANCH  13  19
ATOM     14  C   UNL     1       1.960   2.914  21.416  0.00  0.00    +0.000 C 
ATOM     15  N   UNL     1       2.874   3.618  20.574  0.00  0.00    +0.000 N 
ATOM     16  C   UNL     1       3.947   3.021  19.987  0.00  0.00    +0.000 C 
ATOM     17  O   UNL     1       4.237   1.835  20.129  0.00  0.00    +0.000 OA
ATOM     18  N   UNL     1       4.729   3.841  19.202  0.00  0.00    +0.000 N 
ATOM     19  C   UNL     1       4.562   5.209  19.025  0.00  0.00    +0.000 C 
ATOM     20  O   UNL     1       3.592   5.836  19.457  0.00  0.00    +0.000 OA
ATOM     21  H   UNL     1       2.730   4.616  20.389  0.00  0.00    +0.000 HD
ATOM     22  H   UNL     1       5.549   3.384  18.837  0.00  0.00    +0.000 HD
ENDBRANCH  13  19
ENDBRANCH   1  13
TORSDOF 4
ENDMDL
