MODEL 1
REMARK VINA RESULT:      -9.1      0.000      0.000
REMARK  Name = 
REMARK  4 active torsions:
REMARK  status: ('A' for Active; 'I' for Inactive)
REMARK    1  A    between atoms: C_6  and  O_7
REMARK    2  A    between atoms: C_16  and  O_17
REMARK    3  A    between atoms: C_18  and  C_19
REMARK    4  A    between atoms: C_19  and  N_20
REMARK                            x       y       z     vdW  Elec       q    Type
REMARK                         _______ _______ _______ _____ _____    ______ ____
ROOT
ATOM      1  O   UNL     1       3.774   7.385  17.439  0.00  0.00    +0.000 OA
ATOM      2  C   UNL     1       2.801   7.501  18.169  0.00  0.00    +0.000 A 
ATOM      3  N   UNL     1       1.995   8.610  18.030  0.00  0.00    +0.000 N 
ATOM      4  C   UNL     1       1.335   9.202  19.130  0.00  0.00    +0.000 A 
ATOM      5  C   UNL     1       1.024  10.550  19.017  0.00  0.00    +0.000 A 
ATOM      6  C   UNL     1       0.661  11.231  20.161  0.00  0.00    +0.000 A 
ATOM      7  C   UNL     1       0.494  10.556  21.374  0.00  0.00    +0.000 A 
ATOM      8  C   UNL     1       0.720   9.169  21.465  0.00  0.00    +0.000 A 
ATOM      9  C   UNL     1       1.173   8.479  20.340  0.00  0.00    +0.000 A 
ATOM     10  C   UNL     1       1.664   7.102  20.269  0.00  0.00    +0.000 A 
ATOM     11  O   UNL     1       1.445   6.161  21.221  0.00  0.00    +0.000 OA
ATOM     12  C   UNL     1       2.079   5.025  20.761  0.00  0.00    +0.000 A 
ATOM     13  C   UNL     1       2.117   3.794  21.432  0.00  0.00    +0.000 A 
ATOM     14  C   UNL     1       2.828   2.764  20.812  0.00  0.00    +0.000 A 
ATOM     15  C   UNL     1       3.444   2.955  19.574  0.00  0.00    +0.000 A 
ATOM     16  C   UNL     1       3.397   4.185  18.875  0.00  0.00    +0.000 A 
ATOM     17  C   UNL     1       2.697   5.251  19.521  0.00  0.00    +0.000 A 
ATOM     18  C   UNL     1       2.436   6.615  19.245  0.00  0.00    +0.000 A 
ATOM     19  H   UNL     1       2.227   9.190  17.232  0.00  0.00    +0.000 HD
ENDROOT
BRANCH   6  20
ATOM     20  O   UNL     1       0.528  12.588  20.136  0.00  0.00    +0.000 OA
ATOM     21  H   UNL     1      -0.387  12.814  20.393  0.00  0.00    +0.000 HD
ENDBRANCH   6  20
BRANCH  15  22
ATOM     22  O   UNL     1       4.168   1.929  19.023  0.00  0.00    +0.000 OA
ATOM     23  H   UNL     1       5.113   2.136  19.066  0.00  0.00    +0.000 HD
ENDBRANCH  15  22
BRANCH  16  24
ATOM     24  C   UNL     1       4.170   4.315  17.568  0.00  0.00    +0.000 C 
BRANCH  24  25
ATOM     25  N   UNL     1       5.632   4.605  17.663  0.00  0.00    +0.000 NA
ATOM     26  C   UNL     1       6.052   5.548  16.617  0.00  0.00    +0.000 C 
ATOM     27  C   UNL     1       7.475   6.096  16.777  0.00  0.00    +0.000 C 
ATOM     28  C   UNL     1       7.748   6.647  18.169  0.00  0.00    +0.000 C 
ATOM     29  C   UNL     1       7.301   5.673  19.246  0.00  0.00    +0.000 C 
ATOM     30  C   UNL     1       5.885   5.148  19.013  0.00  0.00    +0.000 C 
ENDBRANCH  24  25
ENDBRANCH  16  24
TORSDOF 4
ENDMDL
MODEL 2
REMARK VINA RESULT:      -8.7      0.947      1.061
REMARK  Name = 
REMARK  4 active torsions:
REMARK  status: ('A' for Active; 'I' for Inactive)
REMARK    1  A    between atoms: C_6  and  O_7
REMARK    2  A    between atoms: C_16  and  O_17
REMARK    3  A    between atoms: C_18  and  C_19
REMARK    4  A    between atoms: C_19  and  N_20
REMARK                            x       y       z     vdW  Elec       q    Type
REMARK                         _______ _______ _______ _____ _____    ______ ____
ROOT
ATOM      1  O   UNL     1       3.324   7.330  17.385  0.00  0.00    +0.000 OA
ATOM      2  C   UNL     1       2.469   7.428  18.253  0.00  0.00    +0.000 A 
ATOM      3  N   UNL     1       1.770   8.610  18.366  0.00  0.00    +0.000 N 
ATOM      4  C   UNL     1       1.320   9.099  19.613  0.00  0.00    +0.000 A 
ATOM      5  C   UNL     1       1.136  10.471  19.712  0.00  0.00    +0.000 A 
ATOM      6  C   UNL     1       0.994  11.019  20.971  0.00  0.00    +0.000 A 
ATOM      7  C   UNL     1       0.916  10.202  22.102  0.00  0.00    +0.000 A 
ATOM      8  C   UNL     1       1.008   8.801  21.989  0.00  0.00    +0.000 A 
ATOM      9  C   UNL     1       1.241   8.235  20.735  0.00  0.00    +0.000 A 
ATOM     10  C   UNL     1       1.575   6.844  20.427  0.00  0.00    +0.000 A 
ATOM     11  O   UNL     1       1.384   5.803  21.276  0.00  0.00    +0.000 OA
ATOM     12  C   UNL     1       1.835   4.691  20.594  0.00  0.00    +0.000 A 
ATOM     13  C   UNL     1       1.833   3.381  21.096  0.00  0.00    +0.000 A 
ATOM     14  C   UNL     1       2.349   2.389  20.260  0.00  0.00    +0.000 A 
ATOM     15  C   UNL     1       2.818   2.695  18.981  0.00  0.00    +0.000 A 
ATOM     16  C   UNL     1       2.808   4.008  18.453  0.00  0.00    +0.000 A 
ATOM     17  C   UNL     1       2.309   5.031  19.317  0.00  0.00    +0.000 A 
ATOM     18  C   UNL     1       2.156   6.438  19.252  0.00  0.00    +0.000 A 
ATOM     19  H   UNL     1       1.956   9.271  17.622  0.00  0.00    +0.000 HD
ENDROOT
BRANCH   6  20
ATOM     20  O   UNL     1       0.999  12.373  21.133  0.00  0.00    +0.000 OA
ATOM     21  H   UNL     1       0.505  12.589  21.948  0.00  0.00    +0.000 HD
ENDBRANCH   6  20
BRANCH  15  22
ATOM     22  O   UNL     1       3.356   1.695  18.211  0.00  0.00    +0.000 OA
ATOM     23  H   UNL     1       4.321   1.701  18.297  0.00  0.00    +0.000 HD
ENDBRANCH  15  22
BRANCH  16  24
ATOM     24  C   UNL     1       3.417   4.249  17.076  0.00  0.00    +0.000 C 
BRANCH  24  25
ATOM     25  N   UNL     1       4.872   3.958  16.911  0.00  0.00    +0.000 NA
ATOM     26  C   UNL     1       5.334   4.323  15.564  0.00  0.00    +0.000 C 
ATOM     27  C   UNL     1       6.855   4.290  15.374  0.00  0.00    +0.000 C 
ATOM     28  C   UNL     1       7.607   5.061  16.450  0.00  0.00    +0.000 C 
ATOM     29  C   UNL     1       7.117   4.688  17.839  0.00  0.00    +0.000 C 
ATOM     30  C   UNL     1       5.593   4.716  17.953  0.00  0.00    +0.000 C 
ENDBRANCH  24  25
ENDBRANCH  16  24
TORSDOF 4
ENDMDL
MODEL 3
REMARK VINA RESULT:      -8.6      0.769      1.169
REMARK  Name = 
REMARK  4 active torsions:
REMARK  status: ('A' for Active; 'I' for Inactive)
REMARK    1  A    between atoms: C_6  and  O_7
REMARK    2  A    between atoms: C_16  and  O_17
REMARK    3  A    between atoms: C_18  and  C_19
REMARK    4  A    between atoms: C_19  and  N_20
REMARK                            x       y       z     vdW  Elec       q    Type
REMARK                         _______ _______ _______ _____ _____    ______ ____
ROOT
ATOM      1  O   UNL     1       3.328   7.889  17.550  0.00  0.00    +0.000 OA
ATOM      2  C   UNL     1       2.420   7.894  18.368  0.00  0.00    +0.000 A 
ATOM      3  N   UNL     1       1.595   8.996  18.438  0.00  0.00    +0.000 N 
ATOM      4  C   UNL     1       1.027   9.434  19.656  0.00  0.00    +0.000 A 
ATOM      5  C   UNL     1       0.696  10.779  19.738  0.00  0.00    +0.000 A 
ATOM      6  C   UNL     1       0.427  11.306  20.985  0.00  0.00    +0.000 A 
ATOM      7  C   UNL     1       0.371  10.483  22.114  0.00  0.00    +0.000 A 
ATOM      8  C   UNL     1       0.616   9.100  22.011  0.00  0.00    +0.000 A 
ATOM      9  C   UNL     1       0.977   8.564  20.775  0.00  0.00    +0.000 A 
ATOM     10  C   UNL     1       1.472   7.216  20.491  0.00  0.00    +0.000 A 
ATOM     11  O   UNL     1       1.344   6.160  21.333  0.00  0.00    +0.000 OA
ATOM     12  C   UNL     1       1.946   5.102  20.682  0.00  0.00    +0.000 A 
ATOM     13  C   UNL     1       2.053   3.799  21.188  0.00  0.00    +0.000 A 
ATOM     14  C   UNL     1       2.717   2.867  20.386  0.00  0.00    +0.000 A 
ATOM     15  C   UNL     1       3.222   3.223  19.134  0.00  0.00    +0.000 A 
ATOM     16  C   UNL     1       3.104   4.529  18.602  0.00  0.00    +0.000 A 
ATOM     17  C   UNL     1       2.453   5.492  19.432  0.00  0.00    +0.000 A 
ATOM     18  C   UNL     1       2.157   6.875  19.353  0.00  0.00    +0.000 A 
ATOM     19  H   UNL     1       1.753   9.675  17.702  0.00  0.00    +0.000 HD
ENDROOT
BRANCH   6  20
ATOM     20  O   UNL     1       0.281  12.653  21.141  0.00  0.00    +0.000 OA
ATOM     21  H   UNL     1       0.617  13.097  20.338  0.00  0.00    +0.000 HD
ENDBRANCH   6  20
BRANCH  15  22
ATOM     22  O   UNL     1       3.904   2.287  18.400  0.00  0.00    +0.000 OA
ATOM     23  H   UNL     1       3.440   2.123  17.567  0.00  0.00    +0.000 HD
ENDBRANCH  15  22
BRANCH  16  24
ATOM     24  C   UNL     1       3.761   4.835  17.260  0.00  0.00    +0.000 C 
BRANCH  24  25
ATOM     25  N   UNL     1       5.182   5.292  17.282  0.00  0.00    +0.000 NA
ATOM     26  C   UNL     1       5.676   5.412  18.662  0.00  0.00    +0.000 C 
ATOM     27  C   UNL     1       7.187   5.638  18.788  0.00  0.00    +0.000 C 
ATOM     28  C   UNL     1       8.008   4.638  17.986  0.00  0.00    +0.000 C 
ATOM     29  C   UNL     1       7.485   4.510  16.565  0.00  0.00    +0.000 C 
ATOM     30  C   UNL     1       5.971   4.312  16.510  0.00  0.00    +0.000 C 
ENDBRANCH  24  25
ENDBRANCH  16  24
TORSDOF 4
ENDMDL
MODEL 4
REMARK VINA RESULT:      -8.4      2.330      7.243
REMARK  Name = 
REMARK  4 active torsions:
REMARK  status: ('A' for Active; 'I' for Inactive)
REMARK    1  A    between atoms: C_6  and  O_7
REMARK    2  A    between atoms: C_16  and  O_17
REMARK    3  A    between atoms: C_18  and  C_19
REMARK    4  A    between atoms: C_19  and  N_20
REMARK                            x       y       z     vdW  Elec       q    Type
REMARK                         _______ _______ _______ _____ _____    ______ ____
ROOT
ATOM      1  O   UNL     1       1.583   9.697  17.394  0.00  0.00    +0.000 OA
ATOM      2  C   UNL     1       2.009   8.921  18.236  0.00  0.00    +0.000 A 
ATOM      3  N   UNL     1       3.001   8.034  17.880  0.00  0.00    +0.000 N 
ATOM      4  C   UNL     1       3.089   6.739  18.441  0.00  0.00    +0.000 A 
ATOM      5  C   UNL     1       3.724   5.772  17.674  0.00  0.00    +0.000 A 
ATOM      6  C   UNL     1       3.569   4.450  18.038  0.00  0.00    +0.000 A 
ATOM      7  C   UNL     1       2.894   4.105  19.213  0.00  0.00    +0.000 A 
ATOM      8  C   UNL     1       2.330   5.097  20.039  0.00  0.00    +0.000 A 
ATOM      9  C   UNL     1       2.399   6.432  19.642  0.00  0.00    +0.000 A 
ATOM     10  C   UNL     1       1.710   7.580  20.231  0.00  0.00    +0.000 A 
ATOM     11  O   UNL     1       1.152   7.588  21.468  0.00  0.00    +0.000 OA
ATOM     12  C   UNL     1       0.613   8.850  21.615  0.00  0.00    +0.000 A 
ATOM     13  C   UNL     1      -0.072   9.306  22.751  0.00  0.00    +0.000 A 
ATOM     14  C   UNL     1      -0.563  10.614  22.703  0.00  0.00    +0.000 A 
ATOM     15  C   UNL     1      -0.353  11.423  21.585  0.00  0.00    +0.000 A 
ATOM     16  C   UNL     1       0.354  10.982  20.440  0.00  0.00    +0.000 A 
ATOM     17  C   UNL     1       0.830   9.636  20.472  0.00  0.00    +0.000 A 
ATOM     18  C   UNL     1       1.516   8.774  19.582  0.00  0.00    +0.000 A 
ATOM     19  H   UNL     1       3.379   8.189  16.953  0.00  0.00    +0.000 HD
ENDROOT
BRANCH   6  20
ATOM     20  O   UNL     1       4.015   3.458  17.217  0.00  0.00    +0.000 OA
ATOM     21  H   UNL     1       4.171   2.656  17.755  0.00  0.00    +0.000 HD
ENDBRANCH   6  20
BRANCH  15  22
ATOM     22  O   UNL     1      -0.890  12.684  21.564  0.00  0.00    +0.000 OA
ATOM     23  H   UNL     1      -0.760  13.081  20.690  0.00  0.00    +0.000 HD
ENDBRANCH  15  22
BRANCH  16  24
ATOM     24  C   UNL     1       0.458  11.916  19.239  0.00  0.00    +0.000 C 
BRANCH  24  25
ATOM     25  N   UNL     1       1.407  13.064  19.345  0.00  0.00    +0.000 NA
ATOM     26  C   UNL     1       2.588  12.853  18.496  0.00  0.00    +0.000 C 
ATOM     27  C   UNL     1       3.501  14.075  18.347  0.00  0.00    +0.000 C 
ATOM     28  C   UNL     1       2.748  15.337  17.951  0.00  0.00    +0.000 C 
ATOM     29  C   UNL     1       1.522  15.544  18.825  0.00  0.00    +0.000 C 
ATOM     30  C   UNL     1       0.670  14.282  18.952  0.00  0.00    +0.000 C 
ENDBRANCH  24  25
ENDBRANCH  16  24
TORSDOF 4
ENDMDL
MODEL 5
REMARK VINA RESULT:      -8.1      1.014      1.322
REMARK  Name = 
REMARK  4 active torsions:
REMARK  status: ('A' for Active; 'I' for Inactive)
REMARK    1  A    between atoms: C_6  and  O_7
REMARK    2  A    between atoms: C_16  and  O_17
REMARK    3  A    between atoms: C_18  and  C_19
REMARK    4  A    between atoms: C_19  and  N_20
REMARK                            x       y       z     vdW  Elec       q    Type
REMARK                         _______ _______ _______ _____ _____    ______ ____
ROOT
ATOM      1  O   UNL     1       3.163   8.114  17.043  0.00  0.00    +0.000 OA
ATOM      2  C   UNL     1       2.306   8.251  17.904  0.00  0.00    +0.000 A 
ATOM      3  N   UNL     1       1.504   9.371  17.872  0.00  0.00    +0.000 N 
ATOM      4  C   UNL     1       1.018   9.981  19.050  0.00  0.00    +0.000 A 
ATOM      5  C   UNL     1       0.712  11.332  18.969  0.00  0.00    +0.000 A 
ATOM      6  C   UNL     1       0.528  12.028  20.146  0.00  0.00    +0.000 A 
ATOM      7  C   UNL     1       0.528  11.366  21.377  0.00  0.00    +0.000 A 
ATOM      8  C   UNL     1       0.746   9.976  21.449  0.00  0.00    +0.000 A 
ATOM      9  C   UNL     1       1.023   9.271  20.278  0.00  0.00    +0.000 A 
ATOM     10  C   UNL     1       1.479   7.886  20.151  0.00  0.00    +0.000 A 
ATOM     11  O   UNL     1       1.387   6.956  21.134  0.00  0.00    +0.000 OA
ATOM     12  C   UNL     1       1.933   5.806  20.599  0.00  0.00    +0.000 A 
ATOM     13  C   UNL     1       2.051   4.581  21.270  0.00  0.00    +0.000 A 
ATOM     14  C   UNL     1       2.651   3.535  20.564  0.00  0.00    +0.000 A 
ATOM     15  C   UNL     1       3.084   3.707  19.248  0.00  0.00    +0.000 A 
ATOM     16  C   UNL     1       2.953   4.932  18.551  0.00  0.00    +0.000 A 
ATOM     17  C   UNL     1       2.368   6.013  19.280  0.00  0.00    +0.000 A 
ATOM     18  C   UNL     1       2.089   7.380  19.031  0.00  0.00    +0.000 A 
ATOM     19  H   UNL     1       1.626   9.940  17.043  0.00  0.00    +0.000 HD
ENDROOT
BRANCH   6  20
ATOM     20  O   UNL     1       0.411  13.387  20.127  0.00  0.00    +0.000 OA
ATOM     21  H   UNL     1       0.384  13.709  21.050  0.00  0.00    +0.000 HD
ENDBRANCH   6  20
BRANCH  15  22
ATOM     22  O   UNL     1       3.706   2.666  18.609  0.00  0.00    +0.000 OA
ATOM     23  H   UNL     1       3.396   2.612  17.694  0.00  0.00    +0.000 HD
ENDBRANCH  15  22
BRANCH  16  24
ATOM     24  C   UNL     1       3.531   5.040  17.144  0.00  0.00    +0.000 C 
BRANCH  24  25
ATOM     25  N   UNL     1       4.955   4.632  16.957  0.00  0.00    +0.000 NA
ATOM     26  C   UNL     1       5.182   4.117  15.599  0.00  0.00    +0.000 C 
ATOM     27  C   UNL     1       6.654   3.900  15.229  0.00  0.00    +0.000 C 
ATOM     28  C   UNL     1       7.526   5.113  15.518  0.00  0.00    +0.000 C 
ATOM     29  C   UNL     1       7.278   5.649  16.919  0.00  0.00    +0.000 C 
ATOM     30  C   UNL     1       5.792   5.818  17.231  0.00  0.00    +0.000 C 
ENDBRANCH  24  25
ENDBRANCH  16  24
TORSDOF 4
ENDMDL
MODEL 6
REMARK VINA RESULT:      -7.9      1.740      4.202
REMARK  Name = 
REMARK  4 active torsions:
REMARK  status: ('A' for Active; 'I' for Inactive)
REMARK    1  A    between atoms: C_6  and  O_7
REMARK    2  A    between atoms: C_16  and  O_17
REMARK    3  A    between atoms: C_18  and  C_19
REMARK    4  A    between atoms: C_19  and  N_20
REMARK                            x       y       z     vdW  Elec       q    Type
REMARK                         _______ _______ _______ _____ _____    ______ ____
ROOT
ATOM      1  O   UNL     1       2.212   5.696  20.688  0.00  0.00    +0.000 OA
ATOM      2  C   UNL     1       2.317   6.792  20.159  0.00  0.00    +0.000 A 
ATOM      3  N   UNL     1       1.742   7.884  20.773  0.00  0.00    +0.000 N 
ATOM      4  C   UNL     1       1.201   8.961  20.036  0.00  0.00    +0.000 A 
ATOM      5  C   UNL     1       0.204   9.700  20.658  0.00  0.00    +0.000 A 
ATOM      6  C   UNL     1      -0.553  10.553  19.880  0.00  0.00    +0.000 A 
ATOM      7  C   UNL     1      -0.244  10.757  18.532  0.00  0.00    +0.000 A 
ATOM      8  C   UNL     1       0.829  10.075  17.926  0.00  0.00    +0.000 A 
ATOM      9  C   UNL     1       1.548   9.142  18.672  0.00  0.00    +0.000 A 
ATOM     10  C   UNL     1       2.546   8.186  18.192  0.00  0.00    +0.000 A 
ATOM     11  O   UNL     1       3.180   8.276  16.995  0.00  0.00    +0.000 OA
ATOM     12  C   UNL     1       4.020   7.182  16.946  0.00  0.00    +0.000 A 
ATOM     13  C   UNL     1       4.873   6.867  15.878  0.00  0.00    +0.000 A 
ATOM     14  C   UNL     1       5.635   5.703  16.007  0.00  0.00    +0.000 A 
ATOM     15  C   UNL     1       5.560   4.915  17.157  0.00  0.00    +0.000 A 
ATOM     16  C   UNL     1       4.719   5.231  18.251  0.00  0.00    +0.000 A 
ATOM     17  C   UNL     1       3.915   6.403  18.110  0.00  0.00    +0.000 A 
ATOM     18  C   UNL     1       2.929   7.064  18.883  0.00  0.00    +0.000 A 
ATOM     19  H   UNL     1       1.371   7.689  21.695  0.00  0.00    +0.000 HD
ENDROOT
BRANCH   6  20
ATOM     20  O   UNL     1      -1.657  11.157  20.404  0.00  0.00    +0.000 OA
ATOM     21  H   UNL     1      -1.589  11.137  21.380  0.00  0.00    +0.000 HD
ENDBRANCH   6  20
BRANCH  15  22
ATOM     22  O   UNL     1       6.294   3.758  17.222  0.00  0.00    +0.000 OA
ATOM     23  H   UNL     1       6.753   3.710  18.072  0.00  0.00    +0.000 HD
ENDBRANCH  15  22
BRANCH  16  24
ATOM     24  C   UNL     1       4.650   4.261  19.426  0.00  0.00    +0.000 C 
BRANCH  24  25
ATOM     25  N   UNL     1       3.688   3.125  19.320  0.00  0.00    +0.000 NA
ATOM     26  C   UNL     1       2.871   3.010  20.536  0.00  0.00    +0.000 C 
ATOM     27  C   UNL     1       1.693   2.033  20.431  0.00  0.00    +0.000 C 
ATOM     28  C   UNL     1       0.831   2.270  19.200  0.00  0.00    +0.000 C 
ATOM     29  C   UNL     1       1.682   2.400  17.948  0.00  0.00    +0.000 C 
ATOM     30  C   UNL     1       2.850   3.368  18.128  0.00  0.00    +0.000 C 
ENDBRANCH  24  25
ENDBRANCH  16  24
TORSDOF 4
ENDMDL
MODEL 7
REMARK VINA RESULT:      -7.9      2.292      6.794
REMARK  Name = 
REMARK  4 active torsions:
REMARK  status: ('A' for Active; 'I' for Inactive)
REMARK    1  A    between atoms: C_6  and  O_7
REMARK    2  A    between atoms: C_16  and  O_17
REMARK    3  A    between atoms: C_18  and  C_19
REMARK    4  A    between atoms: C_19  and  N_20
REMARK                            x       y       z     vdW  Elec       q    Type
REMARK                         _______ _______ _______ _____ _____    ______ ____
ROOT
ATOM      1  O   UNL     1       4.661   7.406  17.701  0.00  0.00    +0.000 OA
ATOM      2  C   UNL     1       5.024   6.328  17.253  0.00  0.00    +0.000 A 
ATOM      3  N   UNL     1       6.228   6.257  16.587  0.00  0.00    +0.000 N 
ATOM      4  C   UNL     1       6.437   5.371  15.506  0.00  0.00    +0.000 A 
ATOM      5  C   UNL     1       7.413   5.732  14.588  0.00  0.00    +0.000 A 
ATOM      6  C   UNL     1       7.443   5.068  13.378  0.00  0.00    +0.000 A 
ATOM      7  C   UNL     1       6.594   3.984  13.134  0.00  0.00    +0.000 A 
ATOM      8  C   UNL     1       5.667   3.561  14.107  0.00  0.00    +0.000 A 
ATOM      9  C   UNL     1       5.561   4.274  15.300  0.00  0.00    +0.000 A 
ATOM     10  C   UNL     1       4.539   4.139  16.339  0.00  0.00    +0.000 A 
ATOM     11  O   UNL     1       3.718   3.067  16.471  0.00  0.00    +0.000 OA
ATOM     12  C   UNL     1       2.920   3.353  17.560  0.00  0.00    +0.000 A 
ATOM     13  C   UNL     1       1.911   2.517  18.063  0.00  0.00    +0.000 A 
ATOM     14  C   UNL     1       1.196   2.992  19.165  0.00  0.00    +0.000 A 
ATOM     15  C   UNL     1       1.496   4.227  19.742  0.00  0.00    +0.000 A 
ATOM     16  C   UNL     1       2.524   5.071  19.259  0.00  0.00    +0.000 A 
ATOM     17  C   UNL     1       3.237   4.604  18.112  0.00  0.00    +0.000 A 
ATOM     18  C   UNL     1       4.269   5.101  17.279  0.00  0.00    +0.000 A 
ATOM     19  H   UNL     1       6.773   7.110  16.631  0.00  0.00    +0.000 HD
ENDROOT
BRANCH   6  20
ATOM     20  O   UNL     1       8.256   5.509  12.376  0.00  0.00    +0.000 OA
ATOM     21  H   UNL     1       8.921   6.114  12.760  0.00  0.00    +0.000 HD
ENDBRANCH   6  20
BRANCH  15  22
ATOM     22  O   UNL     1       0.739   4.672  20.796  0.00  0.00    +0.000 OA
ATOM     23  H   UNL     1       0.317   5.512  20.563  0.00  0.00    +0.000 HD
ENDBRANCH  15  22
BRANCH  16  24
ATOM     24  C   UNL     1       2.718   6.436  19.910  0.00  0.00    +0.000 C 
BRANCH  24  25
ATOM     25  N   UNL     1       1.608   7.425  19.773  0.00  0.00    +0.000 NA
ATOM     26  C   UNL     1       1.382   8.144  21.035  0.00  0.00    +0.000 C 
ATOM     27  C   UNL     1       0.433   9.344  20.932  0.00  0.00    +0.000 C 
ATOM     28  C   UNL     1       0.799  10.297  19.804  0.00  0.00    +0.000 C 
ATOM     29  C   UNL     1       1.042   9.547  18.505  0.00  0.00    +0.000 C 
ATOM     30  C   UNL     1       1.975   8.350  18.682  0.00  0.00    +0.000 C 
ENDBRANCH  24  25
ENDBRANCH  16  24
TORSDOF 4
ENDMDL
MODEL 8
REMARK VINA RESULT:      -7.8      2.476      7.500
REMARK  Name = 
REMARK  4 active torsions:
REMARK  status: ('A' for Active; 'I' for Inactive)
REMARK    1  A    between atoms: C_6  and  O_7
REMARK    2  A    between atoms: C_16  and  O_17
REMARK    3  A    between atoms: C_18  and  C_19
REMARK    4  A    between atoms: C_19  and  N_20
REMARK                            x       y       z     vdW  Elec       q    Type
REMARK                         _______ _______ _______ _____ _____    ______ ____
ROOT
ATOM      1  O   UNL     1       0.875   9.528  17.402  0.00  0.00    +0.000 OA
ATOM      2  C   UNL     1       1.538   8.925  18.232  0.00  0.00    +0.000 A 
ATOM      3  N   UNL     1       2.639   8.211  17.811  0.00  0.00    +0.000 N 
ATOM      4  C   UNL     1       3.043   7.013  18.442  0.00  0.00    +0.000 A 
ATOM      5  C   UNL     1       3.766   6.117  17.666  0.00  0.00    +0.000 A 
ATOM      6  C   UNL     1       3.917   4.827  18.135  0.00  0.00    +0.000 A 
ATOM      7  C   UNL     1       3.461   4.470  19.407  0.00  0.00    +0.000 A 
ATOM      8  C   UNL     1       2.810   5.409  20.231  0.00  0.00    +0.000 A 
ATOM      9  C   UNL     1       2.569   6.692  19.739  0.00  0.00    +0.000 A 
ATOM     10  C   UNL     1       1.739   7.739  20.334  0.00  0.00    +0.000 A 
ATOM     11  O   UNL     1       1.335   7.754  21.629  0.00  0.00    +0.000 OA
ATOM     12  C   UNL     1       0.578   8.901  21.761  0.00  0.00    +0.000 A 
ATOM     13  C   UNL     1      -0.051   9.322  22.942  0.00  0.00    +0.000 A 
ATOM     14  C   UNL     1      -0.792  10.504  22.870  0.00  0.00    +0.000 A 
ATOM     15  C   UNL     1      -0.874  11.233  21.683  0.00  0.00    +0.000 A 
ATOM     16  C   UNL     1      -0.229  10.831  20.489  0.00  0.00    +0.000 A 
ATOM     17  C   UNL     1       0.504   9.607  20.549  0.00  0.00    +0.000 A 
ATOM     18  C   UNL     1       1.241   8.811  19.638  0.00  0.00    +0.000 A 
ATOM     19  H   UNL     1       2.871   8.350  16.835  0.00  0.00    +0.000 HD
ENDROOT
BRANCH   6  20
ATOM     20  O   UNL     1       4.454   3.866  17.331  0.00  0.00    +0.000 OA
ATOM     21  H   UNL     1       5.325   4.177  17.015  0.00  0.00    +0.000 HD
ENDBRANCH   6  20
BRANCH  15  22
ATOM     22  O   UNL     1      -1.649  12.365  21.647  0.00  0.00    +0.000 OA
ATOM     23  H   UNL     1      -1.525  12.871  22.463  0.00  0.00    +0.000 HD
ENDBRANCH  15  22
BRANCH  16  24
ATOM     24  C   UNL     1      -0.449  11.655  19.224  0.00  0.00    +0.000 C 
BRANCH  24  25
ATOM     25  N   UNL     1      -1.736  11.458  18.494  0.00  0.00    +0.000 NA
ATOM     26  C   UNL     1      -1.616  11.880  17.091  0.00  0.00    +0.000 C 
ATOM     27  C   UNL     1      -2.802  11.494  16.198  0.00  0.00    +0.000 C 
ATOM     28  C   UNL     1      -3.177  10.023  16.309  0.00  0.00    +0.000 C 
ATOM     29  C   UNL     1      -3.287   9.590  17.761  0.00  0.00    +0.000 C 
ATOM     30  C   UNL     1      -2.086  10.027  18.598  0.00  0.00    +0.000 C 
ENDBRANCH  24  25
ENDBRANCH  16  24
TORSDOF 4
ENDMDL
MODEL 9
REMARK VINA RESULT:      -7.7      2.278      7.364
REMARK  Name = 
REMARK  4 active torsions:
REMARK  status: ('A' for Active; 'I' for Inactive)
REMARK    1  A    between atoms: C_6  and  O_7
REMARK    2  A    between atoms: C_16  and  O_17
REMARK    3  A    between atoms: C_18  and  C_19
REMARK    4  A    between atoms: C_19  and  N_20
REMARK                            x       y       z     vdW  Elec       q    Type
REMARK                         _______ _______ _______ _____ _____    ______ ____
ROOT
ATOM      1  O   UNL     1       0.801   9.756  17.546  0.00  0.00    +0.000 OA
ATOM      2  C   UNL     1       1.434   9.107  18.366  0.00  0.00    +0.000 A 
ATOM      3  N   UNL     1       2.501   8.351  17.933  0.00  0.00    +0.000 N 
ATOM      4  C   UNL     1       2.848   7.124  18.541  0.00  0.00    +0.000 A 
ATOM      5  C   UNL     1       3.530   6.209  17.750  0.00  0.00    +0.000 A 
ATOM      6  C   UNL     1       3.620   4.906  18.195  0.00  0.00    +0.000 A 
ATOM      7  C   UNL     1       3.145   4.546  19.460  0.00  0.00    +0.000 A 
ATOM      8  C   UNL     1       2.537   5.499  20.300  0.00  0.00    +0.000 A 
ATOM      9  C   UNL     1       2.357   6.801  19.832  0.00  0.00    +0.000 A 
ATOM     10  C   UNL     1       1.574   7.874  20.445  0.00  0.00    +0.000 A 
ATOM     11  O   UNL     1       1.169   7.884  21.740  0.00  0.00    +0.000 OA
ATOM     12  C   UNL     1       0.465   9.062  21.892  0.00  0.00    +0.000 A 
ATOM     13  C   UNL     1      -0.145   9.490  23.080  0.00  0.00    +0.000 A 
ATOM     14  C   UNL     1      -0.830  10.706  23.029  0.00  0.00    +0.000 A 
ATOM     15  C   UNL     1      -0.877  11.460  21.855  0.00  0.00    +0.000 A 
ATOM     16  C   UNL     1      -0.248  11.051  20.655  0.00  0.00    +0.000 A 
ATOM     17  C   UNL     1       0.427   9.793  20.694  0.00  0.00    +0.000 A 
ATOM     18  C   UNL     1       1.128   8.981  19.768  0.00  0.00    +0.000 A 
ATOM     19  H   UNL     1       2.742   8.498  16.960  0.00  0.00    +0.000 HD
ENDROOT
BRANCH   6  20
ATOM     20  O   UNL     1       4.113   3.936  17.374  0.00  0.00    +0.000 OA
ATOM     21  H   UNL     1       5.084   4.037  17.321  0.00  0.00    +0.000 HD
ENDBRANCH   6  20
BRANCH  15  22
ATOM     22  O   UNL     1      -1.598  12.627  21.840  0.00  0.00    +0.000 OA
ATOM     23  H   UNL     1      -2.226  12.632  22.576  0.00  0.00    +0.000 HD
ENDBRANCH  15  22
BRANCH  16  24
ATOM     24  C   UNL     1      -0.426  11.908  19.406  0.00  0.00    +0.000 C 
BRANCH  24  25
ATOM     25  N   UNL     1       0.642  12.906  19.103  0.00  0.00    +0.000 NA
ATOM     26  C   UNL     1       0.101  14.273  19.099  0.00  0.00    +0.000 C 
ATOM     27  C   UNL     1       1.156  15.384  19.040  0.00  0.00    +0.000 C 
ATOM     28  C   UNL     1       2.252  15.220  20.084  0.00  0.00    +0.000 C 
ATOM     29  C   UNL     1       2.799  13.803  20.091  0.00  0.00    +0.000 C 
ATOM     30  C   UNL     1       1.696  12.746  20.125  0.00  0.00    +0.000 C 
ENDBRANCH  24  25
ENDBRANCH  16  24
TORSDOF 4
ENDMDL
