MODEL 1
REMARK VINA RESULT:      -5.8      0.000      0.000
REMARK  Name = 
REMARK  25 active torsions:
REMARK  status: ('A' for Active; 'I' for Inactive)
REMARK    1  A    between atoms: C_1  and  C_2
REMARK    2  A    between atoms: C_2  and  C_3
REMARK    3  A    between atoms: C_3  and  C_4
REMARK    4  A    between atoms: C_4  and  C_5
REMARK    5  A    between atoms: C_5  and  C_6
REMARK    6  A    between atoms: C_6  and  C_7
REMARK    7  A    between atoms: C_7  and  C_8
REMARK    8  A    between atoms: C_8  and  C_9
REMARK    9  A    between atoms: C_9  and  C_10
REMARK   10  A    between atoms: C_10  and  C_11
REMARK   11  A    between atoms: C_11  and  C_12
REMARK   12  A    between atoms: C_12  and  C_13
REMARK   13  A    between atoms: C_13  and  C_14
REMARK   14  A    between atoms: C_14  and  C_15
REMARK   15  A    between atoms: C_15  and  C_16
REMARK   16  A    between atoms: C_16  and  C_17
REMARK   17  A    between atoms: C_17  and  C_18
REMARK   18  A    between atoms: C_18  and  O_19
REMARK   19  A    between atoms: O_19  and  P_20
REMARK   20  A    between atoms: P_20  and  O_23
REMARK   21  A    between atoms: O_23  and  C_24
REMARK   22  A    between atoms: C_24  and  C_25
REMARK   23  A    between atoms: C_25  and  N_26
REMARK   24  A    between atoms: N_26  and  C_27
REMARK   25  A    between atoms: C_30  and  O_31
REMARK                            x       y       z     vdW  Elec       q    Type
REMARK                         _______ _______ _______ _____ _____    ______ ____
ROOT
ATOM      1  C   UNL     1       1.177   7.033  21.375  0.00  0.00    +0.000 C 
ENDROOT
BRANCH   1   2
ATOM      2  C   UNL     1       1.831   5.810  20.668  0.00  0.00    +0.000 C 
BRANCH   2   3
ATOM      3  O   UNL     1       0.959   4.680  20.627  0.00  0.00    +0.000 OA
BRANCH   3   4
ATOM      4  P   UNL     1       1.495   3.140  20.810  0.00  0.00    +0.000 P 
ATOM      5  O   UNL     1       1.181   2.660  22.203  0.00  0.00    +0.000 OA
ATOM      6  O   UNL     1       1.058   2.342  19.606  0.00  0.00    +0.000 OA
BRANCH   4   7
ATOM      7  O   UNL     1       3.099   3.305  20.623  0.00  0.00    +0.000 OA
BRANCH   7   8
ATOM      8  C   UNL     1       3.732   3.002  19.404  0.00  0.00    +0.000 C 
BRANCH   8   9
ATOM      9  C   UNL     1       4.960   3.853  19.024  0.00  0.00    +0.000 C 
BRANCH   9  10
ATOM     10  N   UNL     1       4.890   4.679  17.686  0.00  0.00    +0.000 N 
ATOM     11  C   UNL     1       3.546   5.337  17.566  0.00  0.00    +0.000 C 
ATOM     12  C   UNL     1       6.026   5.713  17.707  0.00  0.00    +0.000 C 
ATOM     13  C   UNL     1       6.241   6.391  16.356  0.00  0.00    +0.000 C 
ATOM     14  C   UNL     1       6.492   5.375  15.253  0.00  0.00    +0.000 C 
ATOM     15  C   UNL     1       5.373   4.338  15.208  0.00  0.00    +0.000 C 
ATOM     16  C   UNL     1       5.101   3.640  16.548  0.00  0.00    +0.000 C 
BRANCH  14  17
ATOM     17  O   UNL     1       7.771   4.763  15.451  0.00  0.00    +0.000 OA
ATOM     18  H   UNL     1       7.654   4.092  16.148  0.00  0.00    +0.000 HD
ENDBRANCH  14  17
ENDBRANCH   9  10
ENDBRANCH   8   9
ENDBRANCH   7   8
ENDBRANCH   4   7
ENDBRANCH   3   4
ENDBRANCH   2   3
ENDBRANCH   1   2
BRANCH   1  19
ATOM     19  C   UNL     1       1.267   8.304  20.504  0.00  0.00    +0.000 C 
BRANCH  19  20
ATOM     20  C   UNL     1       0.483   9.521  21.028  0.00  0.00    +0.000 C 
BRANCH  20  21
ATOM     21  C   UNL     1      -0.002   9.264  22.466  0.00  0.00    +0.000 C 
BRANCH  21  22
ATOM     22  C   UNL     1      -0.896  10.387  22.986  0.00  0.00    +0.000 C 
BRANCH  22  23
ATOM     23  C   UNL     1      -0.569  11.718  22.292  0.00  0.00    +0.000 C 
BRANCH  23  24
ATOM     24  C   UNL     1      -1.812  12.592  22.194  0.00  0.00    +0.000 C 
BRANCH  24  25
ATOM     25  C   UNL     1      -2.041  13.062  20.764  0.00  0.00    +0.000 C 
BRANCH  25  26
ATOM     26  C   UNL     1      -2.297  11.863  19.856  0.00  0.00    +0.000 C 
BRANCH  26  27
ATOM     27  C   UNL     1      -1.421  11.938  18.616  0.00  0.00    +0.000 C 
BRANCH  27  28
ATOM     28  C   UNL     1      -1.077  10.537  18.108  0.00  0.00    +0.000 C 
BRANCH  28  29
ATOM     29  C   UNL     1      -2.313   9.865  17.520  0.00  0.00    +0.000 C 
BRANCH  29  30
ATOM     30  C   UNL     1      -2.479  10.254  16.060  0.00  0.00    +0.000 C 
BRANCH  30  31
ATOM     31  C   UNL     1      -3.861  10.872  15.816  0.00  0.00    +0.000 C 
BRANCH  31  32
ATOM     32  C   UNL     1      -4.674  10.884  17.102  0.00  0.00    +0.000 C 
BRANCH  32  34
ATOM     33  C   UNL     1      -5.827  12.390  18.750  0.00  0.00    +0.000 C 
ATOM     34  C   UNL     1      -5.332  12.244  17.321  0.00  0.00    +0.000 C 
ENDBRANCH  32  34
ENDBRANCH  31  32
ENDBRANCH  30  31
ENDBRANCH  29  30
ENDBRANCH  28  29
ENDBRANCH  27  28
ENDBRANCH  26  27
ENDBRANCH  25  26
ENDBRANCH  24  25
ENDBRANCH  23  24
ENDBRANCH  22  23
ENDBRANCH  21  22
ENDBRANCH  20  21
ENDBRANCH  19  20
ENDBRANCH   1  19
TORSDOF 23
ENDMDL
MODEL 2
REMARK VINA RESULT:      -5.6      5.864      8.809
REMARK  Name = 
REMARK  25 active torsions:
REMARK  status: ('A' for Active; 'I' for Inactive)
REMARK    1  A    between atoms: C_1  and  C_2
REMARK    2  A    between atoms: C_2  and  C_3
REMARK    3  A    between atoms: C_3  and  C_4
REMARK    4  A    between atoms: C_4  and  C_5
REMARK    5  A    between atoms: C_5  and  C_6
REMARK    6  A    between atoms: C_6  and  C_7
REMARK    7  A    between atoms: C_7  and  C_8
REMARK    8  A    between atoms: C_8  and  C_9
REMARK    9  A    between atoms: C_9  and  C_10
REMARK   10  A    between atoms: C_10  and  C_11
REMARK   11  A    between atoms: C_11  and  C_12
REMARK   12  A    between atoms: C_12  and  C_13
REMARK   13  A    between atoms: C_13  and  C_14
REMARK   14  A    between atoms: C_14  and  C_15
REMARK   15  A    between atoms: C_15  and  C_16
REMARK   16  A    between atoms: C_16  and  C_17
REMARK   17  A    between atoms: C_17  and  C_18
REMARK   18  A    between atoms: C_18  and  O_19
REMARK   19  A    between atoms: O_19  and  P_20
REMARK   20  A    between atoms: P_20  and  O_23
REMARK   21  A    between atoms: O_23  and  C_24
REMARK   22  A    between atoms: C_24  and  C_25
REMARK   23  A    between atoms: C_25  and  N_26
REMARK   24  A    between atoms: N_26  and  C_27
REMARK   25  A    between atoms: C_30  and  O_31
REMARK                            x       y       z     vdW  Elec       q    Type
REMARK                         _______ _______ _______ _____ _____    ______ ____
ROOT
ATOM      1  C   UNL     1       7.665   9.186  17.831  0.00  0.00    +0.000 C 
ENDROOT
BRANCH   1   2
ATOM      2  C   UNL     1       7.727   7.706  17.349  0.00  0.00    +0.000 C 
BRANCH   2   3
ATOM      3  O   UNL     1       6.910   6.845  18.142  0.00  0.00    +0.000 OA
BRANCH   3   4
ATOM      4  P   UNL     1       7.360   5.319  18.544  0.00  0.00    +0.000 P 
ATOM      5  O   UNL     1       7.752   4.566  17.301  0.00  0.00    +0.000 OA
ATOM      6  O   UNL     1       8.300   5.400  19.723  0.00  0.00    +0.000 OA
BRANCH   4   7
ATOM      7  O   UNL     1       5.990   4.704  19.163  0.00  0.00    +0.000 OA
BRANCH   7   8
ATOM      8  C   UNL     1       5.300   3.657  18.525  0.00  0.00    +0.000 C 
BRANCH   8   9
ATOM      9  C   UNL     1       4.012   4.031  17.765  0.00  0.00    +0.000 C 
BRANCH   9  10
ATOM     10  N   UNL     1       2.652   3.956  18.555  0.00  0.00    +0.000 N 
ATOM     11  C   UNL     1       1.531   4.433  17.678  0.00  0.00    +0.000 C 
ATOM     12  C   UNL     1       2.442   2.501  19.000  0.00  0.00    +0.000 C 
ATOM     13  C   UNL     1       1.304   2.344  20.007  0.00  0.00    +0.000 C 
ATOM     14  C   UNL     1       1.507   3.231  21.225  0.00  0.00    +0.000 C 
ATOM     15  C   UNL     1       1.713   4.684  20.808  0.00  0.00    +0.000 C 
ATOM     16  C   UNL     1       2.834   4.896  19.781  0.00  0.00    +0.000 C 
BRANCH  14  17
ATOM     17  O   UNL     1       2.611   2.739  21.993  0.00  0.00    +0.000 OA
ATOM     18  H   UNL     1       2.302   1.929  22.438  0.00  0.00    +0.000 HD
ENDBRANCH  14  17
ENDBRANCH   9  10
ENDBRANCH   8   9
ENDBRANCH   7   8
ENDBRANCH   4   7
ENDBRANCH   3   4
ENDBRANCH   2   3
ENDBRANCH   1   2
BRANCH   1  19
ATOM     19  C   UNL     1       9.009   9.640  18.438  0.00  0.00    +0.000 C 
BRANCH  19  20
ATOM     20  C   UNL     1       8.976  10.985  19.184  0.00  0.00    +0.000 C 
BRANCH  20  21
ATOM     21  C   UNL     1      10.408  11.472  19.469  0.00  0.00    +0.000 C 
BRANCH  21  22
ATOM     22  C   UNL     1      11.290  11.445  18.224  0.00  0.00    +0.000 C 
BRANCH  22  23
ATOM     23  C   UNL     1      11.755  12.860  17.847  0.00  0.00    +0.000 C 
BRANCH  23  24
ATOM     24  C   UNL     1      10.581  13.701  17.363  0.00  0.00    +0.000 C 
BRANCH  24  25
ATOM     25  C   UNL     1      10.917  15.185  17.395  0.00  0.00    +0.000 C 
BRANCH  25  26
ATOM     26  C   UNL     1      10.285  15.836  18.621  0.00  0.00    +0.000 C 
BRANCH  26  27
ATOM     27  C   UNL     1       8.984  15.137  18.984  0.00  0.00    +0.000 C 
BRANCH  27  28
ATOM     28  C   UNL     1       7.812  15.726  18.199  0.00  0.00    +0.000 C 
BRANCH  28  29
ATOM     29  C   UNL     1       6.948  14.613  17.617  0.00  0.00    +0.000 C 
BRANCH  29  30
ATOM     30  C   UNL     1       5.602  14.568  18.322  0.00  0.00    +0.000 C 
BRANCH  30  31
ATOM     31  C   UNL     1       4.854  15.896  18.148  0.00  0.00    +0.000 C 
BRANCH  31  32
ATOM     32  C   UNL     1       3.536  15.673  17.420  0.00  0.00    +0.000 C 
BRANCH  32  34
ATOM     33  C   UNL     1       1.962  16.821  19.006  0.00  0.00    +0.000 C 
ATOM     34  C   UNL     1       2.389  15.490  18.410  0.00  0.00    +0.000 C 
ENDBRANCH  32  34
ENDBRANCH  31  32
ENDBRANCH  30  31
ENDBRANCH  29  30
ENDBRANCH  28  29
ENDBRANCH  27  28
ENDBRANCH  26  27
ENDBRANCH  25  26
ENDBRANCH  24  25
ENDBRANCH  23  24
ENDBRANCH  22  23
ENDBRANCH  21  22
ENDBRANCH  20  21
ENDBRANCH  19  20
ENDBRANCH   1  19
TORSDOF 23
ENDMDL
MODEL 3
REMARK VINA RESULT:      -5.5      4.295     10.623
REMARK  Name = 
REMARK  25 active torsions:
REMARK  status: ('A' for Active; 'I' for Inactive)
REMARK    1  A    between atoms: C_1  and  C_2
REMARK    2  A    between atoms: C_2  and  C_3
REMARK    3  A    between atoms: C_3  and  C_4
REMARK    4  A    between atoms: C_4  and  C_5
REMARK    5  A    between atoms: C_5  and  C_6
REMARK    6  A    between atoms: C_6  and  C_7
REMARK    7  A    between atoms: C_7  and  C_8
REMARK    8  A    between atoms: C_8  and  C_9
REMARK    9  A    between atoms: C_9  and  C_10
REMARK   10  A    between atoms: C_10  and  C_11
REMARK   11  A    between atoms: C_11  and  C_12
REMARK   12  A    between atoms: C_12  and  C_13
REMARK   13  A    between atoms: C_13  and  C_14
REMARK   14  A    between atoms: C_14  and  C_15
REMARK   15  A    between atoms: C_15  and  C_16
REMARK   16  A    between atoms: C_16  and  C_17
REMARK   17  A    between atoms: C_17  and  C_18
REMARK   18  A    between atoms: C_18  and  O_19
REMARK   19  A    between atoms: O_19  and  P_20
REMARK   20  A    between atoms: P_20  and  O_23
REMARK   21  A    between atoms: O_23  and  C_24
REMARK   22  A    between atoms: C_24  and  C_25
REMARK   23  A    between atoms: C_25  and  N_26
REMARK   24  A    between atoms: N_26  and  C_27
REMARK   25  A    between atoms: C_30  and  O_31
REMARK                            x       y       z     vdW  Elec       q    Type
REMARK                         _______ _______ _______ _____ _____    ______ ____
ROOT
ATOM      1  C   UNL     1       1.635   8.685  17.529  0.00  0.00    +0.000 C 
ENDROOT
BRANCH   1   2
ATOM      2  C   UNL     1       1.352   9.871  18.498  0.00  0.00    +0.000 C 
BRANCH   2   3
ATOM      3  O   UNL     1       1.384   9.469  19.867  0.00  0.00    +0.000 OA
BRANCH   3   4
ATOM      4  P   UNL     1       0.471  10.189  21.024  0.00  0.00    +0.000 P 
ATOM      5  O   UNL     1      -0.970   9.786  20.852  0.00  0.00    +0.000 OA
ATOM      6  O   UNL     1       1.166  10.011  22.353  0.00  0.00    +0.000 OA
BRANCH   4   7
ATOM      7  O   UNL     1       0.656  11.766  20.682  0.00  0.00    +0.000 OA
BRANCH   7   8
ATOM      8  C   UNL     1       0.241  12.767  21.580  0.00  0.00    +0.000 C 
BRANCH   8   9
ATOM      9  C   UNL     1      -0.878  13.713  21.103  0.00  0.00    +0.000 C 
BRANCH   9  10
ATOM     10  N   UNL     1      -2.352  13.381  21.544  0.00  0.00    +0.000 N 
ATOM     11  C   UNL     1      -2.332  12.450  22.721  0.00  0.00    +0.000 C 
ATOM     12  C   UNL     1      -3.055  14.704  21.881  0.00  0.00    +0.000 C 
ATOM     13  C   UNL     1      -4.564  14.550  22.057  0.00  0.00    +0.000 C 
ATOM     14  C   UNL     1      -5.210  13.924  20.831  0.00  0.00    +0.000 C 
ATOM     15  C   UNL     1      -4.531  12.604  20.477  0.00  0.00    +0.000 C 
ATOM     16  C   UNL     1      -3.008  12.699  20.309  0.00  0.00    +0.000 C 
BRANCH  14  17
ATOM     17  O   UNL     1      -5.161  14.852  19.741  0.00  0.00    +0.000 OA
ATOM     18  H   UNL     1      -4.929  15.718  20.123  0.00  0.00    +0.000 HD
ENDBRANCH  14  17
ENDBRANCH   9  10
ENDBRANCH   8   9
ENDBRANCH   7   8
ENDBRANCH   4   7
ENDBRANCH   3   4
ENDBRANCH   2   3
ENDBRANCH   1   2
BRANCH   1  19
ATOM     19  C   UNL     1       2.764   7.777  18.060  0.00  0.00    +0.000 C 
BRANCH  19  20
ATOM     20  C   UNL     1       2.336   6.352  18.454  0.00  0.00    +0.000 C 
BRANCH  20  21
ATOM     21  C   UNL     1       2.707   6.069  19.921  0.00  0.00    +0.000 C 
BRANCH  21  22
ATOM     22  C   UNL     1       1.679   5.185  20.620  0.00  0.00    +0.000 C 
BRANCH  22  23
ATOM     23  C   UNL     1       2.357   4.236  21.620  0.00  0.00    +0.000 C 
BRANCH  23  24
ATOM     24  C   UNL     1       2.171   2.786  21.196  0.00  0.00    +0.000 C 
BRANCH  24  25
ATOM     25  C   UNL     1       2.986   2.469  19.948  0.00  0.00    +0.000 C 
BRANCH  25  26
ATOM     26  C   UNL     1       2.056   2.083  18.803  0.00  0.00    +0.000 C 
BRANCH  26  27
ATOM     27  C   UNL     1       2.768   2.227  17.467  0.00  0.00    +0.000 C 
BRANCH  27  28
ATOM     28  C   UNL     1       4.073   3.008  17.628  0.00  0.00    +0.000 C 
BRANCH  28  29
ATOM     29  C   UNL     1       4.225   4.027  16.504  0.00  0.00    +0.000 C 
BRANCH  29  30
ATOM     30  C   UNL     1       5.268   5.069  16.875  0.00  0.00    +0.000 C 
BRANCH  30  31
ATOM     31  C   UNL     1       5.944   4.711  18.205  0.00  0.00    +0.000 C 
BRANCH  31  32
ATOM     32  C   UNL     1       7.442   4.965  18.126  0.00  0.00    +0.000 C 
BRANCH  32  34
ATOM     33  C   UNL     1       7.639   7.429  17.683  0.00  0.00    +0.000 C 
ATOM     34  C   UNL     1       7.797   6.327  18.716  0.00  0.00    +0.000 C 
ENDBRANCH  32  34
ENDBRANCH  31  32
ENDBRANCH  30  31
ENDBRANCH  29  30
ENDBRANCH  28  29
ENDBRANCH  27  28
ENDBRANCH  26  27
ENDBRANCH  25  26
ENDBRANCH  24  25
ENDBRANCH  23  24
ENDBRANCH  22  23
ENDBRANCH  21  22
ENDBRANCH  20  21
ENDBRANCH  19  20
ENDBRANCH   1  19
TORSDOF 23
ENDMDL
MODEL 4
REMARK VINA RESULT:      -5.5      2.148      4.878
REMARK  Name = 
REMARK  25 active torsions:
REMARK  status: ('A' for Active; 'I' for Inactive)
REMARK    1  A    between atoms: C_1  and  C_2
REMARK    2  A    between atoms: C_2  and  C_3
REMARK    3  A    between atoms: C_3  and  C_4
REMARK    4  A    between atoms: C_4  and  C_5
REMARK    5  A    between atoms: C_5  and  C_6
REMARK    6  A    between atoms: C_6  and  C_7
REMARK    7  A    between atoms: C_7  and  C_8
REMARK    8  A    between atoms: C_8  and  C_9
REMARK    9  A    between atoms: C_9  and  C_10
REMARK   10  A    between atoms: C_10  and  C_11
REMARK   11  A    between atoms: C_11  and  C_12
REMARK   12  A    between atoms: C_12  and  C_13
REMARK   13  A    between atoms: C_13  and  C_14
REMARK   14  A    between atoms: C_14  and  C_15
REMARK   15  A    between atoms: C_15  and  C_16
REMARK   16  A    between atoms: C_16  and  C_17
REMARK   17  A    between atoms: C_17  and  C_18
REMARK   18  A    between atoms: C_18  and  O_19
REMARK   19  A    between atoms: O_19  and  P_20
REMARK   20  A    between atoms: P_20  and  O_23
REMARK   21  A    between atoms: O_23  and  C_24
REMARK   22  A    between atoms: C_24  and  C_25
REMARK   23  A    between atoms: C_25  and  N_26
REMARK   24  A    between atoms: N_26  and  C_27
REMARK   25  A    between atoms: C_30  and  O_31
REMARK                            x       y       z     vdW  Elec       q    Type
REMARK                         _______ _______ _______ _____ _____    ______ ____
ROOT
ATOM      1  C   UNL     1       3.961   7.005  18.196  0.00  0.00    +0.000 C 
ENDROOT
BRANCH   1   2
ATOM      2  C   UNL     1       4.457   7.160  16.728  0.00  0.00    +0.000 C 
BRANCH   2   3
ATOM      3  O   UNL     1       5.138   5.995  16.262  0.00  0.00    +0.000 OA
BRANCH   3   4
ATOM      4  P   UNL     1       6.749   5.766  16.473  0.00  0.00    +0.000 P 
ATOM      5  O   UNL     1       7.370   5.327  15.174  0.00  0.00    +0.000 OA
ATOM      6  O   UNL     1       7.300   6.953  17.227  0.00  0.00    +0.000 OA
BRANCH   4   7
ATOM      7  O   UNL     1       6.789   4.552  17.551  0.00  0.00    +0.000 OA
BRANCH   7   8
ATOM      8  C   UNL     1       5.671   4.238  18.347  0.00  0.00    +0.000 C 
BRANCH   8   9
ATOM      9  C   UNL     1       4.519   3.477  17.664  0.00  0.00    +0.000 C 
BRANCH   9  10
ATOM     10  N   UNL     1       3.460   2.769  18.590  0.00  0.00    +0.000 N 
ATOM     11  C   UNL     1       3.660   1.282  18.542  0.00  0.00    +0.000 C 
ATOM     12  C   UNL     1       3.636   3.318  20.014  0.00  0.00    +0.000 C 
ATOM     13  C   UNL     1       2.496   2.921  20.950  0.00  0.00    +0.000 C 
ATOM     14  C   UNL     1       1.144   3.345  20.399  0.00  0.00    +0.000 C 
ATOM     15  C   UNL     1       0.944   2.807  18.984  0.00  0.00    +0.000 C 
ATOM     16  C   UNL     1       2.073   3.161  18.006  0.00  0.00    +0.000 C 
BRANCH  14  17
ATOM     17  O   UNL     1       1.039   4.772  20.441  0.00  0.00    +0.000 OA
ATOM     18  H   UNL     1       1.453   5.057  21.276  0.00  0.00    +0.000 HD
ENDBRANCH  14  17
ENDBRANCH   9  10
ENDBRANCH   8   9
ENDBRANCH   7   8
ENDBRANCH   4   7
ENDBRANCH   3   4
ENDBRANCH   2   3
ENDBRANCH   1   2
BRANCH   1  19
ATOM     19  C   UNL     1       2.447   7.283  18.313  0.00  0.00    +0.000 C 
BRANCH  19  20
ATOM     20  C   UNL     1       1.955   8.564  17.617  0.00  0.00    +0.000 C 
BRANCH  20  21
ATOM     21  C   UNL     1       1.764   9.692  18.646  0.00  0.00    +0.000 C 
BRANCH  21  22
ATOM     22  C   UNL     1       0.567   9.447  19.561  0.00  0.00    +0.000 C 
BRANCH  22  23
ATOM     23  C   UNL     1       1.003   8.772  20.870  0.00  0.00    +0.000 C 
BRANCH  23  24
ATOM     24  C   UNL     1      -0.107   8.848  21.910  0.00  0.00    +0.000 C 
BRANCH  24  25
ATOM     25  C   UNL     1       0.076  10.055  22.821  0.00  0.00    +0.000 C 
BRANCH  25  26
ATOM     26  C   UNL     1      -1.282  10.658  23.165  0.00  0.00    +0.000 C 
BRANCH  26  27
ATOM     27  C   UNL     1      -1.295  12.148  22.861  0.00  0.00    +0.000 C 
BRANCH  27  28
ATOM     28  C   UNL     1      -0.864  12.412  21.418  0.00  0.00    +0.000 C 
BRANCH  28  29
ATOM     29  C   UNL     1      -2.081  12.470  20.501  0.00  0.00    +0.000 C 
BRANCH  29  30
ATOM     30  C   UNL     1      -1.654  12.323  19.049  0.00  0.00    +0.000 C 
BRANCH  30  31
ATOM     31  C   UNL     1      -2.279  11.069  18.424  0.00  0.00    +0.000 C 
BRANCH  31  32
ATOM     32  C   UNL     1      -3.321  11.456  17.386  0.00  0.00    +0.000 C 
BRANCH  32  34
ATOM     33  C   UNL     1      -5.528  11.929  18.488  0.00  0.00    +0.000 C 
ATOM     34  C   UNL     1      -4.693  10.896  17.752  0.00  0.00    +0.000 C 
ENDBRANCH  32  34
ENDBRANCH  31  32
ENDBRANCH  30  31
ENDBRANCH  29  30
ENDBRANCH  28  29
ENDBRANCH  27  28
ENDBRANCH  26  27
ENDBRANCH  25  26
ENDBRANCH  24  25
ENDBRANCH  23  24
ENDBRANCH  22  23
ENDBRANCH  21  22
ENDBRANCH  20  21
ENDBRANCH  19  20
ENDBRANCH   1  19
TORSDOF 23
ENDMDL
MODEL 5
REMARK VINA RESULT:      -5.4      5.623      9.840
REMARK  Name = 
REMARK  25 active torsions:
REMARK  status: ('A' for Active; 'I' for Inactive)
REMARK    1  A    between atoms: C_1  and  C_2
REMARK    2  A    between atoms: C_2  and  C_3
REMARK    3  A    between atoms: C_3  and  C_4
REMARK    4  A    between atoms: C_4  and  C_5
REMARK    5  A    between atoms: C_5  and  C_6
REMARK    6  A    between atoms: C_6  and  C_7
REMARK    7  A    between atoms: C_7  and  C_8
REMARK    8  A    between atoms: C_8  and  C_9
REMARK    9  A    between atoms: C_9  and  C_10
REMARK   10  A    between atoms: C_10  and  C_11
REMARK   11  A    between atoms: C_11  and  C_12
REMARK   12  A    between atoms: C_12  and  C_13
REMARK   13  A    between atoms: C_13  and  C_14
REMARK   14  A    between atoms: C_14  and  C_15
REMARK   15  A    between atoms: C_15  and  C_16
REMARK   16  A    between atoms: C_16  and  C_17
REMARK   17  A    between atoms: C_17  and  C_18
REMARK   18  A    between atoms: C_18  and  O_19
REMARK   19  A    between atoms: O_19  and  P_20
REMARK   20  A    between atoms: P_20  and  O_23
REMARK   21  A    between atoms: O_23  and  C_24
REMARK   22  A    between atoms: C_24  and  C_25
REMARK   23  A    between atoms: C_25  and  N_26
REMARK   24  A    between atoms: N_26  and  C_27
REMARK   25  A    between atoms: C_30  and  O_31
REMARK                            x       y       z     vdW  Elec       q    Type
REMARK                         _______ _______ _______ _____ _____    ______ ____
ROOT
ATOM      1  C   UNL     1       1.709   9.244  19.030  0.00  0.00    +0.000 C 
ENDROOT
BRANCH   1   2
ATOM      2  C   UNL     1       0.375   9.904  18.573  0.00  0.00    +0.000 C 
BRANCH   2   3
ATOM      3  O   UNL     1       0.468  11.327  18.513  0.00  0.00    +0.000 OA
BRANCH   3   4
ATOM      4  P   UNL     1       0.259  12.285  19.829  0.00  0.00    +0.000 P 
ATOM      5  O   UNL     1      -0.585  13.475  19.456  0.00  0.00    +0.000 OA
ATOM      6  O   UNL     1      -0.124  11.407  20.996  0.00  0.00    +0.000 OA
BRANCH   4   7
ATOM      7  O   UNL     1       1.776  12.757  20.161  0.00  0.00    +0.000 OA
BRANCH   7   8
ATOM      8  C   UNL     1       2.232  14.049  19.840  0.00  0.00    +0.000 C 
BRANCH   8   9
ATOM      9  C   UNL     1       3.394  14.149  18.832  0.00  0.00    +0.000 C 
BRANCH   9  10
ATOM     10  N   UNL     1       4.548  15.171  19.148  0.00  0.00    +0.000 N 
ATOM     11  C   UNL     1       4.040  16.575  18.987  0.00  0.00    +0.000 C 
ATOM     12  C   UNL     1       5.037  14.906  20.579  0.00  0.00    +0.000 C 
ATOM     13  C   UNL     1       6.334  15.641  20.912  0.00  0.00    +0.000 C 
ATOM     14  C   UNL     1       7.438  15.306  19.923  0.00  0.00    +0.000 C 
ATOM     15  C   UNL     1       6.977  15.565  18.490  0.00  0.00    +0.000 C 
ATOM     16  C   UNL     1       5.666  14.865  18.110  0.00  0.00    +0.000 C 
BRANCH  14  17
ATOM     17  O   UNL     1       7.846  13.946  20.108  0.00  0.00    +0.000 OA
ATOM     18  H   UNL     1       7.034  13.430  20.260  0.00  0.00    +0.000 HD
ENDBRANCH  14  17
ENDBRANCH   9  10
ENDBRANCH   8   9
ENDBRANCH   7   8
ENDBRANCH   4   7
ENDBRANCH   3   4
ENDBRANCH   2   3
ENDBRANCH   1   2
BRANCH   1  19
ATOM     19  C   UNL     1       2.316   8.365  17.917  0.00  0.00    +0.000 C 
BRANCH  19  20
ATOM     20  C   UNL     1       2.244   6.847  18.159  0.00  0.00    +0.000 C 
BRANCH  20  21
ATOM     21  C   UNL     1       2.811   6.502  19.548  0.00  0.00    +0.000 C 
BRANCH  21  22
ATOM     22  C   UNL     1       1.749   5.934  20.485  0.00  0.00    +0.000 C 
BRANCH  22  23
ATOM     23  C   UNL     1       2.202   4.595  21.085  0.00  0.00    +0.000 C 
BRANCH  23  24
ATOM     24  C   UNL     1       1.131   3.530  20.892  0.00  0.00    +0.000 C 
BRANCH  24  25
ATOM     25  C   UNL     1       1.036   3.106  19.432  0.00  0.00    +0.000 C 
BRANCH  25  26
ATOM     26  C   UNL     1       2.133   2.097  19.109  0.00  0.00    +0.000 C 
BRANCH  26  27
ATOM     27  C   UNL     1       2.473   2.136  17.628  0.00  0.00    +0.000 C 
BRANCH  27  28
ATOM     28  C   UNL     1       2.983   3.520  17.223  0.00  0.00    +0.000 C 
BRANCH  28  29
ATOM     29  C   UNL     1       4.437   3.696  17.647  0.00  0.00    +0.000 C 
BRANCH  29  30
ATOM     30  C   UNL     1       5.189   4.521  16.615  0.00  0.00    +0.000 C 
BRANCH  30  31
ATOM     31  C   UNL     1       6.659   4.688  17.020  0.00  0.00    +0.000 C 
BRANCH  31  32
ATOM     32  C   UNL     1       7.154   6.082  16.667  0.00  0.00    +0.000 C 
BRANCH  32  34
ATOM     33  C   UNL     1       7.725   5.898  19.106  0.00  0.00    +0.000 C 
ATOM     34  C   UNL     1       7.606   6.834  17.916  0.00  0.00    +0.000 C 
ENDBRANCH  32  34
ENDBRANCH  31  32
ENDBRANCH  30  31
ENDBRANCH  29  30
ENDBRANCH  28  29
ENDBRANCH  27  28
ENDBRANCH  26  27
ENDBRANCH  25  26
ENDBRANCH  24  25
ENDBRANCH  23  24
ENDBRANCH  22  23
ENDBRANCH  21  22
ENDBRANCH  20  21
ENDBRANCH  19  20
ENDBRANCH   1  19
TORSDOF 23
ENDMDL
MODEL 6
REMARK VINA RESULT:      -5.4      4.300     10.645
REMARK  Name = 
REMARK  25 active torsions:
REMARK  status: ('A' for Active; 'I' for Inactive)
REMARK    1  A    between atoms: C_1  and  C_2
REMARK    2  A    between atoms: C_2  and  C_3
REMARK    3  A    between atoms: C_3  and  C_4
REMARK    4  A    between atoms: C_4  and  C_5
REMARK    5  A    between atoms: C_5  and  C_6
REMARK    6  A    between atoms: C_6  and  C_7
REMARK    7  A    between atoms: C_7  and  C_8
REMARK    8  A    between atoms: C_8  and  C_9
REMARK    9  A    between atoms: C_9  and  C_10
REMARK   10  A    between atoms: C_10  and  C_11
REMARK   11  A    between atoms: C_11  and  C_12
REMARK   12  A    between atoms: C_12  and  C_13
REMARK   13  A    between atoms: C_13  and  C_14
REMARK   14  A    between atoms: C_14  and  C_15
REMARK   15  A    between atoms: C_15  and  C_16
REMARK   16  A    between atoms: C_16  and  C_17
REMARK   17  A    between atoms: C_17  and  C_18
REMARK   18  A    between atoms: C_18  and  O_19
REMARK   19  A    between atoms: O_19  and  P_20
REMARK   20  A    between atoms: P_20  and  O_23
REMARK   21  A    between atoms: O_23  and  C_24
REMARK   22  A    between atoms: C_24  and  C_25
REMARK   23  A    between atoms: C_25  and  N_26
REMARK   24  A    between atoms: N_26  and  C_27
REMARK   25  A    between atoms: C_30  and  O_31
REMARK                            x       y       z     vdW  Elec       q    Type
REMARK                         _______ _______ _______ _____ _____    ______ ____
ROOT
ATOM      1  C   UNL     1       1.893   7.519  18.697  0.00  0.00    +0.000 C 
ENDROOT
BRANCH   1   2
ATOM      2  C   UNL     1       1.954   8.995  19.189  0.00  0.00    +0.000 C 
BRANCH   2   3
ATOM      3  O   UNL     1       0.743   9.403  19.826  0.00  0.00    +0.000 OA
BRANCH   3   4
ATOM      4  P   UNL     1       0.565   9.429  21.456  0.00  0.00    +0.000 P 
ATOM      5  O   UNL     1      -0.631   8.601  21.846  0.00  0.00    +0.000 OA
ATOM      6  O   UNL     1       1.915   9.172  22.083  0.00  0.00    +0.000 OA
BRANCH   4   7
ATOM      7  O   UNL     1       0.278  11.000  21.750  0.00  0.00    +0.000 OA
BRANCH   7   8
ATOM      8  C   UNL     1      -0.938  11.606  21.382  0.00  0.00    +0.000 C 
BRANCH   8   9
ATOM      9  C   UNL     1      -1.312  12.915  22.105  0.00  0.00    +0.000 C 
BRANCH   9  10
ATOM     10  N   UNL     1      -2.843  13.223  22.311  0.00  0.00    +0.000 N 
ATOM     11  C   UNL     1      -3.373  12.412  23.458  0.00  0.00    +0.000 C 
ATOM     12  C   UNL     1      -2.992  14.730  22.567  0.00  0.00    +0.000 C 
ATOM     13  C   UNL     1      -4.443  15.204  22.509  0.00  0.00    +0.000 C 
ATOM     14  C   UNL     1      -5.099  14.839  21.187  0.00  0.00    +0.000 C 
ATOM     15  C   UNL     1      -4.967  13.343  20.912  0.00  0.00    +0.000 C 
ATOM     16  C   UNL     1      -3.529  12.811  20.978  0.00  0.00    +0.000 C 
BRANCH  14  17
ATOM     17  O   UNL     1      -4.521  15.622  20.137  0.00  0.00    +0.000 OA
ATOM     18  H   UNL     1      -3.883  16.227  20.560  0.00  0.00    +0.000 HD
ENDBRANCH  14  17
ENDBRANCH   9  10
ENDBRANCH   8   9
ENDBRANCH   7   8
ENDBRANCH   4   7
ENDBRANCH   3   4
ENDBRANCH   2   3
ENDBRANCH   1   2
BRANCH   1  19
ATOM     19  C   UNL     1       2.597   6.565  19.684  0.00  0.00    +0.000 C 
BRANCH  19  20
ATOM     20  C   UNL     1       1.677   5.875  20.707  0.00  0.00    +0.000 C 
BRANCH  20  21
ATOM     21  C   UNL     1       2.325   4.576  21.217  0.00  0.00    +0.000 C 
BRANCH  21  22
ATOM     22  C   UNL     1       1.423   3.361  21.022  0.00  0.00    +0.000 C 
BRANCH  22  23
ATOM     23  C   UNL     1       0.503   3.548  19.806  0.00  0.00    +0.000 C 
BRANCH  23  24
ATOM     24  C   UNL     1       0.842   2.541  18.715  0.00  0.00    +0.000 C 
BRANCH  24  25
ATOM     25  C   UNL     1       2.035   1.681  19.112  0.00  0.00    +0.000 C 
BRANCH  25  26
ATOM     26  C   UNL     1       3.233   2.012  18.229  0.00  0.00    +0.000 C 
BRANCH  26  27
ATOM     27  C   UNL     1       4.351   2.626  19.057  0.00  0.00    +0.000 C 
BRANCH  27  28
ATOM     28  C   UNL     1       5.054   3.740  18.280  0.00  0.00    +0.000 C 
BRANCH  28  29
ATOM     29  C   UNL     1       4.139   4.289  17.191  0.00  0.00    +0.000 C 
BRANCH  29  30
ATOM     30  C   UNL     1       4.574   5.690  16.794  0.00  0.00    +0.000 C 
BRANCH  30  31
ATOM     31  C   UNL     1       5.646   5.636  15.698  0.00  0.00    +0.000 C 
BRANCH  31  32
ATOM     32  C   UNL     1       7.029   5.853  16.294  0.00  0.00    +0.000 C 
BRANCH  32  34
ATOM     33  C   UNL     1       7.758   6.324  18.651  0.00  0.00    +0.000 C 
ATOM     34  C   UNL     1       6.975   6.841  17.456  0.00  0.00    +0.000 C 
ENDBRANCH  32  34
ENDBRANCH  31  32
ENDBRANCH  30  31
ENDBRANCH  29  30
ENDBRANCH  28  29
ENDBRANCH  27  28
ENDBRANCH  26  27
ENDBRANCH  25  26
ENDBRANCH  24  25
ENDBRANCH  23  24
ENDBRANCH  22  23
ENDBRANCH  21  22
ENDBRANCH  20  21
ENDBRANCH  19  20
ENDBRANCH   1  19
TORSDOF 23
ENDMDL
MODEL 7
REMARK VINA RESULT:      -5.4      6.644     10.342
REMARK  Name = 
REMARK  25 active torsions:
REMARK  status: ('A' for Active; 'I' for Inactive)
REMARK    1  A    between atoms: C_1  and  C_2
REMARK    2  A    between atoms: C_2  and  C_3
REMARK    3  A    between atoms: C_3  and  C_4
REMARK    4  A    between atoms: C_4  and  C_5
REMARK    5  A    between atoms: C_5  and  C_6
REMARK    6  A    between atoms: C_6  and  C_7
REMARK    7  A    between atoms: C_7  and  C_8
REMARK    8  A    between atoms: C_8  and  C_9
REMARK    9  A    between atoms: C_9  and  C_10
REMARK   10  A    between atoms: C_10  and  C_11
REMARK   11  A    between atoms: C_11  and  C_12
REMARK   12  A    between atoms: C_12  and  C_13
REMARK   13  A    between atoms: C_13  and  C_14
REMARK   14  A    between atoms: C_14  and  C_15
REMARK   15  A    between atoms: C_15  and  C_16
REMARK   16  A    between atoms: C_16  and  C_17
REMARK   17  A    between atoms: C_17  and  C_18
REMARK   18  A    between atoms: C_18  and  O_19
REMARK   19  A    between atoms: O_19  and  P_20
REMARK   20  A    between atoms: P_20  and  O_23
REMARK   21  A    between atoms: O_23  and  C_24
REMARK   22  A    between atoms: C_24  and  C_25
REMARK   23  A    between atoms: C_25  and  N_26
REMARK   24  A    between atoms: N_26  and  C_27
REMARK   25  A    between atoms: C_30  and  O_31
REMARK                            x       y       z     vdW  Elec       q    Type
REMARK                         _______ _______ _______ _____ _____    ______ ____
ROOT
ATOM      1  C   UNL     1       6.711   8.358  17.452  0.00  0.00    +0.000 C 
ENDROOT
BRANCH   1   2
ATOM      2  C   UNL     1       6.214   6.883  17.517  0.00  0.00    +0.000 C 
BRANCH   2   3
ATOM      3  O   UNL     1       6.043   6.312  16.220  0.00  0.00    +0.000 OA
BRANCH   3   4
ATOM      4  P   UNL     1       6.945   5.054  15.679  0.00  0.00    +0.000 P 
ATOM      5  O   UNL     1       7.609   5.432  14.381  0.00  0.00    +0.000 OA
ATOM      6  O   UNL     1       7.760   4.526  16.835  0.00  0.00    +0.000 OA
BRANCH   4   7
ATOM      7  O   UNL     1       5.824   3.908  15.420  0.00  0.00    +0.000 OA
BRANCH   7   8
ATOM      8  C   UNL     1       5.236   3.201  16.486  0.00  0.00    +0.000 C 
BRANCH   8   9
ATOM      9  C   UNL     1       4.120   3.920  17.269  0.00  0.00    +0.000 C 
BRANCH   9  10
ATOM     10  N   UNL     1       3.326   3.085  18.341  0.00  0.00    +0.000 N 
ATOM     11  C   UNL     1       3.690   1.633  18.224  0.00  0.00    +0.000 C 
ATOM     12  C   UNL     1       3.671   3.645  19.729  0.00  0.00    +0.000 C 
ATOM     13  C   UNL     1       2.762   3.108  20.832  0.00  0.00    +0.000 C 
ATOM     14  C   UNL     1       1.296   3.366  20.524  0.00  0.00    +0.000 C 
ATOM     15  C   UNL     1       0.926   2.814  19.150  0.00  0.00    +0.000 C 
ATOM     16  C   UNL     1       1.823   3.307  18.006  0.00  0.00    +0.000 C 
BRANCH  14  17
ATOM     17  O   UNL     1       1.029   4.770  20.619  0.00  0.00    +0.000 OA
ATOM     18  H   UNL     1       1.801   5.170  21.060  0.00  0.00    +0.000 HD
ENDBRANCH  14  17
ENDBRANCH   9  10
ENDBRANCH   8   9
ENDBRANCH   7   8
ENDBRANCH   4   7
ENDBRANCH   3   4
ENDBRANCH   2   3
ENDBRANCH   1   2
BRANCH   1  19
ATOM     19  C   UNL     1       8.176   8.483  17.919  0.00  0.00    +0.000 C 
BRANCH  19  20
ATOM     20  C   UNL     1       8.678   9.920  18.143  0.00  0.00    +0.000 C 
BRANCH  20  21
ATOM     21  C   UNL     1       9.360  10.039  19.518  0.00  0.00    +0.000 C 
BRANCH  21  22
ATOM     22  C   UNL     1      10.079  11.373  19.697  0.00  0.00    +0.000 C 
BRANCH  22  23
ATOM     23  C   UNL     1      11.324  11.452  18.800  0.00  0.00    +0.000 C 
BRANCH  23  24
ATOM     24  C   UNL     1      12.333  12.440  19.368  0.00  0.00    +0.000 C 
BRANCH  24  25
ATOM     25  C   UNL     1      12.287  13.765  18.619  0.00  0.00    +0.000 C 
BRANCH  25  26
ATOM     26  C   UNL     1      11.264  13.691  17.490  0.00  0.00    +0.000 C 
BRANCH  26  27
ATOM     27  C   UNL     1      10.044  14.536  17.821  0.00  0.00    +0.000 C 
BRANCH  27  28
ATOM     28  C   UNL     1      10.454  15.965  18.178  0.00  0.00    +0.000 C 
BRANCH  28  29
ATOM     29  C   UNL     1      10.192  16.241  19.655  0.00  0.00    +0.000 C 
BRANCH  29  30
ATOM     30  C   UNL     1       9.341  15.134  20.254  0.00  0.00    +0.000 C 
BRANCH  30  31
ATOM     31  C   UNL     1       9.863  14.737  21.641  0.00  0.00    +0.000 C 
BRANCH  31  32
ATOM     32  C   UNL     1       8.900  15.198  22.725  0.00  0.00    +0.000 C 
BRANCH  32  34
ATOM     33  C   UNL     1      10.822  16.445  23.755  0.00  0.00    +0.000 C 
ATOM     34  C   UNL     1       9.361  16.515  23.343  0.00  0.00    +0.000 C 
ENDBRANCH  32  34
ENDBRANCH  31  32
ENDBRANCH  30  31
ENDBRANCH  29  30
ENDBRANCH  28  29
ENDBRANCH  27  28
ENDBRANCH  26  27
ENDBRANCH  25  26
ENDBRANCH  24  25
ENDBRANCH  23  24
ENDBRANCH  22  23
ENDBRANCH  21  22
ENDBRANCH  20  21
ENDBRANCH  19  20
ENDBRANCH   1  19
TORSDOF 23
ENDMDL
MODEL 8
REMARK VINA RESULT:      -5.4      5.078     10.197
REMARK  Name = 
REMARK  25 active torsions:
REMARK  status: ('A' for Active; 'I' for Inactive)
REMARK    1  A    between atoms: C_1  and  C_2
REMARK    2  A    between atoms: C_2  and  C_3
REMARK    3  A    between atoms: C_3  and  C_4
REMARK    4  A    between atoms: C_4  and  C_5
REMARK    5  A    between atoms: C_5  and  C_6
REMARK    6  A    between atoms: C_6  and  C_7
REMARK    7  A    between atoms: C_7  and  C_8
REMARK    8  A    between atoms: C_8  and  C_9
REMARK    9  A    between atoms: C_9  and  C_10
REMARK   10  A    between atoms: C_10  and  C_11
REMARK   11  A    between atoms: C_11  and  C_12
REMARK   12  A    between atoms: C_12  and  C_13
REMARK   13  A    between atoms: C_13  and  C_14
REMARK   14  A    between atoms: C_14  and  C_15
REMARK   15  A    between atoms: C_15  and  C_16
REMARK   16  A    between atoms: C_16  and  C_17
REMARK   17  A    between atoms: C_17  and  C_18
REMARK   18  A    between atoms: C_18  and  O_19
REMARK   19  A    between atoms: O_19  and  P_20
REMARK   20  A    between atoms: P_20  and  O_23
REMARK   21  A    between atoms: O_23  and  C_24
REMARK   22  A    between atoms: C_24  and  C_25
REMARK   23  A    between atoms: C_25  and  N_26
REMARK   24  A    between atoms: N_26  and  C_27
REMARK   25  A    between atoms: C_30  and  O_31
REMARK                            x       y       z     vdW  Elec       q    Type
REMARK                         _______ _______ _______ _____ _____    ______ ____
ROOT
ATOM      1  C   UNL     1       1.200   9.571  17.767  0.00  0.00    +0.000 C 
ENDROOT
BRANCH   1   2
ATOM      2  C   UNL     1      -0.197  10.016  18.291  0.00  0.00    +0.000 C 
BRANCH   2   3
ATOM      3  O   UNL     1      -0.226  10.143  19.712  0.00  0.00    +0.000 OA
BRANCH   3   4
ATOM      4  P   UNL     1      -0.491  11.574  20.469  0.00  0.00    +0.000 P 
ATOM      5  O   UNL     1      -1.128  12.543  19.507  0.00  0.00    +0.000 OA
ATOM      6  O   UNL     1      -1.129  11.289  21.808  0.00  0.00    +0.000 OA
BRANCH   4   7
ATOM      7  O   UNL     1       1.015  12.058  20.836  0.00  0.00    +0.000 OA
BRANCH   7   8
ATOM      8  C   UNL     1       1.842  12.675  19.879  0.00  0.00    +0.000 C 
BRANCH   8   9
ATOM      9  C   UNL     1       2.560  13.970  20.307  0.00  0.00    +0.000 C 
BRANCH   9  10
ATOM     10  N   UNL     1       1.741  15.313  20.246  0.00  0.00    +0.000 N 
ATOM     11  C   UNL     1       0.805  15.389  21.417  0.00  0.00    +0.000 C 
ATOM     12  C   UNL     1       2.741  16.478  20.245  0.00  0.00    +0.000 C 
ATOM     13  C   UNL     1       2.093  17.820  19.912  0.00  0.00    +0.000 C 
ATOM     14  C   UNL     1       1.358  17.773  18.582  0.00  0.00    +0.000 C 
ATOM     15  C   UNL     1       0.353  16.624  18.560  0.00  0.00    +0.000 C 
ATOM     16  C   UNL     1       0.950  15.253  18.908  0.00  0.00    +0.000 C 
BRANCH  14  17
ATOM     17  O   UNL     1       2.309  17.664  17.517  0.00  0.00    +0.000 OA
ATOM     18  H   UNL     1       1.833  17.888  16.696  0.00  0.00    +0.000 HD
ENDBRANCH  14  17
ENDBRANCH   9  10
ENDBRANCH   8   9
ENDBRANCH   7   8
ENDBRANCH   4   7
ENDBRANCH   3   4
ENDBRANCH   2   3
ENDBRANCH   1   2
BRANCH   1  19
ATOM     19  C   UNL     1       1.910   8.638  18.771  0.00  0.00    +0.000 C 
BRANCH  19  20
ATOM     20  C   UNL     1       2.496   7.347  18.174  0.00  0.00    +0.000 C 
BRANCH  20  21
ATOM     21  C   UNL     1       3.055   6.448  19.291  0.00  0.00    +0.000 C 
BRANCH  21  22
ATOM     22  C   UNL     1       1.988   6.053  20.308  0.00  0.00    +0.000 C 
BRANCH  22  23
ATOM     23  C   UNL     1       2.389   4.774  21.059  0.00  0.00    +0.000 C 
BRANCH  23  24
ATOM     24  C   UNL     1       1.267   3.747  21.009  0.00  0.00    +0.000 C 
BRANCH  24  25
ATOM     25  C   UNL     1       1.820   2.333  20.887  0.00  0.00    +0.000 C 
BRANCH  25  26
ATOM     26  C   UNL     1       1.909   1.933  19.418  0.00  0.00    +0.000 C 
BRANCH  26  27
ATOM     27  C   UNL     1       0.948   2.762  18.581  0.00  0.00    +0.000 C 
BRANCH  27  28
ATOM     28  C   UNL     1       1.694   3.506  17.473  0.00  0.00    +0.000 C 
BRANCH  28  29
ATOM     29  C   UNL     1       3.198   3.293  17.608  0.00  0.00    +0.000 C 
BRANCH  29  30
ATOM     30  C   UNL     1       3.944   4.167  16.613  0.00  0.00    +0.000 C 
BRANCH  30  31
ATOM     31  C   UNL     1       5.346   4.509  17.136  0.00  0.00    +0.000 C 
BRANCH  31  32
ATOM     32  C   UNL     1       6.096   5.364  16.127  0.00  0.00    +0.000 C 
BRANCH  32  34
ATOM     33  C   UNL     1       6.324   4.108  13.963  0.00  0.00    +0.000 C 
ATOM     34  C   UNL     1       7.013   4.507  15.257  0.00  0.00    +0.000 C 
ENDBRANCH  32  34
ENDBRANCH  31  32
ENDBRANCH  30  31
ENDBRANCH  29  30
ENDBRANCH  28  29
ENDBRANCH  27  28
ENDBRANCH  26  27
ENDBRANCH  25  26
ENDBRANCH  24  25
ENDBRANCH  23  24
ENDBRANCH  22  23
ENDBRANCH  21  22
ENDBRANCH  20  21
ENDBRANCH  19  20
ENDBRANCH   1  19
TORSDOF 23
ENDMDL
MODEL 9
REMARK VINA RESULT:      -5.3      2.817      5.351
REMARK  Name = 
REMARK  25 active torsions:
REMARK  status: ('A' for Active; 'I' for Inactive)
REMARK    1  A    between atoms: C_1  and  C_2
REMARK    2  A    between atoms: C_2  and  C_3
REMARK    3  A    between atoms: C_3  and  C_4
REMARK    4  A    between atoms: C_4  and  C_5
REMARK    5  A    between atoms: C_5  and  C_6
REMARK    6  A    between atoms: C_6  and  C_7
REMARK    7  A    between atoms: C_7  and  C_8
REMARK    8  A    between atoms: C_8  and  C_9
REMARK    9  A    between atoms: C_9  and  C_10
REMARK   10  A    between atoms: C_10  and  C_11
REMARK   11  A    between atoms: C_11  and  C_12
REMARK   12  A    between atoms: C_12  and  C_13
REMARK   13  A    between atoms: C_13  and  C_14
REMARK   14  A    between atoms: C_14  and  C_15
REMARK   15  A    between atoms: C_15  and  C_16
REMARK   16  A    between atoms: C_16  and  C_17
REMARK   17  A    between atoms: C_17  and  C_18
REMARK   18  A    between atoms: C_18  and  O_19
REMARK   19  A    between atoms: O_19  and  P_20
REMARK   20  A    between atoms: P_20  and  O_23
REMARK   21  A    between atoms: O_23  and  C_24
REMARK   22  A    between atoms: C_24  and  C_25
REMARK   23  A    between atoms: C_25  and  N_26
REMARK   24  A    between atoms: N_26  and  C_27
REMARK   25  A    between atoms: C_30  and  O_31
REMARK                            x       y       z     vdW  Elec       q    Type
REMARK                         _______ _______ _______ _____ _____    ______ ____
ROOT
ATOM      1  C   UNL     1       3.521   7.081  17.569  0.00  0.00    +0.000 C 
ENDROOT
BRANCH   1   2
ATOM      2  C   UNL     1       4.863   7.075  16.779  0.00  0.00    +0.000 C 
BRANCH   2   3
ATOM      3  O   UNL     1       5.988   7.330  17.621  0.00  0.00    +0.000 OA
BRANCH   3   4
ATOM      4  P   UNL     1       7.081   6.173  18.015  0.00  0.00    +0.000 P 
ATOM      5  O   UNL     1       7.464   5.401  16.781  0.00  0.00    +0.000 OA
ATOM      6  O   UNL     1       8.141   6.803  18.887  0.00  0.00    +0.000 OA
BRANCH   4   7
ATOM      7  O   UNL     1       6.237   5.226  19.028  0.00  0.00    +0.000 OA
BRANCH   7   8
ATOM      8  C   UNL     1       5.840   3.927  18.661  0.00  0.00    +0.000 C 
BRANCH   8   9
ATOM      9  C   UNL     1       4.478   3.787  17.953  0.00  0.00    +0.000 C 
BRANCH   9  10
ATOM     10  N   UNL     1       3.398   2.858  18.623  0.00  0.00    +0.000 N 
ATOM     11  C   UNL     1       3.732   1.419  18.355  0.00  0.00    +0.000 C 
ATOM     12  C   UNL     1       3.379   3.164  20.128  0.00  0.00    +0.000 C 
ATOM     13  C   UNL     1       2.190   2.532  20.849  0.00  0.00    +0.000 C 
ATOM     14  C   UNL     1       0.869   2.949  20.223  0.00  0.00    +0.000 C 
ATOM     15  C   UNL     1       0.862   2.651  18.726  0.00  0.00    +0.000 C 
ATOM     16  C   UNL     1       2.048   3.247  17.955  0.00  0.00    +0.000 C 
BRANCH  14  17
ATOM     17  O   UNL     1       0.634   4.337  20.487  0.00  0.00    +0.000 OA
ATOM     18  H   UNL     1       1.458   4.806  20.259  0.00  0.00    +0.000 HD
ENDBRANCH  14  17
ENDBRANCH   9  10
ENDBRANCH   8   9
ENDBRANCH   7   8
ENDBRANCH   4   7
ENDBRANCH   3   4
ENDBRANCH   2   3
ENDBRANCH   1   2
BRANCH   1  19
ATOM     19  C   UNL     1       2.925   8.501  17.660  0.00  0.00    +0.000 C 
BRANCH  19  20
ATOM     20  C   UNL     1       1.502   8.585  18.239  0.00  0.00    +0.000 C 
BRANCH  20  21
ATOM     21  C   UNL     1       1.113  10.053  18.490  0.00  0.00    +0.000 C 
BRANCH  21  22
ATOM     22  C   UNL     1       0.830  10.337  19.962  0.00  0.00    +0.000 C 
BRANCH  22  23
ATOM     23  C   UNL     1       0.679   9.030  20.755  0.00  0.00    +0.000 C 
BRANCH  23  24
ATOM     24  C   UNL     1       0.124   9.306  22.146  0.00  0.00    +0.000 C 
BRANCH  24  25
ATOM     25  C   UNL     1      -0.161  10.789  22.339  0.00  0.00    +0.000 C 
BRANCH  25  26
ATOM     26  C   UNL     1      -1.418  10.973  23.184  0.00  0.00    +0.000 C 
BRANCH  26  27
ATOM     27  C   UNL     1      -2.059  12.322  22.898  0.00  0.00    +0.000 C 
BRANCH  27  28
ATOM     28  C   UNL     1      -2.037  12.627  21.400  0.00  0.00    +0.000 C 
BRANCH  28  29
ATOM     29  C   UNL     1      -3.450  12.886  20.888  0.00  0.00    +0.000 C 
BRANCH  29  30
ATOM     30  C   UNL     1      -4.419  13.002  22.054  0.00  0.00    +0.000 C 
BRANCH  30  31
ATOM     31  C   UNL     1      -5.852  13.210  21.550  0.00  0.00    +0.000 C 
BRANCH  31  32
ATOM     32  C   UNL     1      -6.829  12.370  22.358  0.00  0.00    +0.000 C 
BRANCH  32  34
ATOM     33  C   UNL     1      -7.653  13.957  24.122  0.00  0.00    +0.000 C 
ATOM     34  C   UNL     1      -6.781  12.746  23.837  0.00  0.00    +0.000 C 
ENDBRANCH  32  34
ENDBRANCH  31  32
ENDBRANCH  30  31
ENDBRANCH  29  30
ENDBRANCH  28  29
ENDBRANCH  27  28
ENDBRANCH  26  27
ENDBRANCH  25  26
ENDBRANCH  24  25
ENDBRANCH  23  24
ENDBRANCH  22  23
ENDBRANCH  21  22
ENDBRANCH  20  21
ENDBRANCH  19  20
ENDBRANCH   1  19
TORSDOF 23
ENDMDL
