MODEL 1
REMARK VINA RESULT:      -7.8      0.000      0.000
REMARK  Name = 
REMARK  6 active torsions:
REMARK  status: ('A' for Active; 'I' for Inactive)
REMARK    1  A    between atoms: C_1  and  C_2
REMARK    2  A    between atoms: C_5  and  N_6
REMARK    3  A    between atoms: C_8  and  C_9
REMARK    4  A    between atoms: N_12  and  C_13
REMARK    5  A    between atoms: C_17  and  N_18
REMARK    6  A    between atoms: C_19  and  C_21
REMARK                            x       y       z     vdW  Elec       q    Type
REMARK                         _______ _______ _______ _____ _____    ______ ____
ROOT
ATOM      1  N   UNL     1       0.231  10.886  18.961  0.00  0.00    +0.000 N 
ATOM      2  N   UNL     1       0.416   9.540  19.117  0.00  0.00    +0.000 NA
ATOM      3  C   UNL     1       1.579   9.286  18.508  0.00  0.00    +0.000 A 
ATOM      4  C   UNL     1       2.231  10.474  18.126  0.00  0.00    +0.000 A 
ATOM      5  C   UNL     1       1.352  11.493  18.388  0.00  0.00    +0.000 A 
ENDROOT
BRANCH   1  10
ATOM      6  C   UNL     1      -4.791  13.168  20.502  0.00  0.00    +0.000 C 
ATOM      7  C   UNL     1      -3.459  12.608  20.093  0.00  0.00    +0.000 A 
ATOM      8  C   UNL     1      -2.341  12.711  20.932  0.00  0.00    +0.000 A 
ATOM      9  C   UNL     1      -1.122  12.122  20.572  0.00  0.00    +0.000 A 
ATOM     10  C   UNL     1      -0.998  11.478  19.332  0.00  0.00    +0.000 A 
ATOM     11  C   UNL     1      -2.105  11.396  18.494  0.00  0.00    +0.000 A 
ATOM     12  F   UNL     1      -2.039  10.744  17.324  0.00  0.00    +0.000 F 
ATOM     13  C   UNL     1      -3.333  11.930  18.875  0.00  0.00    +0.000 A 
ENDBRANCH   1  10
BRANCH   3  14
ATOM     14  C   UNL     1       2.100   7.888  18.286  0.00  0.00    +0.000 C 
ATOM     15  C   UNL     1       2.258   7.151  19.625  0.00  0.00    +0.000 C 
ATOM     16  C   UNL     1       2.970   5.811  19.467  0.00  0.00    +0.000 C 
ATOM     17  N   UNL     1       4.271   5.984  18.812  0.00  0.00    +0.000 NA
ATOM     18  C   UNL     1       4.983   4.706  18.746  0.00  0.00    +0.000 C 
ATOM     19  C   UNL     1       4.116   6.553  17.470  0.00  0.00    +0.000 C 
ATOM     20  C   UNL     1       3.449   7.924  17.540  0.00  0.00    +0.000 C 
ENDBRANCH   3  14
BRANCH   5  21
ATOM     21  N   UNL     1       1.591  12.847  18.187  0.00  0.00    +0.000 N 
ATOM     22  C   UNL     1       2.028  13.735  19.238  0.00  0.00    +0.000 C 
ATOM     23  O   UNL     1       2.232  13.395  20.375  0.00  0.00    +0.000 OA
ATOM     24  H   UNL     1       1.527  13.221  17.240  0.00  0.00    +0.000 HD
BRANCH  22  25
ATOM     25  C   UNL     1       2.252  15.057  18.681  0.00  0.00    +0.000 A 
ATOM     26  C   UNL     1       3.391  15.555  18.009  0.00  0.00    +0.000 A 
ATOM     27  N   UNL     1       3.223  16.798  17.552  0.00  0.00    +0.000 NA
ATOM     28  N   UNL     1       1.927  17.076  17.806  0.00  0.00    +0.000 N 
ATOM     29  C   UNL     1       1.101  17.981  17.151  0.00  0.00    +0.000 A 
ATOM     30  C   UNL     1      -0.224  17.876  17.330  0.00  0.00    +0.000 A 
ATOM     31  C   UNL     1      -0.626  17.146  18.562  0.00  0.00    +0.000 A 
ATOM     32  N   UNL     1       0.103  16.263  19.178  0.00  0.00    +0.000 NA
ATOM     33  C   UNL     1       1.369  16.115  18.657  0.00  0.00    +0.000 A 
ENDBRANCH  22  25
ENDBRANCH   5  21
TORSDOF 4
ENDMDL
MODEL 2
REMARK VINA RESULT:      -7.7      0.993      1.303
REMARK  Name = 
REMARK  6 active torsions:
REMARK  status: ('A' for Active; 'I' for Inactive)
REMARK    1  A    between atoms: C_1  and  C_2
REMARK    2  A    between atoms: C_5  and  N_6
REMARK    3  A    between atoms: C_8  and  C_9
REMARK    4  A    between atoms: N_12  and  C_13
REMARK    5  A    between atoms: C_17  and  N_18
REMARK    6  A    between atoms: C_19  and  C_21
REMARK                            x       y       z     vdW  Elec       q    Type
REMARK                         _______ _______ _______ _____ _____    ______ ____
ROOT
ATOM      1  N   UNL     1       0.322  10.923  19.243  0.00  0.00    +0.000 N 
ATOM      2  N   UNL     1       0.529   9.578  19.373  0.00  0.00    +0.000 NA
ATOM      3  C   UNL     1       1.594   9.326  18.604  0.00  0.00    +0.000 A 
ATOM      4  C   UNL     1       2.182  10.514  18.132  0.00  0.00    +0.000 A 
ATOM      5  C   UNL     1       1.348  11.532  18.516  0.00  0.00    +0.000 A 
ENDROOT
BRANCH   1  10
ATOM      6  C   UNL     1      -4.341  13.435  21.426  0.00  0.00    +0.000 C 
ATOM      7  C   UNL     1      -3.139  12.740  20.853  0.00  0.00    +0.000 A 
ATOM      8  C   UNL     1      -3.121  12.303  19.521  0.00  0.00    +0.000 A 
ATOM      9  C   UNL     1      -1.969  11.721  18.977  0.00  0.00    +0.000 A 
ATOM     10  C   UNL     1      -0.843  11.514  19.786  0.00  0.00    +0.000 A 
ATOM     11  C   UNL     1      -0.873  11.932  21.113  0.00  0.00    +0.000 A 
ATOM     12  F   UNL     1       0.202  11.797  21.903  0.00  0.00    +0.000 F 
ATOM     13  C   UNL     1      -1.997  12.563  21.640  0.00  0.00    +0.000 A 
ENDBRANCH   1  10
BRANCH   3  14
ATOM     14  C   UNL     1       2.079   7.928  18.311  0.00  0.00    +0.000 C 
ATOM     15  C   UNL     1       2.239   7.127  19.613  0.00  0.00    +0.000 C 
ATOM     16  C   UNL     1       2.918   5.780  19.383  0.00  0.00    +0.000 C 
ATOM     17  N   UNL     1       4.214   5.955  18.718  0.00  0.00    +0.000 NA
ATOM     18  C   UNL     1       4.896   4.666  18.584  0.00  0.00    +0.000 C 
ATOM     19  C   UNL     1       4.054   6.588  17.405  0.00  0.00    +0.000 C 
ATOM     20  C   UNL     1       3.419   7.968  17.547  0.00  0.00    +0.000 C 
ENDBRANCH   3  14
BRANCH   5  21
ATOM     21  N   UNL     1       1.554  12.886  18.282  0.00  0.00    +0.000 N 
ATOM     22  C   UNL     1       2.110  13.781  19.269  0.00  0.00    +0.000 C 
ATOM     23  O   UNL     1       2.453  13.447  20.374  0.00  0.00    +0.000 OA
ATOM     24  H   UNL     1       1.373  13.255  17.349  0.00  0.00    +0.000 HD
BRANCH  22  25
ATOM     25  C   UNL     1       2.258  15.101  18.684  0.00  0.00    +0.000 A 
ATOM     26  C   UNL     1       3.344  15.630  17.949  0.00  0.00    +0.000 A 
ATOM     27  N   UNL     1       3.108  16.859  17.484  0.00  0.00    +0.000 NA
ATOM     28  N   UNL     1       1.817  17.094  17.798  0.00  0.00    +0.000 N 
ATOM     29  C   UNL     1       0.927  17.958  17.172  0.00  0.00    +0.000 A 
ATOM     30  C   UNL     1      -0.384  17.808  17.417  0.00  0.00    +0.000 A 
ATOM     31  C   UNL     1      -0.698  17.083  18.677  0.00  0.00    +0.000 A 
ATOM     32  N   UNL     1       0.092  16.236  19.269  0.00  0.00    +0.000 NA
ATOM     33  C   UNL     1       1.336  16.126  18.688  0.00  0.00    +0.000 A 
ENDBRANCH  22  25
ENDBRANCH   5  21
TORSDOF 4
ENDMDL
MODEL 3
REMARK VINA RESULT:      -7.6      3.801      8.311
REMARK  Name = 
REMARK  6 active torsions:
REMARK  status: ('A' for Active; 'I' for Inactive)
REMARK    1  A    between atoms: C_1  and  C_2
REMARK    2  A    between atoms: C_5  and  N_6
REMARK    3  A    between atoms: C_8  and  C_9
REMARK    4  A    between atoms: N_12  and  C_13
REMARK    5  A    between atoms: C_17  and  N_18
REMARK    6  A    between atoms: C_19  and  C_21
REMARK                            x       y       z     vdW  Elec       q    Type
REMARK                         _______ _______ _______ _____ _____    ______ ____
ROOT
ATOM      1  N   UNL     1      -1.291  11.073  19.612  0.00  0.00    +0.000 N 
ATOM      2  N   UNL     1      -1.834  11.962  20.497  0.00  0.00    +0.000 NA
ATOM      3  C   UNL     1      -1.113  11.808  21.613  0.00  0.00    +0.000 A 
ATOM      4  C   UNL     1      -0.003  10.970  21.399  0.00  0.00    +0.000 A 
ATOM      5  C   UNL     1      -0.137  10.476  20.128  0.00  0.00    +0.000 A 
ENDROOT
BRANCH   1  10
ATOM      6  C   UNL     1      -3.743  10.074  14.533  0.00  0.00    +0.000 C 
ATOM      7  C   UNL     1      -3.138  10.341  15.880  0.00  0.00    +0.000 A 
ATOM      8  C   UNL     1      -3.259   9.415  16.926  0.00  0.00    +0.000 A 
ATOM      9  C   UNL     1      -2.629   9.643  18.157  0.00  0.00    +0.000 A 
ATOM     10  C   UNL     1      -1.925  10.836  18.370  0.00  0.00    +0.000 A 
ATOM     11  C   UNL     1      -1.824  11.761  17.335  0.00  0.00    +0.000 A 
ATOM     12  F   UNL     1      -1.116  12.889  17.485  0.00  0.00    +0.000 F 
ATOM     13  C   UNL     1      -2.400  11.511  16.093  0.00  0.00    +0.000 A 
ENDBRANCH   1  10
BRANCH   3  14
ATOM     14  C   UNL     1      -1.472  12.476  22.918  0.00  0.00    +0.000 C 
ATOM     15  C   UNL     1      -2.997  12.569  23.075  0.00  0.00    +0.000 C 
ATOM     16  C   UNL     1      -3.404  13.414  24.279  0.00  0.00    +0.000 C 
ATOM     17  N   UNL     1      -2.807  14.752  24.204  0.00  0.00    +0.000 NA
ATOM     18  C   UNL     1      -3.275  15.582  25.316  0.00  0.00    +0.000 C 
ATOM     19  C   UNL     1      -1.342  14.678  24.201  0.00  0.00    +0.000 C 
ATOM     20  C   UNL     1      -0.845  13.884  22.997  0.00  0.00    +0.000 C 
ENDBRANCH   3  14
BRANCH   5  21
ATOM     21  N   UNL     1       0.753   9.622  19.487  0.00  0.00    +0.000 N 
ATOM     22  C   UNL     1       1.355   8.481  20.134  0.00  0.00    +0.000 C 
ATOM     23  O   UNL     1       1.144   8.155  21.274  0.00  0.00    +0.000 OA
ATOM     24  H   UNL     1       0.937   9.762  18.493  0.00  0.00    +0.000 HD
BRANCH  22  25
ATOM     25  C   UNL     1       2.173   7.765  19.171  0.00  0.00    +0.000 A 
ATOM     26  C   UNL     1       2.820   8.258  18.015  0.00  0.00    +0.000 A 
ATOM     27  N   UNL     1       3.563   7.335  17.401  0.00  0.00    +0.000 NA
ATOM     28  N   UNL     1       3.513   6.265  18.222  0.00  0.00    +0.000 N 
ATOM     29  C   UNL     1       4.439   5.236  18.344  0.00  0.00    +0.000 A 
ATOM     30  C   UNL     1       4.379   4.453  19.432  0.00  0.00    +0.000 A 
ATOM     31  C   UNL     1       3.062   4.453  20.121  0.00  0.00    +0.000 A 
ATOM     32  N   UNL     1       2.188   5.415  20.064  0.00  0.00    +0.000 NA
ATOM     33  C   UNL     1       2.529   6.434  19.202  0.00  0.00    +0.000 A 
ENDBRANCH  22  25
ENDBRANCH   5  21
TORSDOF 4
ENDMDL
MODEL 4
REMARK VINA RESULT:      -7.5      1.014      1.198
REMARK  Name = 
REMARK  6 active torsions:
REMARK  status: ('A' for Active; 'I' for Inactive)
REMARK    1  A    between atoms: C_1  and  C_2
REMARK    2  A    between atoms: C_5  and  N_6
REMARK    3  A    between atoms: C_8  and  C_9
REMARK    4  A    between atoms: N_12  and  C_13
REMARK    5  A    between atoms: C_17  and  N_18
REMARK    6  A    between atoms: C_19  and  C_21
REMARK                            x       y       z     vdW  Elec       q    Type
REMARK                         _______ _______ _______ _____ _____    ______ ____
ROOT
ATOM      1  N   UNL     1       0.303  11.452  19.897  0.00  0.00    +0.000 N 
ATOM      2  N   UNL     1       0.474  10.102  20.028  0.00  0.00    +0.000 NA
ATOM      3  C   UNL     1       1.332   9.776  19.055  0.00  0.00    +0.000 A 
ATOM      4  C   UNL     1       1.854  10.919  18.422  0.00  0.00    +0.000 A 
ATOM      5  C   UNL     1       1.170  11.988  18.940  0.00  0.00    +0.000 A 
ENDROOT
BRANCH   1  10
ATOM      6  C   UNL     1      -3.762  14.024  23.006  0.00  0.00    +0.000 C 
ATOM      7  C   UNL     1      -2.676  13.386  22.189  0.00  0.00    +0.000 A 
ATOM      8  C   UNL     1      -1.402  13.157  22.728  0.00  0.00    +0.000 A 
ATOM      9  C   UNL     1      -0.420  12.496  21.981  0.00  0.00    +0.000 A 
ATOM     10  C   UNL     1      -0.687  12.116  20.658  0.00  0.00    +0.000 A 
ATOM     11  C   UNL     1      -1.947  12.363  20.120  0.00  0.00    +0.000 A 
ATOM     12  F   UNL     1      -2.256  11.969  18.877  0.00  0.00    +0.000 F 
ATOM     13  C   UNL     1      -2.943  12.968  20.881  0.00  0.00    +0.000 A 
ENDBRANCH   1  10
BRANCH   3  14
ATOM     14  C   UNL     1       1.680   8.347  18.715  0.00  0.00    +0.000 C 
ATOM     15  C   UNL     1       1.941   7.536  19.994  0.00  0.00    +0.000 C 
ATOM     16  C   UNL     1       2.492   6.145  19.693  0.00  0.00    +0.000 C 
ATOM     17  N   UNL     1       3.706   6.230  18.874  0.00  0.00    +0.000 NA
ATOM     18  C   UNL     1       4.275   4.896  18.668  0.00  0.00    +0.000 C 
ATOM     19  C   UNL     1       3.432   6.874  17.586  0.00  0.00    +0.000 C 
ATOM     20  C   UNL     1       2.917   8.295  17.794  0.00  0.00    +0.000 C 
ENDBRANCH   3  14
BRANCH   5  21
ATOM     21  N   UNL     1       1.378  13.324  18.617  0.00  0.00    +0.000 N 
ATOM     22  C   UNL     1       2.371  14.146  19.266  0.00  0.00    +0.000 C 
ATOM     23  O   UNL     1       3.113  13.762  20.134  0.00  0.00    +0.000 OA
ATOM     24  H   UNL     1       0.858  13.726  17.837  0.00  0.00    +0.000 HD
BRANCH  22  25
ATOM     25  C   UNL     1       2.378  15.460  18.647  0.00  0.00    +0.000 A 
ATOM     26  C   UNL     1       3.396  16.078  17.886  0.00  0.00    +0.000 A 
ATOM     27  N   UNL     1       3.031  17.264  17.396  0.00  0.00    +0.000 NA
ATOM     28  N   UNL     1       1.726  17.375  17.721  0.00  0.00    +0.000 N 
ATOM     29  C   UNL     1       0.746  18.128  17.087  0.00  0.00    +0.000 A 
ATOM     30  C   UNL     1      -0.540  17.852  17.353  0.00  0.00    +0.000 A 
ATOM     31  C   UNL     1      -0.764  17.131  18.634  0.00  0.00    +0.000 A 
ATOM     32  N   UNL     1       0.114  16.383  19.235  0.00  0.00    +0.000 NA
ATOM     33  C   UNL     1       1.357  16.385  18.640  0.00  0.00    +0.000 A 
ENDBRANCH  22  25
ENDBRANCH   5  21
TORSDOF 4
ENDMDL
MODEL 5
REMARK VINA RESULT:      -7.5      1.489      1.857
REMARK  Name = 
REMARK  6 active torsions:
REMARK  status: ('A' for Active; 'I' for Inactive)
REMARK    1  A    between atoms: C_1  and  C_2
REMARK    2  A    between atoms: C_5  and  N_6
REMARK    3  A    between atoms: C_8  and  C_9
REMARK    4  A    between atoms: N_12  and  C_13
REMARK    5  A    between atoms: C_17  and  N_18
REMARK    6  A    between atoms: C_19  and  C_21
REMARK                            x       y       z     vdW  Elec       q    Type
REMARK                         _______ _______ _______ _____ _____    ______ ____
ROOT
ATOM      1  N   UNL     1       0.758  10.424  19.741  0.00  0.00    +0.000 N 
ATOM      2  N   UNL     1       1.056   9.090  19.736  0.00  0.00    +0.000 NA
ATOM      3  C   UNL     1       1.842   8.925  18.666  0.00  0.00    +0.000 A 
ATOM      4  C   UNL     1       2.201  10.160  18.094  0.00  0.00    +0.000 A 
ATOM      5  C   UNL     1       1.481  11.115  18.764  0.00  0.00    +0.000 A 
ENDROOT
BRANCH   1  10
ATOM      6  C   UNL     1      -3.068  12.560  23.430  0.00  0.00    +0.000 C 
ATOM      7  C   UNL     1      -2.095  11.976  22.447  0.00  0.00    +0.000 A 
ATOM      8  C   UNL     1      -2.182  12.267  21.079  0.00  0.00    +0.000 A 
ATOM      9  C   UNL     1      -1.226  11.774  20.182  0.00  0.00    +0.000 A 
ATOM     10  C   UNL     1      -0.208  10.929  20.643  0.00  0.00    +0.000 A 
ATOM     11  C   UNL     1      -0.136  10.626  21.999  0.00  0.00    +0.000 A 
ATOM     12  F   UNL     1       0.853   9.863  22.485  0.00  0.00    +0.000 F 
ATOM     13  C   UNL     1      -1.052  11.161  22.901  0.00  0.00    +0.000 A 
ENDBRANCH   1  10
BRANCH   3  14
ATOM     14  C   UNL     1       2.277   7.568  18.170  0.00  0.00    +0.000 C 
ATOM     15  C   UNL     1       2.305   6.555  19.325  0.00  0.00    +0.000 C 
ATOM     16  C   UNL     1       2.930   5.225  18.913  0.00  0.00    +0.000 C 
ATOM     17  N   UNL     1       4.276   5.429  18.367  0.00  0.00    +0.000 NA
ATOM     18  C   UNL     1       4.901   4.140  18.058  0.00  0.00    +0.000 C 
ATOM     19  C   UNL     1       4.241   6.278  17.173  0.00  0.00    +0.000 C 
ATOM     20  C   UNL     1       3.667   7.653  17.507  0.00  0.00    +0.000 C 
ENDBRANCH   3  14
BRANCH   5  21
ATOM     21  N   UNL     1       1.542  12.486  18.544  0.00  0.00    +0.000 N 
ATOM     22  C   UNL     1       2.097  13.413  19.501  0.00  0.00    +0.000 C 
ATOM     23  O   UNL     1       2.562  13.097  20.566  0.00  0.00    +0.000 OA
ATOM     24  H   UNL     1       1.249  12.850  17.637  0.00  0.00    +0.000 HD
BRANCH  22  25
ATOM     25  C   UNL     1       2.074  14.750  18.935  0.00  0.00    +0.000 A 
ATOM     26  C   UNL     1       2.981  15.346  18.028  0.00  0.00    +0.000 A 
ATOM     27  N   UNL     1       2.607  16.570  17.649  0.00  0.00    +0.000 NA
ATOM     28  N   UNL     1       1.387  16.734  18.200  0.00  0.00    +0.000 N 
ATOM     29  C   UNL     1       0.358  17.564  17.772  0.00  0.00    +0.000 A 
ATOM     30  C   UNL     1      -0.876  17.345  18.249  0.00  0.00    +0.000 A 
ATOM     31  C   UNL     1      -0.919  16.582  19.524  0.00  0.00    +0.000 A 
ATOM     32  N   UNL     1       0.004  15.765  19.938  0.00  0.00    +0.000 NA
ATOM     33  C   UNL     1       1.124  15.727  19.136  0.00  0.00    +0.000 A 
ENDBRANCH  22  25
ENDBRANCH   5  21
TORSDOF 4
ENDMDL
MODEL 6
REMARK VINA RESULT:      -7.4      3.013      5.309
REMARK  Name = 
REMARK  6 active torsions:
REMARK  status: ('A' for Active; 'I' for Inactive)
REMARK    1  A    between atoms: C_1  and  C_2
REMARK    2  A    between atoms: C_5  and  N_6
REMARK    3  A    between atoms: C_8  and  C_9
REMARK    4  A    between atoms: N_12  and  C_13
REMARK    5  A    between atoms: C_17  and  N_18
REMARK    6  A    between atoms: C_19  and  C_21
REMARK                            x       y       z     vdW  Elec       q    Type
REMARK                         _______ _______ _______ _____ _____    ______ ____
ROOT
ATOM      1  N   UNL     1       0.940  11.690  19.649  0.00  0.00    +0.000 N 
ATOM      2  N   UNL     1       1.540  10.736  18.875  0.00  0.00    +0.000 NA
ATOM      3  C   UNL     1       1.047   9.577  19.325  0.00  0.00    +0.000 A 
ATOM      4  C   UNL     1       0.005   9.784  20.248  0.00  0.00    +0.000 A 
ATOM      5  C   UNL     1      -0.039  11.135  20.478  0.00  0.00    +0.000 A 
ENDROOT
BRANCH   1  10
ATOM      6  C   UNL     1       2.567  17.176  19.407  0.00  0.00    +0.000 C 
ATOM      7  C   UNL     1       2.174  15.728  19.448  0.00  0.00    +0.000 A 
ATOM      8  C   UNL     1       2.891  14.804  20.222  0.00  0.00    +0.000 A 
ATOM      9  C   UNL     1       2.472  13.470  20.310  0.00  0.00    +0.000 A 
ATOM     10  C   UNL     1       1.365  13.036  19.568  0.00  0.00    +0.000 A 
ATOM     11  C   UNL     1       0.668  13.952  18.786  0.00  0.00    +0.000 A 
ATOM     12  F   UNL     1      -0.426  13.586  18.104  0.00  0.00    +0.000 F 
ATOM     13  C   UNL     1       1.048  15.291  18.743  0.00  0.00    +0.000 A 
ENDBRANCH   1  10
BRANCH   3  14
ATOM     14  C   UNL     1       1.563   8.235  18.868  0.00  0.00    +0.000 C 
ATOM     15  C   UNL     1       2.002   7.387  20.072  0.00  0.00    +0.000 C 
ATOM     16  C   UNL     1       2.716   6.107  19.647  0.00  0.00    +0.000 C 
ATOM     17  N   UNL     1       3.860   6.410  18.780  0.00  0.00    +0.000 NA
ATOM     18  C   UNL     1       4.590   5.183  18.452  0.00  0.00    +0.000 C 
ATOM     19  C   UNL     1       3.430   7.092  17.555  0.00  0.00    +0.000 C 
ATOM     20  C   UNL     1       2.742   8.413  17.888  0.00  0.00    +0.000 C 
ENDBRANCH   3  14
BRANCH   5  21
ATOM     21  N   UNL     1      -0.940  11.791  21.308  0.00  0.00    +0.000 N 
ATOM     22  C   UNL     1      -1.049  11.521  22.722  0.00  0.00    +0.000 C 
ATOM     23  O   UNL     1      -0.376  10.718  23.316  0.00  0.00    +0.000 OA
ATOM     24  H   UNL     1      -1.501  12.549  20.920  0.00  0.00    +0.000 HD
BRANCH  22  25
ATOM     25  C   UNL     1      -2.027  12.422  23.304  0.00  0.00    +0.000 A 
ATOM     26  C   UNL     1      -3.364  12.160  23.680  0.00  0.00    +0.000 A 
ATOM     27  N   UNL     1      -3.955  13.203  24.266  0.00  0.00    +0.000 NA
ATOM     28  N   UNL     1      -2.969  14.116  24.397  0.00  0.00    +0.000 N 
ATOM     29  C   UNL     1      -2.874  15.146  25.325  0.00  0.00    +0.000 A 
ATOM     30  C   UNL     1      -1.680  15.731  25.505  0.00  0.00    +0.000 A 
ATOM     31  C   UNL     1      -0.731  15.559  24.373  0.00  0.00    +0.000 A 
ATOM     32  N   UNL     1      -0.763  14.586  23.511  0.00  0.00    +0.000 NA
ATOM     33  C   UNL     1      -1.843  13.742  23.654  0.00  0.00    +0.000 A 
ENDBRANCH  22  25
ENDBRANCH   5  21
TORSDOF 4
ENDMDL
MODEL 7
REMARK VINA RESULT:      -7.3      2.643      6.649
REMARK  Name = 
REMARK  6 active torsions:
REMARK  status: ('A' for Active; 'I' for Inactive)
REMARK    1  A    between atoms: C_1  and  C_2
REMARK    2  A    between atoms: C_5  and  N_6
REMARK    3  A    between atoms: C_8  and  C_9
REMARK    4  A    between atoms: N_12  and  C_13
REMARK    5  A    between atoms: C_17  and  N_18
REMARK    6  A    between atoms: C_19  and  C_21
REMARK                            x       y       z     vdW  Elec       q    Type
REMARK                         _______ _______ _______ _____ _____    ______ ____
ROOT
ATOM      1  N   UNL     1      -0.354  11.649  19.687  0.00  0.00    +0.000 N 
ATOM      2  N   UNL     1      -1.716  11.551  19.602  0.00  0.00    +0.000 NA
ATOM      3  C   UNL     1      -2.167  12.723  20.060  0.00  0.00    +0.000 A 
ATOM      4  C   UNL     1      -1.116  13.637  20.263  0.00  0.00    +0.000 A 
ATOM      5  C   UNL     1       0.044  12.938  20.054  0.00  0.00    +0.000 A 
ENDROOT
BRANCH   1  10
ATOM      6  C   UNL     1       2.805   6.972  18.711  0.00  0.00    +0.000 C 
ATOM      7  C   UNL     1       2.011   8.221  18.964  0.00  0.00    +0.000 A 
ATOM      8  C   UNL     1       1.790   9.159  17.946  0.00  0.00    +0.000 A 
ATOM      9  C   UNL     1       0.988  10.285  18.174  0.00  0.00    +0.000 A 
ATOM     10  C   UNL     1       0.453  10.512  19.449  0.00  0.00    +0.000 A 
ATOM     11  C   UNL     1       0.691   9.589  20.463  0.00  0.00    +0.000 A 
ATOM     12  F   UNL     1       0.153   9.747  21.681  0.00  0.00    +0.000 F 
ATOM     13  C   UNL     1       1.440   8.440  20.222  0.00  0.00    +0.000 A 
ENDBRANCH   1  10
BRANCH   3  14
ATOM     14  C   UNL     1      -3.630  12.998  20.306  0.00  0.00    +0.000 C 
ATOM     15  C   UNL     1      -3.990  12.733  21.776  0.00  0.00    +0.000 C 
ATOM     16  C   UNL     1      -5.494  12.801  22.025  0.00  0.00    +0.000 C 
ATOM     17  N   UNL     1      -6.212  11.878  21.140  0.00  0.00    +0.000 NA
ATOM     18  C   UNL     1      -7.644  11.886  21.449  0.00  0.00    +0.000 C 
ATOM     19  C   UNL     1      -5.991  12.216  19.730  0.00  0.00    +0.000 C 
ATOM     20  C   UNL     1      -4.508  12.128  19.382  0.00  0.00    +0.000 C 
ENDBRANCH   3  14
BRANCH   5  21
ATOM     21  N   UNL     1       1.332  13.456  20.123  0.00  0.00    +0.000 N 
ATOM     22  C   UNL     1       1.841  14.150  21.282  0.00  0.00    +0.000 C 
ATOM     23  O   UNL     1       1.214  14.340  22.292  0.00  0.00    +0.000 OA
ATOM     24  H   UNL     1       1.974  13.277  19.351  0.00  0.00    +0.000 HD
BRANCH  22  25
ATOM     25  C   UNL     1       3.233  14.495  21.055  0.00  0.00    +0.000 A 
ATOM     26  C   UNL     1       4.340  14.338  21.920  0.00  0.00    +0.000 A 
ATOM     27  N   UNL     1       5.497  14.686  21.353  0.00  0.00    +0.000 NA
ATOM     28  N   UNL     1       5.175  14.951  20.069  0.00  0.00    +0.000 N 
ATOM     29  C   UNL     1       5.996  14.888  18.951  0.00  0.00    +0.000 A 
ATOM     30  C   UNL     1       5.419  14.865  17.739  0.00  0.00    +0.000 A 
ATOM     31  C   UNL     1       4.031  15.396  17.706  0.00  0.00    +0.000 A 
ATOM     32  N   UNL     1       3.220  15.432  18.721  0.00  0.00    +0.000 NA
ATOM     33  C   UNL     1       3.786  15.026  19.910  0.00  0.00    +0.000 A 
ENDBRANCH  22  25
ENDBRANCH   5  21
TORSDOF 4
ENDMDL
MODEL 8
REMARK VINA RESULT:      -7.3      3.640      5.542
REMARK  Name = 
REMARK  6 active torsions:
REMARK  status: ('A' for Active; 'I' for Inactive)
REMARK    1  A    between atoms: C_1  and  C_2
REMARK    2  A    between atoms: C_5  and  N_6
REMARK    3  A    between atoms: C_8  and  C_9
REMARK    4  A    between atoms: N_12  and  C_13
REMARK    5  A    between atoms: C_17  and  N_18
REMARK    6  A    between atoms: C_19  and  C_21
REMARK                            x       y       z     vdW  Elec       q    Type
REMARK                         _______ _______ _______ _____ _____    ______ ____
ROOT
ATOM      1  N   UNL     1      -0.215  11.396  20.483  0.00  0.00    +0.000 N 
ATOM      2  N   UNL     1       1.000  10.769  20.512  0.00  0.00    +0.000 NA
ATOM      3  C   UNL     1       0.959   9.908  19.489  0.00  0.00    +0.000 A 
ATOM      4  C   UNL     1      -0.188  10.104  18.696  0.00  0.00    +0.000 A 
ATOM      5  C   UNL     1      -0.952  11.034  19.353  0.00  0.00    +0.000 A 
ENDROOT
BRANCH   1  10
ATOM      6  C   UNL     1      -1.819  14.940  24.688  0.00  0.00    +0.000 C 
ATOM      7  C   UNL     1      -1.379  13.987  23.614  0.00  0.00    +0.000 A 
ATOM      8  C   UNL     1      -1.928  12.701  23.515  0.00  0.00    +0.000 A 
ATOM      9  C   UNL     1      -1.563  11.848  22.467  0.00  0.00    +0.000 A 
ATOM     10  C   UNL     1      -0.591  12.255  21.542  0.00  0.00    +0.000 A 
ATOM     11  C   UNL     1      -0.034  13.525  21.655  0.00  0.00    +0.000 A 
ATOM     12  F   UNL     1       0.860  13.969  20.760  0.00  0.00    +0.000 F 
ATOM     13  C   UNL     1      -0.438  14.397  22.663  0.00  0.00    +0.000 A 
ENDBRANCH   1  10
BRANCH   3  14
ATOM     14  C   UNL     1       2.032   8.877  19.243  0.00  0.00    +0.000 C 
ATOM     15  C   UNL     1       2.151   8.569  17.742  0.00  0.00    +0.000 C 
ATOM     16  C   UNL     1       3.078   7.389  17.466  0.00  0.00    +0.000 C 
ATOM     17  N   UNL     1       2.645   6.199  18.208  0.00  0.00    +0.000 NA
ATOM     18  C   UNL     1       3.488   5.051  17.866  0.00  0.00    +0.000 C 
ATOM     19  C   UNL     1       2.670   6.440  19.654  0.00  0.00    +0.000 C 
ATOM     20  C   UNL     1       1.729   7.582  20.026  0.00  0.00    +0.000 C 
ENDBRANCH   3  14
BRANCH   5  21
ATOM     21  N   UNL     1      -2.166  11.547  18.914  0.00  0.00    +0.000 N 
ATOM     22  C   UNL     1      -3.150  10.756  18.213  0.00  0.00    +0.000 C 
ATOM     23  O   UNL     1      -3.022   9.588  17.950  0.00  0.00    +0.000 OA
ATOM     24  H   UNL     1      -2.409  12.507  19.158  0.00  0.00    +0.000 HD
BRANCH  22  25
ATOM     25  C   UNL     1      -4.325  11.571  17.963  0.00  0.00    +0.000 A 
ATOM     26  C   UNL     1      -4.949  11.875  16.732  0.00  0.00    +0.000 A 
ATOM     27  N   UNL     1      -6.067  12.589  16.878  0.00  0.00    +0.000 NA
ATOM     28  N   UNL     1      -6.256  12.648  18.213  0.00  0.00    +0.000 N 
ATOM     29  C   UNL     1      -7.449  12.827  18.901  0.00  0.00    +0.000 A 
ATOM     30  C   UNL     1      -7.479  12.528  20.209  0.00  0.00    +0.000 A 
ATOM     31  C   UNL     1      -6.147  12.515  20.870  0.00  0.00    +0.000 A 
ATOM     32  N   UNL     1      -5.014  12.309  20.266  0.00  0.00    +0.000 NA
ATOM     33  C   UNL     1      -5.118  12.204  18.896  0.00  0.00    +0.000 A 
ENDBRANCH  22  25
ENDBRANCH   5  21
TORSDOF 4
ENDMDL
MODEL 9
REMARK VINA RESULT:      -7.3      2.408      6.693
REMARK  Name = 
REMARK  6 active torsions:
REMARK  status: ('A' for Active; 'I' for Inactive)
REMARK    1  A    between atoms: C_1  and  C_2
REMARK    2  A    between atoms: C_5  and  N_6
REMARK    3  A    between atoms: C_8  and  C_9
REMARK    4  A    between atoms: N_12  and  C_13
REMARK    5  A    between atoms: C_17  and  N_18
REMARK    6  A    between atoms: C_19  and  C_21
REMARK                            x       y       z     vdW  Elec       q    Type
REMARK                         _______ _______ _______ _____ _____    ______ ____
ROOT
ATOM      1  N   UNL     1      -0.364  10.724  18.939  0.00  0.00    +0.000 N 
ATOM      2  N   UNL     1      -1.660  10.420  18.625  0.00  0.00    +0.000 NA
ATOM      3  C   UNL     1      -2.342  11.539  18.894  0.00  0.00    +0.000 A 
ATOM      4  C   UNL     1      -1.480  12.608  19.199  0.00  0.00    +0.000 A 
ATOM      5  C   UNL     1      -0.217  12.076  19.258  0.00  0.00    +0.000 A 
ENDROOT
BRANCH   1  10
ATOM      6  C   UNL     1       3.520   6.513  18.953  0.00  0.00    +0.000 C 
ATOM      7  C   UNL     1       2.532   7.644  18.946  0.00  0.00    +0.000 A 
ATOM      8  C   UNL     1       2.283   8.382  17.779  0.00  0.00    +0.000 A 
ATOM      9  C   UNL     1       1.308   9.388  17.766  0.00  0.00    +0.000 A 
ATOM     10  C   UNL     1       0.619   9.706  18.945  0.00  0.00    +0.000 A 
ATOM     11  C   UNL     1       0.884   8.985  20.105  0.00  0.00    +0.000 A 
ATOM     12  F   UNL     1       0.208   9.227  21.237  0.00  0.00    +0.000 F 
ATOM     13  C   UNL     1       1.811   7.947  20.106  0.00  0.00    +0.000 A 
ENDBRANCH   1  10
BRANCH   3  14
ATOM     14  C   UNL     1      -3.848  11.608  18.855  0.00  0.00    +0.000 C 
ATOM     15  C   UNL     1      -4.344  11.787  17.411  0.00  0.00    +0.000 C 
ATOM     16  C   UNL     1      -5.843  12.065  17.345  0.00  0.00    +0.000 C 
ATOM     17  N   UNL     1      -6.195  13.230  18.164  0.00  0.00    +0.000 NA
ATOM     18  C   UNL     1      -7.619  13.541  18.022  0.00  0.00    +0.000 C 
ATOM     19  C   UNL     1      -5.858  13.008  19.573  0.00  0.00    +0.000 C 
ATOM     20  C   UNL     1      -4.361  12.766  19.737  0.00  0.00    +0.000 C 
ENDBRANCH   3  14
BRANCH   5  21
ATOM     21  N   UNL     1       0.954  12.782  19.508  0.00  0.00    +0.000 N 
ATOM     22  C   UNL     1       1.292  13.314  20.806  0.00  0.00    +0.000 C 
ATOM     23  O   UNL     1       0.608  13.196  21.790  0.00  0.00    +0.000 OA
ATOM     24  H   UNL     1       1.642  12.868  18.760  0.00  0.00    +0.000 HD
BRANCH  22  25
ATOM     25  C   UNL     1       2.606  13.928  20.740  0.00  0.00    +0.000 A 
ATOM     26  C   UNL     1       3.657  13.881  21.684  0.00  0.00    +0.000 A 
ATOM     27  N   UNL     1       4.765  14.492  21.260  0.00  0.00    +0.000 NA
ATOM     28  N   UNL     1       4.493  14.832  19.983  0.00  0.00    +0.000 N 
ATOM     29  C   UNL     1       5.390  15.040  18.943  0.00  0.00    +0.000 A 
ATOM     30  C   UNL     1       4.917  15.044  17.687  0.00  0.00    +0.000 A 
ATOM     31  C   UNL     1       3.459  15.316  17.576  0.00  0.00    +0.000 A 
ATOM     32  N   UNL     1       2.585  15.094  18.513  0.00  0.00    +0.000 NA
ATOM     33  C   UNL     1       3.130  14.672  19.705  0.00  0.00    +0.000 A 
ENDBRANCH  22  25
ENDBRANCH   5  21
TORSDOF 4
ENDMDL
