MODEL 1
REMARK VINA RESULT:      -8.1      0.000      0.000
REMARK  Name = 
REMARK  12 active torsions:
REMARK  status: ('A' for Active; 'I' for Inactive)
REMARK    1  A    between atoms: C_1  and  C_2
REMARK    2  A    between atoms: C_2  and  C_3
REMARK    3  A    between atoms: C_6  and  C_7
REMARK    4  A    between atoms: C_7  and  C_8
REMARK    5  A    between atoms: C_9  and  C_10
REMARK    6  A    between atoms: C_10  and  C_11
REMARK    7  A    between atoms: C_11  and  C_12
REMARK    8  A    between atoms: C_12  and  C_13
REMARK    9  A    between atoms: C_13  and  O_15
REMARK   10  A    between atoms: C_16  and  N_17
REMARK   11  A    between atoms: C_18  and  C_20
REMARK   12  A    between atoms: C_20  and  C_21
REMARK                            x       y       z     vdW  Elec       q    Type
REMARK                         _______ _______ _______ _____ _____    ______ ____
ROOT
ATOM      1  C   UNL     1       2.207   3.337  21.937  0.00  0.00    +0.000 C 
ATOM      2  C   UNL     1       2.118   3.448  20.401  0.00  0.00    +0.000 C 
ATOM      3  C   UNL     1       0.674   3.785  20.034  0.00  0.00    +0.000 C 
ATOM      4  C   UNL     1       2.815   2.277  19.608  0.00  0.00    +0.000 C 
ATOM      5  C   UNL     1       2.517   2.191  18.109  0.00  0.00    +0.000 C 
ATOM      6  C   UNL     1       2.612   3.565  17.395  0.00  0.00    +0.000 C 
ATOM      7  C   UNL     1       3.183   4.710  18.282  0.00  0.00    +0.000 C 
ATOM      8  C   UNL     1       3.276   4.317  19.764  0.00  0.00    +0.000 C 
ATOM      9  C   UNL     1       4.153   3.030  19.837  0.00  0.00    +0.000 C 
ENDROOT
BRANCH   7  10
ATOM     10  N   UNL     1       2.386   5.938  18.202  0.00  0.00    +0.000 N 
ATOM     11  C   UNL     1       2.994   7.147  17.930  0.00  0.00    +0.000 C 
ATOM     12  O   UNL     1       4.216   7.209  17.720  0.00  0.00    +0.000 OA
ATOM     13  H   UNL     1       1.386   5.909  18.363  0.00  0.00    +0.000 HD
BRANCH  11  14
ATOM     14  C   UNL     1       2.093   8.379  17.856  0.00  0.00    +0.000 C 
BRANCH  14  15
ATOM     15  C   UNL     1       1.453   8.805  19.167  0.00  0.00    +0.000 A 
ATOM     16  C   UNL     1       1.738   8.128  20.361  0.00  0.00    +0.000 A 
ATOM     17  C   UNL     1       1.124   8.501  21.564  0.00  0.00    +0.000 A 
ATOM     18  C   UNL     1       0.212   9.553  21.595  0.00  0.00    +0.000 A 
ATOM     19  C   UNL     1      -0.047  10.264  20.432  0.00  0.00    +0.000 A 
ATOM     20  C   UNL     1       0.591   9.913  19.237  0.00  0.00    +0.000 A 
ENDBRANCH  14  15
ENDBRANCH  11  14
ENDBRANCH   7  10
BRANCH   6  21
ATOM     21  C   UNL     1       3.424   3.411  16.085  0.00  0.00    +0.000 C 
BRANCH  21  22
ATOM     22  C   UNL     1       4.857   3.853  16.212  0.00  0.00    +0.000 C 
ATOM     23  C   UNL     1       5.462   4.667  15.330  0.00  0.00    +0.000 C 
BRANCH  23  24
ATOM     24  C   UNL     1       6.930   4.982  15.388  0.00  0.00    +0.000 C 
BRANCH  24  25
ATOM     25  C   UNL     1       7.272   5.898  16.559  0.00  0.00    +0.000 C 
BRANCH  25  26
ATOM     26  C   UNL     1       7.571   5.116  17.836  0.00  0.00    +0.000 C 
BRANCH  26  27
ATOM     27  C   UNL     1       7.927   6.045  18.969  0.00  0.00    +0.000 C 
ATOM     28  O   UNL     1       8.358   7.188  18.837  0.00  0.00    +0.000 OA
BRANCH  27  29
ATOM     29  O   UNL     1       7.728   5.492  20.181  0.00  0.00    +0.000 OA
ATOM     30  H   UNL     1       8.074   4.583  20.253  0.00  0.00    +0.000 HD
ENDBRANCH  27  29
ENDBRANCH  26  27
ENDBRANCH  25  26
ENDBRANCH  24  25
ENDBRANCH  23  24
ENDBRANCH  21  22
ENDBRANCH   6  21
TORSDOF 10
ENDMDL
MODEL 2
REMARK VINA RESULT:      -7.2      2.746      7.470
REMARK  Name = 
REMARK  12 active torsions:
REMARK  status: ('A' for Active; 'I' for Inactive)
REMARK    1  A    between atoms: C_1  and  C_2
REMARK    2  A    between atoms: C_2  and  C_3
REMARK    3  A    between atoms: C_6  and  C_7
REMARK    4  A    between atoms: C_7  and  C_8
REMARK    5  A    between atoms: C_9  and  C_10
REMARK    6  A    between atoms: C_10  and  C_11
REMARK    7  A    between atoms: C_11  and  C_12
REMARK    8  A    between atoms: C_12  and  C_13
REMARK    9  A    between atoms: C_13  and  O_15
REMARK   10  A    between atoms: C_16  and  N_17
REMARK   11  A    between atoms: C_18  and  C_20
REMARK   12  A    between atoms: C_20  and  C_21
REMARK                            x       y       z     vdW  Elec       q    Type
REMARK                         _______ _______ _______ _____ _____    ______ ____
ROOT
ATOM      1  C   UNL     1       2.038   1.863  18.868  0.00  0.00    +0.000 C 
ATOM      2  C   UNL     1       2.741   3.235  18.893  0.00  0.00    +0.000 C 
ATOM      3  C   UNL     1       4.135   3.044  19.489  0.00  0.00    +0.000 C 
ATOM      4  C   UNL     1       1.866   4.420  19.457  0.00  0.00    +0.000 C 
ATOM      5  C   UNL     1       2.600   5.729  19.763  0.00  0.00    +0.000 C 
ATOM      6  C   UNL     1       3.566   6.158  18.629  0.00  0.00    +0.000 C 
ATOM      7  C   UNL     1       3.455   5.303  17.332  0.00  0.00    +0.000 C 
ATOM      8  C   UNL     1       2.611   4.035  17.534  0.00  0.00    +0.000 C 
ATOM      9  C   UNL     1       1.214   4.498  18.050  0.00  0.00    +0.000 C 
ENDROOT
BRANCH   7  10
ATOM     10  N   UNL     1       4.761   4.884  16.818  0.00  0.00    +0.000 N 
ATOM     11  C   UNL     1       5.479   5.714  15.979  0.00  0.00    +0.000 C 
ATOM     12  O   UNL     1       5.043   6.836  15.673  0.00  0.00    +0.000 OA
ATOM     13  H   UNL     1       5.139   3.976  17.060  0.00  0.00    +0.000 HD
BRANCH  11  14
ATOM     14  C   UNL     1       6.836   5.208  15.491  0.00  0.00    +0.000 C 
BRANCH  14  15
ATOM     15  C   UNL     1       6.874   4.708  14.057  0.00  0.00    +0.000 A 
ATOM     16  C   UNL     1       6.018   3.684  13.629  0.00  0.00    +0.000 A 
ATOM     17  C   UNL     1       6.075   3.202  12.313  0.00  0.00    +0.000 A 
ATOM     18  C   UNL     1       6.989   3.731  11.406  0.00  0.00    +0.000 A 
ATOM     19  C   UNL     1       7.811   4.777  11.799  0.00  0.00    +0.000 A 
ATOM     20  C   UNL     1       7.732   5.281  13.103  0.00  0.00    +0.000 A 
ENDBRANCH  14  15
ENDBRANCH  11  14
ENDBRANCH   7  10
BRANCH   6  21
ATOM     21  C   UNL     1       3.369   7.665  18.326  0.00  0.00    +0.000 C 
BRANCH  21  22
ATOM     22  C   UNL     1       1.924   8.079  18.254  0.00  0.00    +0.000 C 
ATOM     23  C   UNL     1       1.525   9.357  18.150  0.00  0.00    +0.000 C 
BRANCH  23  24
ATOM     24  C   UNL     1       0.081   9.767  18.227  0.00  0.00    +0.000 C 
BRANCH  24  25
ATOM     25  C   UNL     1      -0.207  10.611  19.464  0.00  0.00    +0.000 C 
BRANCH  25  26
ATOM     26  C   UNL     1      -0.275   9.769  20.736  0.00  0.00    +0.000 C 
BRANCH  26  27
ATOM     27  C   UNL     1      -0.522  10.633  21.947  0.00  0.00    +0.000 C 
ATOM     28  O   UNL     1      -1.397  11.490  22.036  0.00  0.00    +0.000 OA
BRANCH  27  29
ATOM     29  O   UNL     1       0.334  10.378  22.955  0.00  0.00    +0.000 OA
ATOM     30  H   UNL     1       0.647  11.183  23.410  0.00  0.00    +0.000 HD
ENDBRANCH  27  29
ENDBRANCH  26  27
ENDBRANCH  25  26
ENDBRANCH  24  25
ENDBRANCH  23  24
ENDBRANCH  21  22
ENDBRANCH   6  21
TORSDOF 10
ENDMDL
MODEL 3
REMARK VINA RESULT:      -7.2      2.798      7.511
REMARK  Name = 
REMARK  12 active torsions:
REMARK  status: ('A' for Active; 'I' for Inactive)
REMARK    1  A    between atoms: C_1  and  C_2
REMARK    2  A    between atoms: C_2  and  C_3
REMARK    3  A    between atoms: C_6  and  C_7
REMARK    4  A    between atoms: C_7  and  C_8
REMARK    5  A    between atoms: C_9  and  C_10
REMARK    6  A    between atoms: C_10  and  C_11
REMARK    7  A    between atoms: C_11  and  C_12
REMARK    8  A    between atoms: C_12  and  C_13
REMARK    9  A    between atoms: C_13  and  O_15
REMARK   10  A    between atoms: C_16  and  N_17
REMARK   11  A    between atoms: C_18  and  C_20
REMARK   12  A    between atoms: C_20  and  C_21
REMARK                            x       y       z     vdW  Elec       q    Type
REMARK                         _______ _______ _______ _____ _____    ______ ____
ROOT
ATOM      1  C   UNL     1       2.155   1.626  18.940  0.00  0.00    +0.000 C 
ATOM      2  C   UNL     1       2.760   3.042  19.032  0.00  0.00    +0.000 C 
ATOM      3  C   UNL     1       4.161   2.921  19.629  0.00  0.00    +0.000 C 
ATOM      4  C   UNL     1       1.802   4.136  19.642  0.00  0.00    +0.000 C 
ATOM      5  C   UNL     1       2.441   5.477  20.013  0.00  0.00    +0.000 C 
ATOM      6  C   UNL     1       3.380   6.025  18.906  0.00  0.00    +0.000 C 
ATOM      7  C   UNL     1       3.334   5.223  17.572  0.00  0.00    +0.000 C 
ATOM      8  C   UNL     1       2.580   3.892  17.710  0.00  0.00    +0.000 C 
ATOM      9  C   UNL     1       1.152   4.232  18.236  0.00  0.00    +0.000 C 
ENDROOT
BRANCH   7  10
ATOM     10  N   UNL     1       4.669   4.920  17.048  0.00  0.00    +0.000 N 
ATOM     11  C   UNL     1       5.295   5.798  16.186  0.00  0.00    +0.000 C 
ATOM     12  O   UNL     1       4.752   6.867  15.865  0.00  0.00    +0.000 OA
ATOM     13  H   UNL     1       5.134   4.057  17.302  0.00  0.00    +0.000 HD
BRANCH  11  14
ATOM     14  C   UNL     1       6.689   5.414  15.690  0.00  0.00    +0.000 C 
BRANCH  14  15
ATOM     15  C   UNL     1       6.748   4.812  14.296  0.00  0.00    +0.000 A 
ATOM     16  C   UNL     1       7.669   5.280  13.349  0.00  0.00    +0.000 A 
ATOM     17  C   UNL     1       7.703   4.746  12.053  0.00  0.00    +0.000 A 
ATOM     18  C   UNL     1       6.815   3.739  11.681  0.00  0.00    +0.000 A 
ATOM     19  C   UNL     1       5.929   3.231  12.620  0.00  0.00    +0.000 A 
ATOM     20  C   UNL     1       5.918   3.742  13.923  0.00  0.00    +0.000 A 
ENDBRANCH  14  15
ENDBRANCH  11  14
ENDBRANCH   7  10
BRANCH   6  21
ATOM     21  C   UNL     1       3.080   7.526  18.670  0.00  0.00    +0.000 C 
BRANCH  21  22
ATOM     22  C   UNL     1       1.801   7.991  19.314  0.00  0.00    +0.000 C 
ATOM     23  C   UNL     1       1.378   9.265  19.284  0.00  0.00    +0.000 C 
BRANCH  23  24
ATOM     24  C   UNL     1       0.178   9.743  20.053  0.00  0.00    +0.000 C 
BRANCH  24  25
ATOM     25  C   UNL     1      -0.115   8.858  21.260  0.00  0.00    +0.000 C 
BRANCH  25  26
ATOM     26  C   UNL     1       0.221   9.549  22.579  0.00  0.00    +0.000 C 
BRANCH  26  27
ATOM     27  C   UNL     1      -0.498  10.869  22.698  0.00  0.00    +0.000 C 
ATOM     28  O   UNL     1      -0.063  11.949  22.306  0.00  0.00    +0.000 OA
BRANCH  27  29
ATOM     29  O   UNL     1      -1.700  10.758  23.296  0.00  0.00    +0.000 OA
ATOM     30  H   UNL     1      -2.250  11.560  23.211  0.00  0.00    +0.000 HD
ENDBRANCH  27  29
ENDBRANCH  26  27
ENDBRANCH  25  26
ENDBRANCH  24  25
ENDBRANCH  23  24
ENDBRANCH  21  22
ENDBRANCH   6  21
TORSDOF 10
ENDMDL
MODEL 4
REMARK VINA RESULT:      -7.2      0.977      1.165
REMARK  Name = 
REMARK  12 active torsions:
REMARK  status: ('A' for Active; 'I' for Inactive)
REMARK    1  A    between atoms: C_1  and  C_2
REMARK    2  A    between atoms: C_2  and  C_3
REMARK    3  A    between atoms: C_6  and  C_7
REMARK    4  A    between atoms: C_7  and  C_8
REMARK    5  A    between atoms: C_9  and  C_10
REMARK    6  A    between atoms: C_10  and  C_11
REMARK    7  A    between atoms: C_11  and  C_12
REMARK    8  A    between atoms: C_12  and  C_13
REMARK    9  A    between atoms: C_13  and  O_15
REMARK   10  A    between atoms: C_16  and  N_17
REMARK   11  A    between atoms: C_18  and  C_20
REMARK   12  A    between atoms: C_20  and  C_21
REMARK                            x       y       z     vdW  Elec       q    Type
REMARK                         _______ _______ _______ _____ _____    ______ ____
ROOT
ATOM      1  C   UNL     1       1.972   2.946  21.670  0.00  0.00    +0.000 C 
ATOM      2  C   UNL     1       2.148   3.081  20.144  0.00  0.00    +0.000 C 
ATOM      3  C   UNL     1       0.767   3.290  19.524  0.00  0.00    +0.000 C 
ATOM      4  C   UNL     1       3.084   1.997  19.484  0.00  0.00    +0.000 C 
ATOM      5  C   UNL     1       3.067   1.915  17.955  0.00  0.00    +0.000 C 
ATOM      6  C   UNL     1       3.156   3.306  17.275  0.00  0.00    +0.000 C 
ATOM      7  C   UNL     1       3.448   4.481  18.255  0.00  0.00    +0.000 C 
ATOM      8  C   UNL     1       3.313   4.067  19.728  0.00  0.00    +0.000 C 
ATOM      9  C   UNL     1       4.282   2.866  19.952  0.00  0.00    +0.000 C 
ENDROOT
BRANCH   7  10
ATOM     10  N   UNL     1       2.565   5.630  18.038  0.00  0.00    +0.000 N 
ATOM     11  C   UNL     1       3.020   6.913  18.271  0.00  0.00    +0.000 C 
ATOM     12  O   UNL     1       4.189   7.113  18.638  0.00  0.00    +0.000 OA
ATOM     13  H   UNL     1       1.609   5.490  17.732  0.00  0.00    +0.000 HD
BRANCH  11  14
ATOM     14  C   UNL     1       2.041   8.057  18.014  0.00  0.00    +0.000 C 
BRANCH  14  15
ATOM     15  C   UNL     1       1.546   8.790  19.251  0.00  0.00    +0.000 A 
ATOM     16  C   UNL     1       1.517   8.153  20.500  0.00  0.00    +0.000 A 
ATOM     17  C   UNL     1       1.033   8.819  21.635  0.00  0.00    +0.000 A 
ATOM     18  C   UNL     1       0.565  10.127  21.540  0.00  0.00    +0.000 A 
ATOM     19  C   UNL     1       0.630  10.788  20.322  0.00  0.00    +0.000 A 
ATOM     20  C   UNL     1       1.145  10.135  19.196  0.00  0.00    +0.000 A 
ENDBRANCH  14  15
ENDBRANCH  11  14
ENDBRANCH   7  10
BRANCH   6  21
ATOM     21  C   UNL     1       4.200   3.256  16.132  0.00  0.00    +0.000 C 
BRANCH  21  22
ATOM     22  C   UNL     1       5.463   4.016  16.438  0.00  0.00    +0.000 C 
ATOM     23  C   UNL     1       5.957   4.981  15.644  0.00  0.00    +0.000 C 
BRANCH  23  24
ATOM     24  C   UNL     1       7.292   5.628  15.885  0.00  0.00    +0.000 C 
BRANCH  24  25
ATOM     25  C   UNL     1       7.360   6.305  17.249  0.00  0.00    +0.000 C 
BRANCH  25  26
ATOM     26  C   UNL     1       7.151   7.815  17.157  0.00  0.00    +0.000 C 
BRANCH  26  27
ATOM     27  C   UNL     1       8.085   8.549  18.085  0.00  0.00    +0.000 C 
ATOM     28  O   UNL     1       8.264   9.764  18.092  0.00  0.00    +0.000 OA
BRANCH  27  29
ATOM     29  O   UNL     1       8.734   7.727  18.932  0.00  0.00    +0.000 OA
ATOM     30  H   UNL     1       9.370   8.190  19.510  0.00  0.00    +0.000 HD
ENDBRANCH  27  29
ENDBRANCH  26  27
ENDBRANCH  25  26
ENDBRANCH  24  25
ENDBRANCH  23  24
ENDBRANCH  21  22
ENDBRANCH   6  21
TORSDOF 10
ENDMDL
MODEL 5
REMARK VINA RESULT:      -7.2      2.728      7.682
REMARK  Name = 
REMARK  12 active torsions:
REMARK  status: ('A' for Active; 'I' for Inactive)
REMARK    1  A    between atoms: C_1  and  C_2
REMARK    2  A    between atoms: C_2  and  C_3
REMARK    3  A    between atoms: C_6  and  C_7
REMARK    4  A    between atoms: C_7  and  C_8
REMARK    5  A    between atoms: C_9  and  C_10
REMARK    6  A    between atoms: C_10  and  C_11
REMARK    7  A    between atoms: C_11  and  C_12
REMARK    8  A    between atoms: C_12  and  C_13
REMARK    9  A    between atoms: C_13  and  O_15
REMARK   10  A    between atoms: C_16  and  N_17
REMARK   11  A    between atoms: C_18  and  C_20
REMARK   12  A    between atoms: C_20  and  C_21
REMARK                            x       y       z     vdW  Elec       q    Type
REMARK                         _______ _______ _______ _____ _____    ______ ____
ROOT
ATOM      1  C   UNL     1       2.105   1.422  18.816  0.00  0.00    +0.000 C 
ATOM      2  C   UNL     1       2.696   2.835  18.999  0.00  0.00    +0.000 C 
ATOM      3  C   UNL     1       4.081   2.692  19.628  0.00  0.00    +0.000 C 
ATOM      4  C   UNL     1       1.713   3.889  19.638  0.00  0.00    +0.000 C 
ATOM      5  C   UNL     1       2.330   5.213  20.096  0.00  0.00    +0.000 C 
ATOM      6  C   UNL     1       3.295   5.823  19.046  0.00  0.00    +0.000 C 
ATOM      7  C   UNL     1       3.293   5.093  17.671  0.00  0.00    +0.000 C 
ATOM      8  C   UNL     1       2.546   3.751  17.718  0.00  0.00    +0.000 C 
ATOM      9  C   UNL     1       1.102   4.054  18.221  0.00  0.00    +0.000 C 
ENDROOT
BRANCH   7  10
ATOM     10  N   UNL     1       4.644   4.826  17.171  0.00  0.00    +0.000 N 
ATOM     11  C   UNL     1       5.270   5.732  16.338  0.00  0.00    +0.000 C 
ATOM     12  O   UNL     1       4.712   6.796  16.025  0.00  0.00    +0.000 OA
ATOM     13  H   UNL     1       5.121   3.968  17.419  0.00  0.00    +0.000 HD
BRANCH  11  14
ATOM     14  C   UNL     1       6.682   5.385  15.865  0.00  0.00    +0.000 C 
BRANCH  14  15
ATOM     15  C   UNL     1       6.790   4.873  14.438  0.00  0.00    +0.000 A 
ATOM     16  C   UNL     1       7.737   5.406  13.552  0.00  0.00    +0.000 A 
ATOM     17  C   UNL     1       7.816   4.955  12.227  0.00  0.00    +0.000 A 
ATOM     18  C   UNL     1       6.948   3.969  11.764  0.00  0.00    +0.000 A 
ATOM     19  C   UNL     1       6.037   3.398  12.639  0.00  0.00    +0.000 A 
ATOM     20  C   UNL     1       5.980   3.824  13.971  0.00  0.00    +0.000 A 
ENDBRANCH  14  15
ENDBRANCH  11  14
ENDBRANCH   7  10
BRANCH   6  21
ATOM     21  C   UNL     1       2.990   7.333  18.880  0.00  0.00    +0.000 C 
BRANCH  21  22
ATOM     22  C   UNL     1       1.935   7.839  19.827  0.00  0.00    +0.000 C 
ATOM     23  C   UNL     1       1.212   8.949  19.604  0.00  0.00    +0.000 C 
BRANCH  23  24
ATOM     24  C   UNL     1       0.268   9.524  20.623  0.00  0.00    +0.000 C 
BRANCH  24  25
ATOM     25  C   UNL     1      -0.673  10.557  20.011  0.00  0.00    +0.000 C 
BRANCH  25  26
ATOM     26  C   UNL     1      -0.874  10.340  18.513  0.00  0.00    +0.000 C 
BRANCH  26  27
ATOM     27  C   UNL     1      -2.311  10.573  18.120  0.00  0.00    +0.000 C 
ATOM     28  O   UNL     1      -2.936  11.613  18.309  0.00  0.00    +0.000 OA
BRANCH  27  29
ATOM     29  O   UNL     1      -2.872   9.500  17.528  0.00  0.00    +0.000 OA
ATOM     30  H   UNL     1      -3.428   8.972  18.130  0.00  0.00    +0.000 HD
ENDBRANCH  27  29
ENDBRANCH  26  27
ENDBRANCH  25  26
ENDBRANCH  24  25
ENDBRANCH  23  24
ENDBRANCH  21  22
ENDBRANCH   6  21
TORSDOF 10
ENDMDL
MODEL 6
REMARK VINA RESULT:      -7.1      2.218      7.333
REMARK  Name = 
REMARK  12 active torsions:
REMARK  status: ('A' for Active; 'I' for Inactive)
REMARK    1  A    between atoms: C_1  and  C_2
REMARK    2  A    between atoms: C_2  and  C_3
REMARK    3  A    between atoms: C_6  and  C_7
REMARK    4  A    between atoms: C_7  and  C_8
REMARK    5  A    between atoms: C_9  and  C_10
REMARK    6  A    between atoms: C_10  and  C_11
REMARK    7  A    between atoms: C_11  and  C_12
REMARK    8  A    between atoms: C_12  and  C_13
REMARK    9  A    between atoms: C_13  and  O_15
REMARK   10  A    between atoms: C_16  and  N_17
REMARK   11  A    between atoms: C_18  and  C_20
REMARK   12  A    between atoms: C_20  and  C_21
REMARK                            x       y       z     vdW  Elec       q    Type
REMARK                         _______ _______ _______ _____ _____    ______ ____
ROOT
ATOM      1  C   UNL     1       2.201   1.278  18.785  0.00  0.00    +0.000 C 
ATOM      2  C   UNL     1       2.780   2.677  19.076  0.00  0.00    +0.000 C 
ATOM      3  C   UNL     1       4.168   2.498  19.689  0.00  0.00    +0.000 C 
ATOM      4  C   UNL     1       1.790   3.670  19.798  0.00  0.00    +0.000 C 
ATOM      5  C   UNL     1       2.398   4.960  20.356  0.00  0.00    +0.000 C 
ATOM      6  C   UNL     1       3.354   5.658  19.355  0.00  0.00    +0.000 C 
ATOM      7  C   UNL     1       3.354   5.037  17.928  0.00  0.00    +0.000 C 
ATOM      8  C   UNL     1       2.619   3.690  17.872  0.00  0.00    +0.000 C 
ATOM      9  C   UNL     1       1.173   3.940  18.400  0.00  0.00    +0.000 C 
ENDROOT
BRANCH   7  10
ATOM     10  N   UNL     1       4.706   4.822  17.404  0.00  0.00    +0.000 N 
ATOM     11  C   UNL     1       5.256   5.715  16.507  0.00  0.00    +0.000 C 
ATOM     12  O   UNL     1       4.628   6.726  16.153  0.00  0.00    +0.000 OA
ATOM     13  H   UNL     1       5.239   4.008  17.685  0.00  0.00    +0.000 HD
BRANCH  11  14
ATOM     14  C   UNL     1       6.673   5.425  16.014  0.00  0.00    +0.000 C 
BRANCH  14  15
ATOM     15  C   UNL     1       6.784   4.951  14.574  0.00  0.00    +0.000 A 
ATOM     16  C   UNL     1       5.936   3.950  14.079  0.00  0.00    +0.000 A 
ATOM     17  C   UNL     1       6.059   3.490  12.760  0.00  0.00    +0.000 A 
ATOM     18  C   UNL     1       7.033   4.019  11.916  0.00  0.00    +0.000 A 
ATOM     19  C   UNL     1       7.849   5.043  12.375  0.00  0.00    +0.000 A 
ATOM     20  C   UNL     1       7.705   5.525  13.681  0.00  0.00    +0.000 A 
ENDBRANCH  14  15
ENDBRANCH  11  14
ENDBRANCH   7  10
BRANCH   6  21
ATOM     21  C   UNL     1       3.036   7.173  19.308  0.00  0.00    +0.000 C 
BRANCH  21  22
ATOM     22  C   UNL     1       1.723   7.531  19.952  0.00  0.00    +0.000 C 
ATOM     23  C   UNL     1       1.579   8.537  20.831  0.00  0.00    +0.000 C 
BRANCH  23  24
ATOM     24  C   UNL     1       0.298   8.789  21.576  0.00  0.00    +0.000 C 
BRANCH  24  25
ATOM     25  C   UNL     1      -0.361  10.097  21.150  0.00  0.00    +0.000 C 
BRANCH  25  26
ATOM     26  C   UNL     1       0.323  10.721  19.935  0.00  0.00    +0.000 C 
BRANCH  26  27
ATOM     27  C   UNL     1      -0.468  10.465  18.677  0.00  0.00    +0.000 C 
ATOM     28  O   UNL     1      -1.677  10.643  18.554  0.00  0.00    +0.000 OA
BRANCH  27  29
ATOM     29  O   UNL     1       0.293  10.003  17.666  0.00  0.00    +0.000 OA
ATOM     30  H   UNL     1       0.916  10.667  17.316  0.00  0.00    +0.000 HD
ENDBRANCH  27  29
ENDBRANCH  26  27
ENDBRANCH  25  26
ENDBRANCH  24  25
ENDBRANCH  23  24
ENDBRANCH  21  22
ENDBRANCH   6  21
TORSDOF 10
ENDMDL
MODEL 7
REMARK VINA RESULT:      -7.1      3.567      7.091
REMARK  Name = 
REMARK  12 active torsions:
REMARK  status: ('A' for Active; 'I' for Inactive)
REMARK    1  A    between atoms: C_1  and  C_2
REMARK    2  A    between atoms: C_2  and  C_3
REMARK    3  A    between atoms: C_6  and  C_7
REMARK    4  A    between atoms: C_7  and  C_8
REMARK    5  A    between atoms: C_9  and  C_10
REMARK    6  A    between atoms: C_10  and  C_11
REMARK    7  A    between atoms: C_11  and  C_12
REMARK    8  A    between atoms: C_12  and  C_13
REMARK    9  A    between atoms: C_13  and  O_15
REMARK   10  A    between atoms: C_16  and  N_17
REMARK   11  A    between atoms: C_18  and  C_20
REMARK   12  A    between atoms: C_20  and  C_21
REMARK                            x       y       z     vdW  Elec       q    Type
REMARK                         _______ _______ _______ _____ _____    ______ ____
ROOT
ATOM      1  C   UNL     1       1.975   4.537  17.407  0.00  0.00    +0.000 C 
ATOM      2  C   UNL     1       3.480   4.439  17.733  0.00  0.00    +0.000 C 
ATOM      3  C   UNL     1       3.874   2.963  17.708  0.00  0.00    +0.000 C 
ATOM      4  C   UNL     1       3.949   5.295  18.971  0.00  0.00    +0.000 C 
ATOM      5  C   UNL     1       5.357   5.017  19.504  0.00  0.00    +0.000 C 
ATOM      6  C   UNL     1       6.420   4.921  18.378  0.00  0.00    +0.000 C 
ATOM      7  C   UNL     1       5.898   5.324  16.967  0.00  0.00    +0.000 C 
ATOM      8  C   UNL     1       4.369   5.466  16.923  0.00  0.00    +0.000 C 
ATOM      9  C   UNL     1       3.980   6.514  18.010  0.00  0.00    +0.000 C 
ENDROOT
BRANCH   7  10
ATOM     10  N   UNL     1       6.280   4.364  15.929  0.00  0.00    +0.000 N 
ATOM     11  C   UNL     1       6.691   4.806  14.687  0.00  0.00    +0.000 C 
ATOM     12  O   UNL     1       6.772   6.021  14.443  0.00  0.00    +0.000 OA
ATOM     13  H   UNL     1       6.229   3.368  16.109  0.00  0.00    +0.000 HD
BRANCH  11  14
ATOM     14  C   UNL     1       7.080   3.743  13.661  0.00  0.00    +0.000 C 
BRANCH  14  15
ATOM     15  C   UNL     1       5.992   3.353  12.674  0.00  0.00    +0.000 A 
ATOM     16  C   UNL     1       4.816   4.108  12.564  0.00  0.00    +0.000 A 
ATOM     17  C   UNL     1       3.800   3.731  11.675  0.00  0.00    +0.000 A 
ATOM     18  C   UNL     1       3.938   2.591  10.887  0.00  0.00    +0.000 A 
ATOM     19  C   UNL     1       5.114   1.859  10.949  0.00  0.00    +0.000 A 
ATOM     20  C   UNL     1       6.143   2.254  11.812  0.00  0.00    +0.000 A 
ENDBRANCH  14  15
ENDBRANCH  11  14
ENDBRANCH   7  10
BRANCH   6  21
ATOM     21  C   UNL     1       7.666   5.752  18.773  0.00  0.00    +0.000 C 
BRANCH  21  22
ATOM     22  C   UNL     1       7.720   7.105  18.115  0.00  0.00    +0.000 C 
ATOM     23  C   UNL     1       8.487   8.114  18.559  0.00  0.00    +0.000 C 
BRANCH  23  24
ATOM     24  C   UNL     1       8.421   9.501  17.983  0.00  0.00    +0.000 C 
BRANCH  24  25
ATOM     25  C   UNL     1       9.036  10.537  18.917  0.00  0.00    +0.000 C 
BRANCH  25  26
ATOM     26  C   UNL     1       9.797  11.621  18.158  0.00  0.00    +0.000 C 
BRANCH  26  27
ATOM     27  C   UNL     1      11.275  11.551  18.449  0.00  0.00    +0.000 C 
ATOM     28  O   UNL     1      11.773  11.513  19.571  0.00  0.00    +0.000 OA
BRANCH  27  29
ATOM     29  O   UNL     1      12.029  11.540  17.333  0.00  0.00    +0.000 OA
ATOM     30  H   UNL     1      12.481  12.387  17.163  0.00  0.00    +0.000 HD
ENDBRANCH  27  29
ENDBRANCH  26  27
ENDBRANCH  25  26
ENDBRANCH  24  25
ENDBRANCH  23  24
ENDBRANCH  21  22
ENDBRANCH   6  21
TORSDOF 10
ENDMDL
MODEL 8
REMARK VINA RESULT:      -7.1      4.326      6.941
REMARK  Name = 
REMARK  12 active torsions:
REMARK  status: ('A' for Active; 'I' for Inactive)
REMARK    1  A    between atoms: C_1  and  C_2
REMARK    2  A    between atoms: C_2  and  C_3
REMARK    3  A    between atoms: C_6  and  C_7
REMARK    4  A    between atoms: C_7  and  C_8
REMARK    5  A    between atoms: C_9  and  C_10
REMARK    6  A    between atoms: C_10  and  C_11
REMARK    7  A    between atoms: C_11  and  C_12
REMARK    8  A    between atoms: C_12  and  C_13
REMARK    9  A    between atoms: C_13  and  O_15
REMARK   10  A    between atoms: C_16  and  N_17
REMARK   11  A    between atoms: C_18  and  C_20
REMARK   12  A    between atoms: C_20  and  C_21
REMARK                            x       y       z     vdW  Elec       q    Type
REMARK                         _______ _______ _______ _____ _____    ______ ____
ROOT
ATOM      1  C   UNL     1       4.237   5.206  19.709  0.00  0.00    +0.000 C 
ATOM      2  C   UNL     1       4.641   5.525  18.255  0.00  0.00    +0.000 C 
ATOM      3  C   UNL     1       3.784   6.693  17.770  0.00  0.00    +0.000 C 
ATOM      4  C   UNL     1       4.762   4.271  17.307  0.00  0.00    +0.000 C 
ATOM      5  C   UNL     1       4.883   4.554  15.807  0.00  0.00    +0.000 C 
ATOM      6  C   UNL     1       5.905   5.674  15.485  0.00  0.00    +0.000 C 
ATOM      7  C   UNL     1       6.748   6.145  16.707  0.00  0.00    +0.000 C 
ATOM      8  C   UNL     1       6.206   5.605  18.039  0.00  0.00    +0.000 C 
ATOM      9  C   UNL     1       6.173   4.051  17.917  0.00  0.00    +0.000 C 
ENDROOT
BRANCH   7  10
ATOM     10  N   UNL     1       6.814   7.605  16.819  0.00  0.00    +0.000 N 
ATOM     11  C   UNL     1       7.681   8.197  17.716  0.00  0.00    +0.000 C 
ATOM     12  O   UNL     1       8.437   7.504  18.417  0.00  0.00    +0.000 OA
ATOM     13  H   UNL     1       6.211   8.189  16.251  0.00  0.00    +0.000 HD
BRANCH  11  14
ATOM     14  C   UNL     1       7.696   9.724  17.767  0.00  0.00    +0.000 C 
BRANCH  14  15
ATOM     15  C   UNL     1       8.919  10.348  18.418  0.00  0.00    +0.000 A 
ATOM     16  C   UNL     1       9.030  10.426  19.814  0.00  0.00    +0.000 A 
ATOM     17  C   UNL     1      10.145  11.028  20.414  0.00  0.00    +0.000 A 
ATOM     18  C   UNL     1      11.163  11.568  19.632  0.00  0.00    +0.000 A 
ATOM     19  C   UNL     1      11.091  11.457  18.251  0.00  0.00    +0.000 A 
ATOM     20  C   UNL     1       9.995  10.826  17.652  0.00  0.00    +0.000 A 
ENDBRANCH  14  15
ENDBRANCH  11  14
ENDBRANCH   7  10
BRANCH   6  21
ATOM     21  C   UNL     1       6.816   5.222  14.316  0.00  0.00    +0.000 C 
BRANCH  21  22
ATOM     22  C   UNL     1       6.458   3.867  13.767  0.00  0.00    +0.000 C 
ATOM     23  C   UNL     1       6.192   3.641  12.469  0.00  0.00    +0.000 C 
BRANCH  23  24
ATOM     24  C   UNL     1       5.694   2.318  11.959  0.00  0.00    +0.000 C 
BRANCH  24  25
ATOM     25  C   UNL     1       4.423   2.467  11.131  0.00  0.00    +0.000 C 
BRANCH  25  26
ATOM     26  C   UNL     1       3.980   3.923  11.009  0.00  0.00    +0.000 C 
BRANCH  26  27
ATOM     27  C   UNL     1       3.061   4.113   9.829  0.00  0.00    +0.000 C 
ATOM     28  O   UNL     1       2.575   5.185   9.477  0.00  0.00    +0.000 OA
BRANCH  27  29
ATOM     29  O   UNL     1       2.806   2.964   9.174  0.00  0.00    +0.000 OA
ATOM     30  H   UNL     1       2.458   2.258   9.752  0.00  0.00    +0.000 HD
ENDBRANCH  27  29
ENDBRANCH  26  27
ENDBRANCH  25  26
ENDBRANCH  24  25
ENDBRANCH  23  24
ENDBRANCH  21  22
ENDBRANCH   6  21
TORSDOF 10
ENDMDL
MODEL 9
REMARK VINA RESULT:      -7.0      2.582      7.332
REMARK  Name = 
REMARK  12 active torsions:
REMARK  status: ('A' for Active; 'I' for Inactive)
REMARK    1  A    between atoms: C_1  and  C_2
REMARK    2  A    between atoms: C_2  and  C_3
REMARK    3  A    between atoms: C_6  and  C_7
REMARK    4  A    between atoms: C_7  and  C_8
REMARK    5  A    between atoms: C_9  and  C_10
REMARK    6  A    between atoms: C_10  and  C_11
REMARK    7  A    between atoms: C_11  and  C_12
REMARK    8  A    between atoms: C_12  and  C_13
REMARK    9  A    between atoms: C_13  and  O_15
REMARK   10  A    between atoms: C_16  and  N_17
REMARK   11  A    between atoms: C_18  and  C_20
REMARK   12  A    between atoms: C_20  and  C_21
REMARK                            x       y       z     vdW  Elec       q    Type
REMARK                         _______ _______ _______ _____ _____    ______ ____
ROOT
ATOM      1  C   UNL     1       2.217   1.983  19.031  0.00  0.00    +0.000 C 
ATOM      2  C   UNL     1       3.030   3.278  18.828  0.00  0.00    +0.000 C 
ATOM      3  C   UNL     1       4.487   2.983  19.179  0.00  0.00    +0.000 C 
ATOM      4  C   UNL     1       2.382   4.575  19.448  0.00  0.00    +0.000 C 
ATOM      5  C   UNL     1       3.271   5.819  19.520  0.00  0.00    +0.000 C 
ATOM      6  C   UNL     1       4.046   6.084  18.203  0.00  0.00    +0.000 C 
ATOM      7  C   UNL     1       3.623   5.171  17.015  0.00  0.00    +0.000 C 
ATOM      8  C   UNL     1       2.722   4.007  17.458  0.00  0.00    +0.000 C 
ATOM      9  C   UNL     1       1.491   4.636  18.178  0.00  0.00    +0.000 C 
ENDROOT
BRANCH   7  10
ATOM     10  N   UNL     1       4.770   4.595  16.309  0.00  0.00    +0.000 N 
ATOM     11  C   UNL     1       5.435   5.327  15.346  0.00  0.00    +0.000 C 
ATOM     12  O   UNL     1       5.091   6.491  15.085  0.00  0.00    +0.000 OA
ATOM     13  H   UNL     1       5.072   3.649  16.511  0.00  0.00    +0.000 HD
BRANCH  11  14
ATOM     14  C   UNL     1       6.626   4.659  14.660  0.00  0.00    +0.000 C 
BRANCH  14  15
ATOM     15  C   UNL     1       6.304   3.878  13.397  0.00  0.00    +0.000 A 
ATOM     16  C   UNL     1       4.978   3.710  12.973  0.00  0.00    +0.000 A 
ATOM     17  C   UNL     1       4.679   2.964  11.824  0.00  0.00    +0.000 A 
ATOM     18  C   UNL     1       5.698   2.370  11.083  0.00  0.00    +0.000 A 
ATOM     19  C   UNL     1       7.019   2.566  11.461  0.00  0.00    +0.000 A 
ATOM     20  C   UNL     1       7.319   3.339  12.589  0.00  0.00    +0.000 A 
ENDBRANCH  14  15
ENDBRANCH  11  14
ENDBRANCH   7  10
BRANCH   6  21
ATOM     21  C   UNL     1       3.929   7.583  17.829  0.00  0.00    +0.000 C 
BRANCH  21  22
ATOM     22  C   UNL     1       2.725   8.259  18.426  0.00  0.00    +0.000 C 
ATOM     23  C   UNL     1       1.715   8.757  17.693  0.00  0.00    +0.000 C 
BRANCH  23  24
ATOM     24  C   UNL     1       0.593   9.558  18.292  0.00  0.00    +0.000 C 
BRANCH  24  25
ATOM     25  C   UNL     1       1.017  10.263  19.575  0.00  0.00    +0.000 C 
BRANCH  25  26
ATOM     26  C   UNL     1       0.000  10.077  20.700  0.00  0.00    +0.000 C 
BRANCH  26  27
ATOM     27  C   UNL     1       0.192   8.751  21.391  0.00  0.00    +0.000 C 
ATOM     28  O   UNL     1      -0.709   7.974  21.691  0.00  0.00    +0.000 OA
BRANCH  27  29
ATOM     29  O   UNL     1       1.485   8.486  21.664  0.00  0.00    +0.000 OA
ATOM     30  H   UNL     1       1.671   8.414  22.619  0.00  0.00    +0.000 HD
ENDBRANCH  27  29
ENDBRANCH  26  27
ENDBRANCH  25  26
ENDBRANCH  24  25
ENDBRANCH  23  24
ENDBRANCH  21  22
ENDBRANCH   6  21
TORSDOF 10
ENDMDL
