MODEL 1
REMARK VINA RESULT:      -8.8      0.000      0.000
REMARK  Name = 
REMARK  7 active torsions:
REMARK  status: ('A' for Active; 'I' for Inactive)
REMARK    1  A    between atoms: C_1  and  N_2
REMARK    2  A    between atoms: C_5  and  O_6
REMARK    3  A    between atoms: O_6  and  C_7
REMARK    4  A    between atoms: C_10  and  N_11
REMARK    5  A    between atoms: C_12  and  C_14
REMARK    6  A    between atoms: C_21  and  C_22
REMARK    7  A    between atoms: N_25  and  C_26
REMARK                            x       y       z     vdW  Elec       q    Type
REMARK                         _______ _______ _______ _____ _____    ______ ____
ROOT
ATOM      1  N   UNL     1       7.870   8.626  17.395  0.00  0.00    +0.000 N 
ATOM      2  C   UNL     1       7.825   7.319  17.860  0.00  0.00    +0.000 C 
ATOM      3  O   UNL     1       8.241   6.950  18.957  0.00  0.00    +0.000 OA
ATOM      4  H   UNL     1       7.396   8.779  16.508  0.00  0.00    +0.000 HD
ENDROOT
BRANCH   2   5
ATOM      5  C   UNL     1       7.185   6.369  16.935  0.00  0.00    +0.000 A 
ATOM      6  N   UNL     1       7.656   6.138  15.691  0.00  0.00    +0.000 NA
ATOM      7  N   UNL     1       6.804   5.219  15.192  0.00  0.00    +0.000 N 
ATOM      8  C   UNL     1       5.787   4.868  16.040  0.00  0.00    +0.000 A 
ATOM      9  C   UNL     1       4.708   3.992  15.896  0.00  0.00    +0.000 A 
ATOM     10  C   UNL     1       3.833   3.870  16.982  0.00  0.00    +0.000 A 
ATOM     11  F   UNL     1       2.786   3.041  16.838  0.00  0.00    +0.000 F 
ATOM     12  C   UNL     1       4.010   4.584  18.174  0.00  0.00    +0.000 A 
ATOM     13  C   UNL     1       5.115   5.449  18.283  0.00  0.00    +0.000 A 
ATOM     14  C   UNL     1       6.011   5.598  17.199  0.00  0.00    +0.000 A 
ATOM     15  H   UNL     1       6.965   4.870  14.253  0.00  0.00    +0.000 HD
BRANCH  12  16
ATOM     16  C   UNL     1       3.077   4.438  19.282  0.00  0.00    +0.000 A 
ATOM     17  C   UNL     1       2.192   5.367  19.881  0.00  0.00    +0.000 A 
ATOM     18  N   UNL     1       1.496   4.841  20.894  0.00  0.00    +0.000 NA
ATOM     19  N   UNL     1       1.943   3.576  20.958  0.00  0.00    +0.000 N 
ATOM     20  C   UNL     1       1.431   2.674  21.962  0.00  0.00    +0.000 C 
ATOM     21  C   UNL     1       2.888   3.284  20.017  0.00  0.00    +0.000 A 
ENDBRANCH  12  16
ENDBRANCH   2   5
BRANCH   1  25
ATOM     22  C   UNL     1       9.475  11.888  19.459  0.00  0.00    +0.000 A 
ATOM     23  N   UNL     1       9.531  10.675  20.048  0.00  0.00    +0.000 NA
ATOM     24  C   UNL     1       9.001   9.634  19.357  0.00  0.00    +0.000 A 
ATOM     25  C   UNL     1       8.422   9.726  18.089  0.00  0.00    +0.000 A 
ATOM     26  C   UNL     1       8.404  10.991  17.500  0.00  0.00    +0.000 A 
ATOM     27  C   UNL     1       8.915  12.085  18.203  0.00  0.00    +0.000 A 
ATOM     28  F   UNL     1       8.870  13.305  17.646  0.00  0.00    +0.000 F 
BRANCH  22  29
ATOM     29  O   UNL     1       9.935  12.980  20.163  0.00  0.00    +0.000 OA
BRANCH  29  34
ATOM     30  C   UNL     1       7.252  16.434  23.728  0.00  0.00    +0.000 C 
ATOM     31  N   UNL     1       8.190  15.730  22.852  0.00  0.00    +0.000 NA
ATOM     32  C   UNL     1       8.356  14.337  23.288  0.00  0.00    +0.000 C 
ATOM     33  C   UNL     1       9.347  13.594  22.396  0.00  0.00    +0.000 C 
ATOM     34  C   UNL     1       8.914  13.643  20.928  0.00  0.00    +0.000 C 
ATOM     35  C   UNL     1       8.733  15.108  20.519  0.00  0.00    +0.000 C 
ATOM     36  C   UNL     1       7.746  15.807  21.453  0.00  0.00    +0.000 C 
ENDBRANCH  29  34
ENDBRANCH  22  29
ENDBRANCH   1  25
TORSDOF 5
ENDMDL
MODEL 2
REMARK VINA RESULT:      -8.7      5.824      8.214
REMARK  Name = 
REMARK  7 active torsions:
REMARK  status: ('A' for Active; 'I' for Inactive)
REMARK    1  A    between atoms: C_1  and  N_2
REMARK    2  A    between atoms: C_5  and  O_6
REMARK    3  A    between atoms: O_6  and  C_7
REMARK    4  A    between atoms: C_10  and  N_11
REMARK    5  A    between atoms: C_12  and  C_14
REMARK    6  A    between atoms: C_21  and  C_22
REMARK    7  A    between atoms: N_25  and  C_26
REMARK                            x       y       z     vdW  Elec       q    Type
REMARK                         _______ _______ _______ _____ _____    ______ ____
ROOT
ATOM      1  N   UNL     1       0.809   7.289  20.996  0.00  0.00    +0.000 N 
ATOM      2  C   UNL     1       1.789   6.809  20.137  0.00  0.00    +0.000 C 
ATOM      3  O   UNL     1       2.628   7.507  19.570  0.00  0.00    +0.000 OA
ATOM      4  H   UNL     1       0.258   6.569  21.456  0.00  0.00    +0.000 HD
ENDROOT
BRANCH   2   5
ATOM      5  C   UNL     1       1.785   5.346  19.971  0.00  0.00    +0.000 A 
ATOM      6  N   UNL     1       0.939   4.541  20.649  0.00  0.00    +0.000 NA
ATOM      7  N   UNL     1       1.254   3.305  20.210  0.00  0.00    +0.000 N 
ATOM      8  C   UNL     1       2.283   3.268  19.307  0.00  0.00    +0.000 A 
ATOM      9  C   UNL     1       2.914   2.208  18.650  0.00  0.00    +0.000 A 
ATOM     10  C   UNL     1       3.960   2.529  17.775  0.00  0.00    +0.000 A 
ATOM     11  F   UNL     1       4.578   1.510  17.157  0.00  0.00    +0.000 F 
ATOM     12  C   UNL     1       4.372   3.849  17.550  0.00  0.00    +0.000 A 
ATOM     13  C   UNL     1       3.704   4.888  18.224  0.00  0.00    +0.000 A 
ATOM     14  C   UNL     1       2.650   4.593  19.119  0.00  0.00    +0.000 A 
ATOM     15  H   UNL     1       0.731   2.515  20.574  0.00  0.00    +0.000 HD
BRANCH  12  16
ATOM     16  C   UNL     1       5.468   4.146  16.638  0.00  0.00    +0.000 A 
ATOM     17  C   UNL     1       6.815   4.507  16.888  0.00  0.00    +0.000 A 
ATOM     18  N   UNL     1       7.514   4.707  15.767  0.00  0.00    +0.000 NA
ATOM     19  N   UNL     1       6.615   4.489  14.793  0.00  0.00    +0.000 N 
ATOM     20  C   UNL     1       6.996   4.629  13.407  0.00  0.00    +0.000 C 
ATOM     21  C   UNL     1       5.377   4.151  15.260  0.00  0.00    +0.000 A 
ENDBRANCH  12  16
ENDBRANCH   2   5
BRANCH   1  25
ATOM     22  C   UNL     1       0.171  11.302  21.976  0.00  0.00    +0.000 A 
ATOM     23  N   UNL     1       0.115  10.390  22.969  0.00  0.00    +0.000 NA
ATOM     24  C   UNL     1       0.323   9.094  22.623  0.00  0.00    +0.000 A 
ATOM     25  C   UNL     1       0.603   8.646  21.330  0.00  0.00    +0.000 A 
ATOM     26  C   UNL     1       0.678   9.619  20.333  0.00  0.00    +0.000 A 
ATOM     27  C   UNL     1       0.437  10.957  20.656  0.00  0.00    +0.000 A 
ATOM     28  F   UNL     1       0.481  11.886  19.691  0.00  0.00    +0.000 F 
BRANCH  22  29
ATOM     29  O   UNL     1      -0.111  12.618  22.276  0.00  0.00    +0.000 OA
BRANCH  29  34
ATOM     30  C   UNL     1      -5.103  14.729  23.845  0.00  0.00    +0.000 C 
ATOM     31  N   UNL     1      -3.823  14.401  23.216  0.00  0.00    +0.000 NA
ATOM     32  C   UNL     1      -2.727  14.516  24.188  0.00  0.00    +0.000 C 
ATOM     33  C   UNL     1      -1.381  14.197  23.543  0.00  0.00    +0.000 C 
ATOM     34  C   UNL     1      -1.387  12.801  22.913  0.00  0.00    +0.000 C 
ATOM     35  C   UNL     1      -2.553  12.715  21.923  0.00  0.00    +0.000 C 
ATOM     36  C   UNL     1      -3.871  13.060  22.616  0.00  0.00    +0.000 C 
ENDBRANCH  29  34
ENDBRANCH  22  29
ENDBRANCH   1  25
TORSDOF 5
ENDMDL
MODEL 3
REMARK VINA RESULT:      -8.5      6.036      7.761
REMARK  Name = 
REMARK  7 active torsions:
REMARK  status: ('A' for Active; 'I' for Inactive)
REMARK    1  A    between atoms: C_1  and  N_2
REMARK    2  A    between atoms: C_5  and  O_6
REMARK    3  A    between atoms: O_6  and  C_7
REMARK    4  A    between atoms: C_10  and  N_11
REMARK    5  A    between atoms: C_12  and  C_14
REMARK    6  A    between atoms: C_21  and  C_22
REMARK    7  A    between atoms: N_25  and  C_26
REMARK                            x       y       z     vdW  Elec       q    Type
REMARK                         _______ _______ _______ _____ _____    ______ ____
ROOT
ATOM      1  N   UNL     1       1.224   9.590  19.534  0.00  0.00    +0.000 N 
ATOM      2  C   UNL     1       1.870   8.687  18.701  0.00  0.00    +0.000 C 
ATOM      3  O   UNL     1       2.188   8.912  17.535  0.00  0.00    +0.000 OA
ATOM      4  H   UNL     1       1.121   9.281  20.498  0.00  0.00    +0.000 HD
ENDROOT
BRANCH   2   5
ATOM      5  C   UNL     1       2.199   7.402  19.340  0.00  0.00    +0.000 A 
ATOM      6  N   UNL     1       1.666   7.021  20.520  0.00  0.00    +0.000 NA
ATOM      7  N   UNL     1       2.213   5.807  20.741  0.00  0.00    +0.000 N 
ATOM      8  C   UNL     1       3.097   5.400  19.778  0.00  0.00    +0.000 A 
ATOM      9  C   UNL     1       3.877   4.247  19.651  0.00  0.00    +0.000 A 
ATOM     10  C   UNL     1       4.694   4.148  18.518  0.00  0.00    +0.000 A 
ATOM     11  F   UNL     1       5.457   3.049  18.405  0.00  0.00    +0.000 F 
ATOM     12  C   UNL     1       4.744   5.148  17.538  0.00  0.00    +0.000 A 
ATOM     13  C   UNL     1       3.935   6.289  17.698  0.00  0.00    +0.000 A 
ATOM     14  C   UNL     1       3.106   6.419  18.836  0.00  0.00    +0.000 A 
ATOM     15  H   UNL     1       1.947   5.303  21.581  0.00  0.00    +0.000 HD
BRANCH  12  16
ATOM     16  C   UNL     1       5.609   5.016  16.375  0.00  0.00    +0.000 A 
ATOM     17  C   UNL     1       6.891   5.554  16.104  0.00  0.00    +0.000 A 
ATOM     18  N   UNL     1       7.358   5.201  14.902  0.00  0.00    +0.000 NA
ATOM     19  N   UNL     1       6.371   4.446  14.392  0.00  0.00    +0.000 N 
ATOM     20  C   UNL     1       6.496   3.882  13.069  0.00  0.00    +0.000 C 
ATOM     21  C   UNL     1       5.304   4.304  15.232  0.00  0.00    +0.000 A 
ENDBRANCH  12  16
ENDBRANCH   2   5
BRANCH   1  25
ATOM     22  C   UNL     1      -0.018  13.441  18.485  0.00  0.00    +0.000 A 
ATOM     23  N   UNL     1       1.286  13.253  18.777  0.00  0.00    +0.000 NA
ATOM     24  C   UNL     1       1.662  11.994  19.117  0.00  0.00    +0.000 A 
ATOM     25  C   UNL     1       0.807  10.890  19.170  0.00  0.00    +0.000 A 
ATOM     26  C   UNL     1      -0.528  11.116  18.837  0.00  0.00    +0.000 A 
ATOM     27  C   UNL     1      -0.949  12.409  18.514  0.00  0.00    +0.000 A 
ATOM     28  F   UNL     1      -2.239  12.629  18.223  0.00  0.00    +0.000 F 
BRANCH  22  29
ATOM     29  O   UNL     1      -0.451  14.720  18.210  0.00  0.00    +0.000 OA
BRANCH  29  34
ATOM     30  C   UNL     1      -1.397  18.631  22.167  0.00  0.00    +0.000 C 
ATOM     31  N   UNL     1      -1.463  17.623  21.106  0.00  0.00    +0.000 NA
ATOM     32  C   UNL     1      -0.664  18.043  19.947  0.00  0.00    +0.000 C 
ATOM     33  C   UNL     1      -0.738  17.012  18.823  0.00  0.00    +0.000 C 
ATOM     34  C   UNL     1      -0.284  15.633  19.309  0.00  0.00    +0.000 C 
ATOM     35  C   UNL     1      -1.126  15.240  20.528  0.00  0.00    +0.000 C 
ATOM     36  C   UNL     1      -1.029  16.313  21.612  0.00  0.00    +0.000 C 
ENDBRANCH  29  34
ENDBRANCH  22  29
ENDBRANCH   1  25
TORSDOF 5
ENDMDL
MODEL 4
REMARK VINA RESULT:      -8.5      1.285      1.657
REMARK  Name = 
REMARK  7 active torsions:
REMARK  status: ('A' for Active; 'I' for Inactive)
REMARK    1  A    between atoms: C_1  and  N_2
REMARK    2  A    between atoms: C_5  and  O_6
REMARK    3  A    between atoms: O_6  and  C_7
REMARK    4  A    between atoms: C_10  and  N_11
REMARK    5  A    between atoms: C_12  and  C_14
REMARK    6  A    between atoms: C_21  and  C_22
REMARK    7  A    between atoms: N_25  and  C_26
REMARK                            x       y       z     vdW  Elec       q    Type
REMARK                         _______ _______ _______ _____ _____    ______ ____
ROOT
ATOM      1  N   UNL     1       7.875   8.824  17.340  0.00  0.00    +0.000 N 
ATOM      2  C   UNL     1       7.884   7.531  17.846  0.00  0.00    +0.000 C 
ATOM      3  O   UNL     1       8.299   7.217  18.959  0.00  0.00    +0.000 OA
ATOM      4  H   UNL     1       7.408   8.926  16.442  0.00  0.00    +0.000 HD
ENDROOT
BRANCH   2   5
ATOM      5  C   UNL     1       7.302   6.524  16.943  0.00  0.00    +0.000 A 
ATOM      6  N   UNL     1       7.809   6.267  15.719  0.00  0.00    +0.000 NA
ATOM      7  N   UNL     1       7.005   5.297  15.237  0.00  0.00    +0.000 N 
ATOM      8  C   UNL     1       5.984   4.937  16.075  0.00  0.00    +0.000 A 
ATOM      9  C   UNL     1       4.944   4.014  15.941  0.00  0.00    +0.000 A 
ATOM     10  C   UNL     1       4.050   3.896  17.013  0.00  0.00    +0.000 A 
ATOM     11  F   UNL     1       3.040   3.021  16.877  0.00  0.00    +0.000 F 
ATOM     12  C   UNL     1       4.173   4.659  18.181  0.00  0.00    +0.000 A 
ATOM     13  C   UNL     1       5.241   5.571  18.281  0.00  0.00    +0.000 A 
ATOM     14  C   UNL     1       6.154   5.716  17.212  0.00  0.00    +0.000 A 
ATOM     15  H   UNL     1       7.200   4.922  14.314  0.00  0.00    +0.000 HD
BRANCH  12  16
ATOM     16  C   UNL     1       3.222   4.516  19.274  0.00  0.00    +0.000 A 
ATOM     17  C   UNL     1       2.351   5.455  19.878  0.00  0.00    +0.000 A 
ATOM     18  N   UNL     1       1.630   4.928  20.873  0.00  0.00    +0.000 NA
ATOM     19  N   UNL     1       2.045   3.652  20.920  0.00  0.00    +0.000 N 
ATOM     20  C   UNL     1       1.499   2.744  21.901  0.00  0.00    +0.000 C 
ATOM     21  C   UNL     1       2.996   3.354  19.986  0.00  0.00    +0.000 A 
ENDBRANCH  12  16
ENDBRANCH   2   5
BRANCH   1  25
ATOM     22  C   UNL     1       9.353  12.209  19.296  0.00  0.00    +0.000 A 
ATOM     23  N   UNL     1       8.672  12.389  18.146  0.00  0.00    +0.000 NA
ATOM     24  C   UNL     1       8.205  11.273  17.530  0.00  0.00    +0.000 A 
ATOM     25  C   UNL     1       8.366   9.970  18.005  0.00  0.00    +0.000 A 
ATOM     26  C   UNL     1       9.053   9.824  19.210  0.00  0.00    +0.000 A 
ATOM     27  C   UNL     1       9.572  10.953  19.849  0.00  0.00    +0.000 A 
ATOM     28  F   UNL     1      10.258  10.807  20.992  0.00  0.00    +0.000 F 
BRANCH  22  29
ATOM     29  O   UNL     1       9.908  13.313  19.910  0.00  0.00    +0.000 OA
BRANCH  29  34
ATOM     30  C   UNL     1       7.864  18.539  20.507  0.00  0.00    +0.000 C 
ATOM     31  N   UNL     1       8.626  17.289  20.534  0.00  0.00    +0.000 NA
ATOM     32  C   UNL     1       7.808  16.198  21.079  0.00  0.00    +0.000 C 
ATOM     33  C   UNL     1       8.595  14.891  21.133  0.00  0.00    +0.000 C 
ATOM     34  C   UNL     1       9.129  14.511  19.749  0.00  0.00    +0.000 C 
ATOM     35  C   UNL     1       9.959  15.680  19.207  0.00  0.00    +0.000 C 
ATOM     36  C   UNL     1       9.130  16.964  19.192  0.00  0.00    +0.000 C 
ENDBRANCH  29  34
ENDBRANCH  22  29
ENDBRANCH   1  25
TORSDOF 5
ENDMDL
MODEL 5
REMARK VINA RESULT:      -8.4      1.008      1.199
REMARK  Name = 
REMARK  7 active torsions:
REMARK  status: ('A' for Active; 'I' for Inactive)
REMARK    1  A    between atoms: C_1  and  N_2
REMARK    2  A    between atoms: C_5  and  O_6
REMARK    3  A    between atoms: O_6  and  C_7
REMARK    4  A    between atoms: C_10  and  N_11
REMARK    5  A    between atoms: C_12  and  C_14
REMARK    6  A    between atoms: C_21  and  C_22
REMARK    7  A    between atoms: N_25  and  C_26
REMARK                            x       y       z     vdW  Elec       q    Type
REMARK                         _______ _______ _______ _____ _____    ______ ____
ROOT
ATOM      1  N   UNL     1       7.805   8.777  17.303  0.00  0.00    +0.000 N 
ATOM      2  C   UNL     1       7.830   7.481  17.800  0.00  0.00    +0.000 C 
ATOM      3  O   UNL     1       8.280   7.159  18.898  0.00  0.00    +0.000 OA
ATOM      4  H   UNL     1       7.311   8.885  16.421  0.00  0.00    +0.000 HD
ENDROOT
BRANCH   2   5
ATOM      5  C   UNL     1       7.221   6.480  16.909  0.00  0.00    +0.000 A 
ATOM      6  N   UNL     1       7.699   6.221  15.673  0.00  0.00    +0.000 NA
ATOM      7  N   UNL     1       6.877   5.258  15.207  0.00  0.00    +0.000 N 
ATOM      8  C   UNL     1       5.873   4.904  16.068  0.00  0.00    +0.000 A 
ATOM      9  C   UNL     1       4.823   3.989  15.956  0.00  0.00    +0.000 A 
ATOM     10  C   UNL     1       3.952   3.875  17.047  0.00  0.00    +0.000 A 
ATOM     11  F   UNL     1       2.933   3.008  16.932  0.00  0.00    +0.000 F 
ATOM     12  C   UNL     1       4.107   4.635  18.213  0.00  0.00    +0.000 A 
ATOM     13  C   UNL     1       5.183   5.539  18.291  0.00  0.00    +0.000 A 
ATOM     14  C   UNL     1       6.073   5.680  17.201  0.00  0.00    +0.000 A 
ATOM     15  H   UNL     1       7.049   4.883  14.280  0.00  0.00    +0.000 HD
BRANCH  12  16
ATOM     16  C   UNL     1       3.179   4.497  19.327  0.00  0.00    +0.000 A 
ATOM     17  C   UNL     1       2.361   5.451  19.980  0.00  0.00    +0.000 A 
ATOM     18  N   UNL     1       1.646   4.923  20.978  0.00  0.00    +0.000 NA
ATOM     19  N   UNL     1       2.013   3.631  20.979  0.00  0.00    +0.000 N 
ATOM     20  C   UNL     1       1.457   2.717  21.949  0.00  0.00    +0.000 C 
ATOM     21  C   UNL     1       2.927   3.324  20.012  0.00  0.00    +0.000 A 
ENDBRANCH  12  16
ENDBRANCH   2   5
BRANCH   1  25
ATOM     22  C   UNL     1       9.343  12.148  19.238  0.00  0.00    +0.000 A 
ATOM     23  N   UNL     1       8.683  12.331  18.075  0.00  0.00    +0.000 NA
ATOM     24  C   UNL     1       8.196  11.219  17.467  0.00  0.00    +0.000 A 
ATOM     25  C   UNL     1       8.316   9.918  17.961  0.00  0.00    +0.000 A 
ATOM     26  C   UNL     1       8.982   9.770  19.178  0.00  0.00    +0.000 A 
ATOM     27  C   UNL     1       9.520  10.895  19.810  0.00  0.00    +0.000 A 
ATOM     28  F   UNL     1      10.186  10.746  20.965  0.00  0.00    +0.000 F 
BRANCH  22  29
ATOM     29  O   UNL     1       9.917  13.245  19.845  0.00  0.00    +0.000 OA
BRANCH  29  34
ATOM     30  C   UNL     1       7.553  16.676  23.652  0.00  0.00    +0.000 C 
ATOM     31  N   UNL     1       8.235  16.053  22.516  0.00  0.00    +0.000 NA
ATOM     32  C   UNL     1       9.372  15.246  22.976  0.00  0.00    +0.000 C 
ATOM     33  C   UNL     1      10.107  14.605  21.801  0.00  0.00    +0.000 C 
ATOM     34  C   UNL     1       9.157  13.750  20.957  0.00  0.00    +0.000 C 
ATOM     35  C   UNL     1       7.977  14.620  20.513  0.00  0.00    +0.000 C 
ATOM     36  C   UNL     1       7.291  15.249  21.726  0.00  0.00    +0.000 C 
ENDBRANCH  29  34
ENDBRANCH  22  29
ENDBRANCH   1  25
TORSDOF 5
ENDMDL
MODEL 6
REMARK VINA RESULT:      -8.4      2.474     10.033
REMARK  Name = 
REMARK  7 active torsions:
REMARK  status: ('A' for Active; 'I' for Inactive)
REMARK    1  A    between atoms: C_1  and  N_2
REMARK    2  A    between atoms: C_5  and  O_6
REMARK    3  A    between atoms: O_6  and  C_7
REMARK    4  A    between atoms: C_10  and  N_11
REMARK    5  A    between atoms: C_12  and  C_14
REMARK    6  A    between atoms: C_21  and  C_22
REMARK    7  A    between atoms: N_25  and  C_26
REMARK                            x       y       z     vdW  Elec       q    Type
REMARK                         _______ _______ _______ _____ _____    ______ ____
ROOT
ATOM      1  N   UNL     1       8.890   8.576  18.693  0.00  0.00    +0.000 N 
ATOM      2  C   UNL     1       8.530   9.807  18.162  0.00  0.00    +0.000 C 
ATOM      3  O   UNL     1       7.506  10.020  17.516  0.00  0.00    +0.000 OA
ATOM      4  H   UNL     1       9.718   8.593  19.283  0.00  0.00    +0.000 HD
ENDROOT
BRANCH   2   5
ATOM      5  C   UNL     1       9.471  10.897  18.468  0.00  0.00    +0.000 A 
ATOM      6  N   UNL     1      10.492  11.227  17.648  0.00  0.00    +0.000 NA
ATOM      7  N   UNL     1      11.092  12.255  18.282  0.00  0.00    +0.000 N 
ATOM      8  C   UNL     1      10.529  12.586  19.486  0.00  0.00    +0.000 A 
ATOM      9  C   UNL     1      10.861  13.550  20.441  0.00  0.00    +0.000 A 
ATOM     10  C   UNL     1      10.060  13.618  21.588  0.00  0.00    +0.000 A 
ATOM     11  F   UNL     1      10.390  14.533  22.514  0.00  0.00    +0.000 F 
ATOM     12  C   UNL     1       8.966  12.767  21.792  0.00  0.00    +0.000 A 
ATOM     13  C   UNL     1       8.659  11.816  20.801  0.00  0.00    +0.000 A 
ATOM     14  C   UNL     1       9.455  11.720  19.636  0.00  0.00    +0.000 A 
ATOM     15  H   UNL     1      11.896  12.692  17.842  0.00  0.00    +0.000 HD
BRANCH  12  16
ATOM     16  C   UNL     1       8.159  12.860  22.999  0.00  0.00    +0.000 A 
ATOM     17  C   UNL     1       8.129  12.055  24.164  0.00  0.00    +0.000 A 
ATOM     18  N   UNL     1       7.229  12.471  25.060  0.00  0.00    +0.000 NA
ATOM     19  N   UNL     1       6.667  13.538  24.468  0.00  0.00    +0.000 N 
ATOM     20  C   UNL     1       5.612  14.266  25.132  0.00  0.00    +0.000 C 
ATOM     21  C   UNL     1       7.186  13.813  23.235  0.00  0.00    +0.000 A 
ENDBRANCH  12  16
ENDBRANCH   2   5
BRANCH   1  25
ATOM     22  C   UNL     1       6.749   5.012  18.261  0.00  0.00    +0.000 A 
ATOM     23  N   UNL     1       7.426   5.209  19.411  0.00  0.00    +0.000 NA
ATOM     24  C   UNL     1       8.115   6.373  19.525  0.00  0.00    +0.000 A 
ATOM     25  C   UNL     1       8.159   7.375  18.552  0.00  0.00    +0.000 A 
ATOM     26  C   UNL     1       7.427   7.149  17.386  0.00  0.00    +0.000 A 
ATOM     27  C   UNL     1       6.734   5.945  17.231  0.00  0.00    +0.000 A 
ATOM     28  F   UNL     1       6.056   5.717  16.097  0.00  0.00    +0.000 F 
BRANCH  22  29
ATOM     29  O   UNL     1       6.101   3.809  18.079  0.00  0.00    +0.000 OA
BRANCH  29  34
ATOM     30  C   UNL     1       0.701   2.396  18.911  0.00  0.00    +0.000 C 
ATOM     31  N   UNL     1       2.135   2.461  18.622  0.00  0.00    +0.000 NA
ATOM     32  C   UNL     1       2.402   3.431  17.552  0.00  0.00    +0.000 C 
ATOM     33  C   UNL     1       3.892   3.495  17.224  0.00  0.00    +0.000 C 
ATOM     34  C   UNL     1       4.717   3.837  18.468  0.00  0.00    +0.000 C 
ATOM     35  C   UNL     1       4.396   2.815  19.564  0.00  0.00    +0.000 C 
ATOM     36  C   UNL     1       2.893   2.781  19.840  0.00  0.00    +0.000 C 
ENDBRANCH  29  34
ENDBRANCH  22  29
ENDBRANCH   1  25
TORSDOF 5
ENDMDL
MODEL 7
REMARK VINA RESULT:      -8.3      8.057     11.784
REMARK  Name = 
REMARK  7 active torsions:
REMARK  status: ('A' for Active; 'I' for Inactive)
REMARK    1  A    between atoms: C_1  and  N_2
REMARK    2  A    between atoms: C_5  and  O_6
REMARK    3  A    between atoms: O_6  and  C_7
REMARK    4  A    between atoms: C_10  and  N_11
REMARK    5  A    between atoms: C_12  and  C_14
REMARK    6  A    between atoms: C_21  and  C_22
REMARK    7  A    between atoms: N_25  and  C_26
REMARK                            x       y       z     vdW  Elec       q    Type
REMARK                         _______ _______ _______ _____ _____    ______ ____
ROOT
ATOM      1  N   UNL     1      -0.241  10.650  21.210  0.00  0.00    +0.000 N 
ATOM      2  C   UNL     1       0.108  11.956  21.528  0.00  0.00    +0.000 C 
ATOM      3  O   UNL     1       1.155  12.504  21.192  0.00  0.00    +0.000 OA
ATOM      4  H   UNL     1      -1.184  10.383  21.482  0.00  0.00    +0.000 HD
ENDROOT
BRANCH   2   5
ATOM      5  C   UNL     1      -0.917  12.686  22.291  0.00  0.00    +0.000 A 
ATOM      6  N   UNL     1      -0.680  13.205  23.515  0.00  0.00    +0.000 NA
ATOM      7  N   UNL     1      -1.851  13.784  23.850  0.00  0.00    +0.000 N 
ATOM      8  C   UNL     1      -2.843  13.638  22.918  0.00  0.00    +0.000 A 
ATOM      9  C   UNL     1      -4.177  14.055  22.897  0.00  0.00    +0.000 A 
ATOM     10  C   UNL     1      -4.933  13.728  21.765  0.00  0.00    +0.000 A 
ATOM     11  F   UNL     1      -6.219  14.114  21.752  0.00  0.00    +0.000 F 
ATOM     12  C   UNL     1      -4.398  13.013  20.685  0.00  0.00    +0.000 A 
ATOM     13  C   UNL     1      -3.048  12.619  20.741  0.00  0.00    +0.000 A 
ATOM     14  C   UNL     1      -2.263  12.930  21.875  0.00  0.00    +0.000 A 
ATOM     15  H   UNL     1      -1.916  14.263  24.743  0.00  0.00    +0.000 HD
BRANCH  12  16
ATOM     16  C   UNL     1      -5.214  12.683  19.526  0.00  0.00    +0.000 A 
ATOM     17  C   UNL     1      -5.426  11.453  18.857  0.00  0.00    +0.000 A 
ATOM     18  N   UNL     1      -6.254  11.566  17.814  0.00  0.00    +0.000 NA
ATOM     19  N   UNL     1      -6.567  12.872  17.801  0.00  0.00    +0.000 N 
ATOM     20  C   UNL     1      -7.446  13.400  16.785  0.00  0.00    +0.000 C 
ATOM     21  C   UNL     1      -5.972  13.584  18.803  0.00  0.00    +0.000 A 
ENDBRANCH  12  16
ENDBRANCH   2   5
BRANCH   1  25
ATOM     22  C   UNL     1       2.149   7.980  19.059  0.00  0.00    +0.000 A 
ATOM     23  N   UNL     1       1.900   7.703  20.355  0.00  0.00    +0.000 NA
ATOM     24  C   UNL     1       1.123   8.588  21.032  0.00  0.00    +0.000 A 
ATOM     25  C   UNL     1       0.559   9.741  20.481  0.00  0.00    +0.000 A 
ATOM     26  C   UNL     1       0.817   9.982  19.132  0.00  0.00    +0.000 A 
ATOM     27  C   UNL     1       1.639   9.104  18.420  0.00  0.00    +0.000 A 
ATOM     28  F   UNL     1       1.910   9.353  17.131  0.00  0.00    +0.000 F 
BRANCH  22  29
ATOM     29  O   UNL     1       2.996   7.144  18.361  0.00  0.00    +0.000 OA
BRANCH  29  34
ATOM     30  C   UNL     1       3.419   1.524  18.651  0.00  0.00    +0.000 C 
ATOM     31  N   UNL     1       3.454   2.946  18.301  0.00  0.00    +0.000 NA
ATOM     32  C   UNL     1       2.095   3.500  18.262  0.00  0.00    +0.000 C 
ATOM     33  C   UNL     1       2.111   4.978  17.878  0.00  0.00    +0.000 C 
ATOM     34  C   UNL     1       2.987   5.788  18.838  0.00  0.00    +0.000 C 
ATOM     35  C   UNL     1       4.388   5.167  18.865  0.00  0.00    +0.000 C 
ATOM     36  C   UNL     1       4.310   3.687  19.238  0.00  0.00    +0.000 C 
ENDBRANCH  29  34
ENDBRANCH  22  29
ENDBRANCH   1  25
TORSDOF 5
ENDMDL
MODEL 8
REMARK VINA RESULT:      -8.1      1.215      1.358
REMARK  Name = 
REMARK  7 active torsions:
REMARK  status: ('A' for Active; 'I' for Inactive)
REMARK    1  A    between atoms: C_1  and  N_2
REMARK    2  A    between atoms: C_5  and  O_6
REMARK    3  A    between atoms: O_6  and  C_7
REMARK    4  A    between atoms: C_10  and  N_11
REMARK    5  A    between atoms: C_12  and  C_14
REMARK    6  A    between atoms: C_21  and  C_22
REMARK    7  A    between atoms: N_25  and  C_26
REMARK                            x       y       z     vdW  Elec       q    Type
REMARK                         _______ _______ _______ _____ _____    ______ ____
ROOT
ATOM      1  N   UNL     1       8.216   8.787  17.688  0.00  0.00    +0.000 N 
ATOM      2  C   UNL     1       8.030   7.470  18.085  0.00  0.00    +0.000 C 
ATOM      3  O   UNL     1       8.373   7.010  19.172  0.00  0.00    +0.000 OA
ATOM      4  H   UNL     1       7.788   9.028  16.797  0.00  0.00    +0.000 HD
ENDROOT
BRANCH   2   5
ATOM      5  C   UNL     1       7.333   6.632  17.095  0.00  0.00    +0.000 A 
ATOM      6  N   UNL     1       7.755   6.513  15.818  0.00  0.00    +0.000 NA
ATOM      7  N   UNL     1       6.860   5.670  15.263  0.00  0.00    +0.000 N 
ATOM      8  C   UNL     1       5.863   5.263  16.109  0.00  0.00    +0.000 A 
ATOM      9  C   UNL     1       4.755   4.432  15.919  0.00  0.00    +0.000 A 
ATOM     10  C   UNL     1       3.914   4.225  17.019  0.00  0.00    +0.000 A 
ATOM     11  F   UNL     1       2.839   3.441  16.832  0.00  0.00    +0.000 F 
ATOM     12  C   UNL     1       4.152   4.814  18.268  0.00  0.00    +0.000 A 
ATOM     13  C   UNL     1       5.284   5.636  18.420  0.00  0.00    +0.000 A 
ATOM     14  C   UNL     1       6.147   5.868  17.325  0.00  0.00    +0.000 A 
ATOM     15  H   UNL     1       6.979   5.411  14.289  0.00  0.00    +0.000 HD
BRANCH  12  16
ATOM     16  C   UNL     1       3.253   4.583  19.390  0.00  0.00    +0.000 A 
ATOM     17  C   UNL     1       2.409   5.468  20.103  0.00  0.00    +0.000 A 
ATOM     18  N   UNL     1       1.736   4.863  21.087  0.00  0.00    +0.000 NA
ATOM     19  N   UNL     1       2.155   3.589  21.017  0.00  0.00    +0.000 N 
ATOM     20  C   UNL     1       1.657   2.607  21.950  0.00  0.00    +0.000 C 
ATOM     21  C   UNL     1       3.062   3.369  20.020  0.00  0.00    +0.000 A 
ENDBRANCH  12  16
ENDBRANCH   2   5
BRANCH   1  25
ATOM     22  C   UNL     1      10.062  11.782  19.945  0.00  0.00    +0.000 A 
ATOM     23  N   UNL     1       9.407  10.804  20.605  0.00  0.00    +0.000 NA
ATOM     24  C   UNL     1       8.815   9.845  19.848  0.00  0.00    +0.000 A 
ATOM     25  C   UNL     1       8.848   9.793  18.452  0.00  0.00    +0.000 A 
ATOM     26  C   UNL     1       9.555  10.807  17.805  0.00  0.00    +0.000 A 
ATOM     27  C   UNL     1      10.148  11.823  18.559  0.00  0.00    +0.000 A 
ATOM     28  F   UNL     1      10.803  12.812  17.933  0.00  0.00    +0.000 F 
BRANCH  22  29
ATOM     29  O   UNL     1      10.611  12.813  20.677  0.00  0.00    +0.000 OA
BRANCH  29  34
ATOM     30  C   UNL     1       7.399  17.388  19.901  0.00  0.00    +0.000 C 
ATOM     31  N   UNL     1       8.252  16.203  19.791  0.00  0.00    +0.000 NA
ATOM     32  C   UNL     1       9.504  16.399  20.532  0.00  0.00    +0.000 C 
ATOM     33  C   UNL     1      10.415  15.180  20.410  0.00  0.00    +0.000 C 
ATOM     34  C   UNL     1       9.707  13.911  20.892  0.00  0.00    +0.000 C 
ATOM     35  C   UNL     1       8.398  13.753  20.110  0.00  0.00    +0.000 C 
ATOM     36  C   UNL     1       7.535  15.006  20.253  0.00  0.00    +0.000 C 
ENDBRANCH  29  34
ENDBRANCH  22  29
ENDBRANCH   1  25
TORSDOF 5
ENDMDL
MODEL 9
REMARK VINA RESULT:      -8.1      6.439     10.625
REMARK  Name = 
REMARK  7 active torsions:
REMARK  status: ('A' for Active; 'I' for Inactive)
REMARK    1  A    between atoms: C_1  and  N_2
REMARK    2  A    between atoms: C_5  and  O_6
REMARK    3  A    between atoms: O_6  and  C_7
REMARK    4  A    between atoms: C_10  and  N_11
REMARK    5  A    between atoms: C_12  and  C_14
REMARK    6  A    between atoms: C_21  and  C_22
REMARK    7  A    between atoms: N_25  and  C_26
REMARK                            x       y       z     vdW  Elec       q    Type
REMARK                         _______ _______ _______ _____ _____    ______ ____
ROOT
ATOM      1  N   UNL     1       0.461   9.100  20.662  0.00  0.00    +0.000 N 
ATOM      2  C   UNL     1       0.761   9.955  21.713  0.00  0.00    +0.000 C 
ATOM      3  O   UNL     1       1.805   9.930  22.362  0.00  0.00    +0.000 OA
ATOM      4  H   UNL     1      -0.402   9.318  20.169  0.00  0.00    +0.000 HD
ENDROOT
BRANCH   2   5
ATOM      5  C   UNL     1      -0.277  10.963  21.989  0.00  0.00    +0.000 A 
ATOM      6  N   UNL     1      -0.378  11.595  23.177  0.00  0.00    +0.000 NA
ATOM      7  N   UNL     1      -1.431  12.422  23.011  0.00  0.00    +0.000 N 
ATOM      8  C   UNL     1      -2.035  12.332  21.786  0.00  0.00    +0.000 A 
ATOM      9  C   UNL     1      -3.145  12.982  21.239  0.00  0.00    +0.000 A 
ATOM     10  C   UNL     1      -3.504  12.644  19.929  0.00  0.00    +0.000 A 
ATOM     11  F   UNL     1      -4.581  13.256  19.410  0.00  0.00    +0.000 F 
ATOM     12  C   UNL     1      -2.796  11.699  19.176  0.00  0.00    +0.000 A 
ATOM     13  C   UNL     1      -1.678  11.073  19.759  0.00  0.00    +0.000 A 
ATOM     14  C   UNL     1      -1.297  11.390  21.083  0.00  0.00    +0.000 A 
ATOM     15  H   UNL     1      -1.698  13.025  23.783  0.00  0.00    +0.000 HD
BRANCH  12  16
ATOM     16  C   UNL     1      -3.201  11.366  17.818  0.00  0.00    +0.000 A 
ATOM     17  C   UNL     1      -4.432  11.551  17.142  0.00  0.00    +0.000 A 
ATOM     18  N   UNL     1      -4.406  11.098  15.884  0.00  0.00    +0.000 NA
ATOM     19  N   UNL     1      -3.162  10.609  15.752  0.00  0.00    +0.000 N 
ATOM     20  C   UNL     1      -2.747  10.002  14.510  0.00  0.00    +0.000 C 
ATOM     21  C   UNL     1      -2.401  10.744  16.879  0.00  0.00    +0.000 A 
ENDBRANCH  12  16
ENDBRANCH   2   5
BRANCH   1  25
ATOM     22  C   UNL     1       2.882   5.995  19.259  0.00  0.00    +0.000 A 
ATOM     23  N   UNL     1       2.834   7.135  18.540  0.00  0.00    +0.000 NA
ATOM     24  C   UNL     1       2.038   8.127  19.016  0.00  0.00    +0.000 A 
ATOM     25  C   UNL     1       1.288   8.055  20.192  0.00  0.00    +0.000 A 
ATOM     26  C   UNL     1       1.381   6.871  20.923  0.00  0.00    +0.000 A 
ATOM     27  C   UNL     1       2.169   5.822  20.440  0.00  0.00    +0.000 A 
ATOM     28  F   UNL     1       2.234   4.675  21.129  0.00  0.00    +0.000 F 
BRANCH  22  29
ATOM     29  O   UNL     1       3.619   4.939  18.767  0.00  0.00    +0.000 OA
BRANCH  29  34
ATOM     30  C   UNL     1       7.317   4.955  14.504  0.00  0.00    +0.000 C 
ATOM     31  N   UNL     1       6.514   4.696  15.700  0.00  0.00    +0.000 NA
ATOM     32  C   UNL     1       6.554   5.849  16.608  0.00  0.00    +0.000 C 
ATOM     33  C   UNL     1       5.738   5.587  17.872  0.00  0.00    +0.000 C 
ATOM     34  C   UNL     1       4.289   5.233  17.528  0.00  0.00    +0.000 C 
ATOM     35  C   UNL     1       4.290   4.040  16.566  0.00  0.00    +0.000 C 
ATOM     36  C   UNL     1       5.134   4.351  15.330  0.00  0.00    +0.000 C 
ENDBRANCH  29  34
ENDBRANCH  22  29
ENDBRANCH   1  25
TORSDOF 5
ENDMDL
