MODEL 1
REMARK VINA RESULT:      -8.1      0.000      0.000
REMARK  Name = 
REMARK  7 active torsions:
REMARK  status: ('A' for Active; 'I' for Inactive)
REMARK    1  A    between atoms: C_1  and  O_2
REMARK    2  A    between atoms: O_2  and  C_3
REMARK    3  A    between atoms: C_3  and  C_5
REMARK    4  A    between atoms: C_5  and  S_6
REMARK    5  A    between atoms: S_6  and  C_7
REMARK    6  A    between atoms: N_16  and  C_17
REMARK    7  A    between atoms: N_25  and  C_26
REMARK                            x       y       z     vdW  Elec       q    Type
REMARK                         _______ _______ _______ _____ _____    ______ ____
ROOT
ATOM      1  C   UNL     1       3.466   6.203  18.036  0.00  0.00    +0.000 A 
ATOM      2  N   UNL     1       3.248   7.364  17.503  0.00  0.00    +0.000 NA
ATOM      3  C   UNL     1       2.515   8.217  18.225  0.00  0.00    +0.000 A 
ATOM      4  S   UNL     1       2.268   9.815  17.704  0.00  0.00    +0.000 S 
ATOM      5  C   UNL     1       1.342  10.159  19.082  0.00  0.00    +0.000 A 
ATOM      6  C   UNL     1       1.241   9.084  19.947  0.00  0.00    +0.000 A 
ATOM      7  C   UNL     1       1.924   7.946  19.427  0.00  0.00    +0.000 A 
ATOM      8  C   UNL     1       2.062   6.619  19.970  0.00  0.00    +0.000 A 
ATOM      9  O   UNL     1       1.458   6.323  21.002  0.00  0.00    +0.000 OA
ATOM     10  N   UNL     1       2.913   5.737  19.251  0.00  0.00    +0.000 N 
ATOM     11  C   UNL     1       0.436   9.180  21.209  0.00  0.00    +0.000 C 
ATOM     12  C   UNL     1      -0.025  10.636  21.459  0.00  0.00    +0.000 C 
ATOM     13  N   UNL     1      -0.441  11.385  20.246  0.00  0.00    +0.000 NA
ATOM     14  C   UNL     1      -1.597  10.759  19.596  0.00  0.00    +0.000 C 
ATOM     15  C   UNL     1       0.698  11.490  19.304  0.00  0.00    +0.000 C 
ENDROOT
BRANCH  10  16
ATOM     16  C   UNL     1       3.128   4.443  19.985  0.00  0.00    +0.000 C 
ATOM     17  C   UNL     1       2.019   3.914  20.897  0.00  0.00    +0.000 C 
ATOM     18  C   UNL     1       0.987   3.051  20.206  0.00  0.00    +0.000 C 
ATOM     19  C   UNL     1       1.565   2.055  19.192  0.00  0.00    +0.000 C 
ATOM     20  C   UNL     1       2.799   2.483  18.385  0.00  0.00    +0.000 C 
ATOM     21  C   UNL     1       3.782   3.324  19.168  0.00  0.00    +0.000 C 
ENDBRANCH  10  16
BRANCH   1  22
ATOM     22  S   UNL     1       4.506   5.242  17.011  0.00  0.00    +0.000 S 
BRANCH  22  23
ATOM     23  C   UNL     1       6.144   6.005  17.284  0.00  0.00    +0.000 C 
BRANCH  23  24
ATOM     24  C   UNL     1       7.248   4.971  17.328  0.00  0.00    +0.000 C 
ATOM     25  O   UNL     1       7.866   4.538  16.354  0.00  0.00    +0.000 OA
BRANCH  24  27
ATOM     26  C   UNL     1       7.810   5.704  19.467  0.00  0.00    +0.000 C 
ATOM     27  O   UNL     1       7.503   4.596  18.615  0.00  0.00    +0.000 OA
ENDBRANCH  24  27
ENDBRANCH  23  24
ENDBRANCH  22  23
ENDBRANCH   1  22
TORSDOF 5
ENDMDL
MODEL 2
REMARK VINA RESULT:      -8.0      0.735      1.266
REMARK  Name = 
REMARK  7 active torsions:
REMARK  status: ('A' for Active; 'I' for Inactive)
REMARK    1  A    between atoms: C_1  and  O_2
REMARK    2  A    between atoms: O_2  and  C_3
REMARK    3  A    between atoms: C_3  and  C_5
REMARK    4  A    between atoms: C_5  and  S_6
REMARK    5  A    between atoms: S_6  and  C_7
REMARK    6  A    between atoms: N_16  and  C_17
REMARK    7  A    between atoms: N_25  and  C_26
REMARK                            x       y       z     vdW  Elec       q    Type
REMARK                         _______ _______ _______ _____ _____    ______ ____
ROOT
ATOM      1  C   UNL     1       3.459   6.080  18.218  0.00  0.00    +0.000 A 
ATOM      2  N   UNL     1       3.287   7.217  17.620  0.00  0.00    +0.000 NA
ATOM      3  C   UNL     1       2.541   8.118  18.266  0.00  0.00    +0.000 A 
ATOM      4  S   UNL     1       2.348   9.692  17.657  0.00  0.00    +0.000 S 
ATOM      5  C   UNL     1       1.371  10.121  18.975  0.00  0.00    +0.000 A 
ATOM      6  C   UNL     1       1.211   9.092  19.885  0.00  0.00    +0.000 A 
ATOM      7  C   UNL     1       1.893   7.918  19.453  0.00  0.00    +0.000 A 
ATOM      8  C   UNL     1       1.981   6.617  20.066  0.00  0.00    +0.000 A 
ATOM      9  O   UNL     1       1.327   6.383  21.084  0.00  0.00    +0.000 OA
ATOM     10  N   UNL     1       2.844   5.685  19.429  0.00  0.00    +0.000 N 
ATOM     11  C   UNL     1       0.354   9.265  21.104  0.00  0.00    +0.000 C 
ATOM     12  C   UNL     1      -0.088  10.740  21.262  0.00  0.00    +0.000 C 
ATOM     13  N   UNL     1      -0.436  11.435  19.998  0.00  0.00    +0.000 NA
ATOM     14  C   UNL     1      -1.575  10.798  19.328  0.00  0.00    +0.000 C 
ATOM     15  C   UNL     1       0.745  11.473  19.103  0.00  0.00    +0.000 C 
ENDROOT
BRANCH  10  16
ATOM     16  C   UNL     1       3.001   4.425  20.234  0.00  0.00    +0.000 C 
ATOM     17  C   UNL     1       1.807   3.905  21.038  0.00  0.00    +0.000 C 
ATOM     18  C   UNL     1       0.876   2.991  20.272  0.00  0.00    +0.000 C 
ATOM     19  C   UNL     1       1.585   1.971  19.370  0.00  0.00    +0.000 C 
ATOM     20  C   UNL     1       2.892   2.398  18.689  0.00  0.00    +0.000 C 
ATOM     21  C   UNL     1       3.765   3.292  19.542  0.00  0.00    +0.000 C 
ENDBRANCH  10  16
BRANCH   1  22
ATOM     22  S   UNL     1       4.522   5.051  17.288  0.00  0.00    +0.000 S 
BRANCH  22  23
ATOM     23  C   UNL     1       5.938   6.154  16.946  0.00  0.00    +0.000 C 
BRANCH  23  24
ATOM     24  C   UNL     1       7.180   5.376  16.565  0.00  0.00    +0.000 C 
ATOM     25  O   UNL     1       7.789   4.592  17.294  0.00  0.00    +0.000 OA
BRANCH  24  27
ATOM     26  C   UNL     1       6.794   4.843  14.330  0.00  0.00    +0.000 C 
ATOM     27  O   UNL     1       7.528   5.633  15.271  0.00  0.00    +0.000 OA
ENDBRANCH  24  27
ENDBRANCH  23  24
ENDBRANCH  22  23
ENDBRANCH   1  22
TORSDOF 5
ENDMDL
MODEL 3
REMARK VINA RESULT:      -7.6      2.229      4.222
REMARK  Name = 
REMARK  7 active torsions:
REMARK  status: ('A' for Active; 'I' for Inactive)
REMARK    1  A    between atoms: C_1  and  O_2
REMARK    2  A    between atoms: O_2  and  C_3
REMARK    3  A    between atoms: C_3  and  C_5
REMARK    4  A    between atoms: C_5  and  S_6
REMARK    5  A    between atoms: S_6  and  C_7
REMARK    6  A    between atoms: N_16  and  C_17
REMARK    7  A    between atoms: N_25  and  C_26
REMARK                            x       y       z     vdW  Elec       q    Type
REMARK                         _______ _______ _______ _____ _____    ______ ____
ROOT
ATOM      1  C   UNL     1       3.767   5.693  19.079  0.00  0.00    +0.000 A 
ATOM      2  N   UNL     1       3.013   5.972  20.095  0.00  0.00    +0.000 NA
ATOM      3  C   UNL     1       2.256   7.068  19.987  0.00  0.00    +0.000 A 
ATOM      4  S   UNL     1       1.126   7.472  21.188  0.00  0.00    +0.000 S 
ATOM      5  C   UNL     1       0.645   8.849  20.324  0.00  0.00    +0.000 A 
ATOM      6  C   UNL     1       1.314   8.991  19.121  0.00  0.00    +0.000 A 
ATOM      7  C   UNL     1       2.264   7.946  18.939  0.00  0.00    +0.000 A 
ATOM      8  C   UNL     1       3.186   7.708  17.859  0.00  0.00    +0.000 A 
ATOM      9  O   UNL     1       3.282   8.537  16.952  0.00  0.00    +0.000 OA
ATOM     10  N   UNL     1       3.929   6.498  17.928  0.00  0.00    +0.000 N 
ATOM     11  C   UNL     1       1.052  10.166  18.226  0.00  0.00    +0.000 C 
ATOM     12  C   UNL     1      -0.156  10.989  18.735  0.00  0.00    +0.000 C 
ATOM     13  N   UNL     1      -0.244  11.137  20.210  0.00  0.00    +0.000 NA
ATOM     14  C   UNL     1       0.918  11.851  20.750  0.00  0.00    +0.000 C 
ATOM     15  C   UNL     1      -0.382   9.804  20.842  0.00  0.00    +0.000 C 
ENDROOT
BRANCH  10  16
ATOM     16  C   UNL     1       4.729   6.259  16.678  0.00  0.00    +0.000 C 
ATOM     17  C   UNL     1       6.143   6.837  16.581  0.00  0.00    +0.000 C 
ATOM     18  C   UNL     1       7.232   5.948  17.138  0.00  0.00    +0.000 C 
ATOM     19  C   UNL     1       7.081   4.461  16.790  0.00  0.00    +0.000 C 
ATOM     20  C   UNL     1       5.662   3.884  16.697  0.00  0.00    +0.000 C 
ATOM     21  C   UNL     1       4.649   4.840  16.106  0.00  0.00    +0.000 C 
ENDBRANCH  10  16
BRANCH   1  22
ATOM     22  S   UNL     1       4.623   4.192  19.342  0.00  0.00    +0.000 S 
BRANCH  22  23
ATOM     23  C   UNL     1       3.299   3.082  19.937  0.00  0.00    +0.000 C 
BRANCH  23  24
ATOM     24  C   UNL     1       2.842   2.121  18.860  0.00  0.00    +0.000 C 
ATOM     25  O   UNL     1       3.574   1.395  18.187  0.00  0.00    +0.000 OA
BRANCH  24  27
ATOM     26  C   UNL     1       0.858   3.025  19.684  0.00  0.00    +0.000 C 
ATOM     27  O   UNL     1       1.481   2.136  18.752  0.00  0.00    +0.000 OA
ENDBRANCH  24  27
ENDBRANCH  23  24
ENDBRANCH  22  23
ENDBRANCH   1  22
TORSDOF 5
ENDMDL
MODEL 4
REMARK VINA RESULT:      -7.6      2.661      4.447
REMARK  Name = 
REMARK  7 active torsions:
REMARK  status: ('A' for Active; 'I' for Inactive)
REMARK    1  A    between atoms: C_1  and  O_2
REMARK    2  A    between atoms: O_2  and  C_3
REMARK    3  A    between atoms: C_3  and  C_5
REMARK    4  A    between atoms: C_5  and  S_6
REMARK    5  A    between atoms: S_6  and  C_7
REMARK    6  A    between atoms: N_16  and  C_17
REMARK    7  A    between atoms: N_25  and  C_26
REMARK                            x       y       z     vdW  Elec       q    Type
REMARK                         _______ _______ _______ _____ _____    ______ ____
ROOT
ATOM      1  C   UNL     1       2.273   6.634  20.028  0.00  0.00    +0.000 A 
ATOM      2  N   UNL     1       1.615   7.239  20.967  0.00  0.00    +0.000 NA
ATOM      3  C   UNL     1       1.100   8.432  20.653  0.00  0.00    +0.000 A 
ATOM      4  S   UNL     1       0.104   9.268  21.745  0.00  0.00    +0.000 S 
ATOM      5  C   UNL     1      -0.098  10.540  20.643  0.00  0.00    +0.000 A 
ATOM      6  C   UNL     1       0.560  10.325  19.445  0.00  0.00    +0.000 A 
ATOM      7  C   UNL     1       1.268   9.090  19.467  0.00  0.00    +0.000 A 
ATOM      8  C   UNL     1       2.098   8.478  18.461  0.00  0.00    +0.000 A 
ATOM      9  O   UNL     1       2.345   9.096  17.424  0.00  0.00    +0.000 OA
ATOM     10  N   UNL     1       2.575   7.172  18.755  0.00  0.00    +0.000 N 
ATOM     11  C   UNL     1       0.529  11.352  18.351  0.00  0.00    +0.000 C 
ATOM     12  C   UNL     1      -0.471  12.485  18.687  0.00  0.00    +0.000 C 
ATOM     13  N   UNL     1      -0.495  12.906  20.110  0.00  0.00    +0.000 NA
ATOM     14  C   UNL     1       0.801  13.446  20.535  0.00  0.00    +0.000 C 
ATOM     15  C   UNL     1      -0.894  11.764  20.966  0.00  0.00    +0.000 C 
ENDROOT
BRANCH  10  16
ATOM     16  C   UNL     1       3.281   6.554  17.581  0.00  0.00    +0.000 C 
ATOM     17  C   UNL     1       4.745   6.918  17.322  0.00  0.00    +0.000 C 
ATOM     18  C   UNL     1       5.752   6.055  18.051  0.00  0.00    +0.000 C 
ATOM     19  C   UNL     1       5.415   4.558  18.066  0.00  0.00    +0.000 C 
ATOM     20  C   UNL     1       3.936   4.152  18.139  0.00  0.00    +0.000 C 
ATOM     21  C   UNL     1       3.012   5.063  17.360  0.00  0.00    +0.000 C 
ENDBRANCH  10  16
BRANCH   1  22
ATOM     22  S   UNL     1       2.804   5.059  20.567  0.00  0.00    +0.000 S 
BRANCH  22  23
ATOM     23  C   UNL     1       1.236   4.124  20.659  0.00  0.00    +0.000 C 
BRANCH  23  24
ATOM     24  C   UNL     1       1.464   2.675  21.035  0.00  0.00    +0.000 C 
ATOM     25  O   UNL     1       1.506   2.228  22.182  0.00  0.00    +0.000 OA
BRANCH  24  27
ATOM     26  C   UNL     1       0.793   2.379  18.823  0.00  0.00    +0.000 C 
ATOM     27  O   UNL     1       1.586   1.904  19.916  0.00  0.00    +0.000 OA
ENDBRANCH  24  27
ENDBRANCH  23  24
ENDBRANCH  22  23
ENDBRANCH   1  22
TORSDOF 5
ENDMDL
MODEL 5
REMARK VINA RESULT:      -7.6      1.009      1.219
REMARK  Name = 
REMARK  7 active torsions:
REMARK  status: ('A' for Active; 'I' for Inactive)
REMARK    1  A    between atoms: C_1  and  O_2
REMARK    2  A    between atoms: O_2  and  C_3
REMARK    3  A    between atoms: C_3  and  C_5
REMARK    4  A    between atoms: C_5  and  S_6
REMARK    5  A    between atoms: S_6  and  C_7
REMARK    6  A    between atoms: N_16  and  C_17
REMARK    7  A    between atoms: N_25  and  C_26
REMARK                            x       y       z     vdW  Elec       q    Type
REMARK                         _______ _______ _______ _____ _____    ______ ____
ROOT
ATOM      1  C   UNL     1       3.119   5.791  18.254  0.00  0.00    +0.000 A 
ATOM      2  N   UNL     1       3.022   6.952  17.685  0.00  0.00    +0.000 NA
ATOM      3  C   UNL     1       2.408   7.907  18.390  0.00  0.00    +0.000 A 
ATOM      4  S   UNL     1       2.333   9.505  17.818  0.00  0.00    +0.000 S 
ATOM      5  C   UNL     1       1.485   9.998  19.200  0.00  0.00    +0.000 A 
ATOM      6  C   UNL     1       1.281   8.970  20.104  0.00  0.00    +0.000 A 
ATOM      7  C   UNL     1       1.818   7.746  19.612  0.00  0.00    +0.000 A 
ATOM      8  C   UNL     1       1.816   6.430  20.199  0.00  0.00    +0.000 A 
ATOM      9  O   UNL     1       1.206   6.239  21.252  0.00  0.00    +0.000 OA
ATOM     10  N   UNL     1       2.543   5.433  19.495  0.00  0.00    +0.000 N 
ATOM     11  C   UNL     1       0.522   9.200  21.377  0.00  0.00    +0.000 C 
ATOM     12  C   UNL     1       0.236  10.707  21.584  0.00  0.00    +0.000 C 
ATOM     13  N   UNL     1      -0.120  11.459  20.354  0.00  0.00    +0.000 NA
ATOM     14  C   UNL     1      -1.354  10.949  19.748  0.00  0.00    +0.000 C 
ATOM     15  C   UNL     1       1.002  11.401  19.387  0.00  0.00    +0.000 C 
ENDROOT
BRANCH  10  16
ATOM     16  C   UNL     1       2.626   4.147  20.270  0.00  0.00    +0.000 C 
ATOM     17  C   UNL     1       1.452   3.168  20.210  0.00  0.00    +0.000 C 
ATOM     18  C   UNL     1       1.506   2.180  19.066  0.00  0.00    +0.000 C 
ATOM     19  C   UNL     1       2.897   1.589  18.801  0.00  0.00    +0.000 C 
ATOM     20  C   UNL     1       4.119   2.491  19.029  0.00  0.00    +0.000 C 
ATOM     21  C   UNL     1       3.977   3.427  20.209  0.00  0.00    +0.000 C 
ENDBRANCH  10  16
BRANCH   1  22
ATOM     22  S   UNL     1       4.018   4.684  17.244  0.00  0.00    +0.000 S 
BRANCH  22  23
ATOM     23  C   UNL     1       5.741   5.246  17.480  0.00  0.00    +0.000 C 
BRANCH  23  24
ATOM     24  C   UNL     1       6.238   6.055  16.300  0.00  0.00    +0.000 C 
ATOM     25  O   UNL     1       5.588   6.325  15.290  0.00  0.00    +0.000 OA
BRANCH  24  27
ATOM     26  C   UNL     1       7.610   7.412  17.605  0.00  0.00    +0.000 C 
ATOM     27  O   UNL     1       7.514   6.486  16.519  0.00  0.00    +0.000 OA
ENDBRANCH  24  27
ENDBRANCH  23  24
ENDBRANCH  22  23
ENDBRANCH   1  22
TORSDOF 5
ENDMDL
MODEL 6
REMARK VINA RESULT:      -7.5      1.171      1.742
REMARK  Name = 
REMARK  7 active torsions:
REMARK  status: ('A' for Active; 'I' for Inactive)
REMARK    1  A    between atoms: C_1  and  O_2
REMARK    2  A    between atoms: O_2  and  C_3
REMARK    3  A    between atoms: C_3  and  C_5
REMARK    4  A    between atoms: C_5  and  S_6
REMARK    5  A    between atoms: S_6  and  C_7
REMARK    6  A    between atoms: N_16  and  C_17
REMARK    7  A    between atoms: N_25  and  C_26
REMARK                            x       y       z     vdW  Elec       q    Type
REMARK                         _______ _______ _______ _____ _____    ______ ____
ROOT
ATOM      1  C   UNL     1       3.156   5.757  18.059  0.00  0.00    +0.000 A 
ATOM      2  N   UNL     1       3.065   6.933  17.523  0.00  0.00    +0.000 NA
ATOM      3  C   UNL     1       2.458   7.872  18.257  0.00  0.00    +0.000 A 
ATOM      4  S   UNL     1       2.391   9.485  17.730  0.00  0.00    +0.000 S 
ATOM      5  C   UNL     1       1.549   9.944  19.128  0.00  0.00    +0.000 A 
ATOM      6  C   UNL     1       1.342   8.893  20.003  0.00  0.00    +0.000 A 
ATOM      7  C   UNL     1       1.870   7.679  19.475  0.00  0.00    +0.000 A 
ATOM      8  C   UNL     1       1.862   6.348  20.025  0.00  0.00    +0.000 A 
ATOM      9  O   UNL     1       1.253   6.131  21.074  0.00  0.00    +0.000 OA
ATOM     10  N   UNL     1       2.581   5.366  19.292  0.00  0.00    +0.000 N 
ATOM     11  C   UNL     1       0.586   9.091  21.284  0.00  0.00    +0.000 C 
ATOM     12  C   UNL     1       0.310  10.593  21.534  0.00  0.00    +0.000 C 
ATOM     13  N   UNL     1      -0.044  11.381  20.327  0.00  0.00    +0.000 NA
ATOM     14  C   UNL     1      -1.283  10.896  19.709  0.00  0.00    +0.000 C 
ATOM     15  C   UNL     1       1.076  11.344  19.356  0.00  0.00    +0.000 C 
ENDROOT
BRANCH  10  16
ATOM     16  C   UNL     1       2.658   4.059  20.030  0.00  0.00    +0.000 C 
ATOM     17  C   UNL     1       1.575   3.006  19.788  0.00  0.00    +0.000 C 
ATOM     18  C   UNL     1       1.845   2.071  18.629  0.00  0.00    +0.000 C 
ATOM     19  C   UNL     1       3.298   1.587  18.527  0.00  0.00    +0.000 C 
ATOM     20  C   UNL     1       4.412   2.559  18.940  0.00  0.00    +0.000 C 
ATOM     21  C   UNL     1       4.055   3.435  20.121  0.00  0.00    +0.000 C 
ENDBRANCH  10  16
BRANCH   1  22
ATOM     22  S   UNL     1       4.046   4.673  17.016  0.00  0.00    +0.000 S 
BRANCH  22  23
ATOM     23  C   UNL     1       5.693   5.463  16.941  0.00  0.00    +0.000 C 
BRANCH  23  24
ATOM     24  C   UNL     1       6.348   5.272  15.589  0.00  0.00    +0.000 C 
ATOM     25  O   UNL     1       7.496   5.609  15.294  0.00  0.00    +0.000 OA
BRANCH  24  27
ATOM     26  C   UNL     1       6.187   3.890  13.720  0.00  0.00    +0.000 C 
ATOM     27  O   UNL     1       5.500   4.634  14.732  0.00  0.00    +0.000 OA
ENDBRANCH  24  27
ENDBRANCH  23  24
ENDBRANCH  22  23
ENDBRANCH   1  22
TORSDOF 5
ENDMDL
MODEL 7
REMARK VINA RESULT:      -7.3      2.529      4.352
REMARK  Name = 
REMARK  7 active torsions:
REMARK  status: ('A' for Active; 'I' for Inactive)
REMARK    1  A    between atoms: C_1  and  O_2
REMARK    2  A    between atoms: O_2  and  C_3
REMARK    3  A    between atoms: C_3  and  C_5
REMARK    4  A    between atoms: C_5  and  S_6
REMARK    5  A    between atoms: S_6  and  C_7
REMARK    6  A    between atoms: N_16  and  C_17
REMARK    7  A    between atoms: N_25  and  C_26
REMARK                            x       y       z     vdW  Elec       q    Type
REMARK                         _______ _______ _______ _____ _____    ______ ____
ROOT
ATOM      1  C   UNL     1       2.212   6.275  20.035  0.00  0.00    +0.000 A 
ATOM      2  N   UNL     1       1.565   6.915  20.958  0.00  0.00    +0.000 NA
ATOM      3  C   UNL     1       1.197   8.166  20.664  0.00  0.00    +0.000 A 
ATOM      4  S   UNL     1       0.229   9.067  21.730  0.00  0.00    +0.000 S 
ATOM      5  C   UNL     1       0.228  10.389  20.669  0.00  0.00    +0.000 A 
ATOM      6  C   UNL     1       0.931  10.146  19.503  0.00  0.00    +0.000 A 
ATOM      7  C   UNL     1       1.504   8.841  19.516  0.00  0.00    +0.000 A 
ATOM      8  C   UNL     1       2.325   8.179  18.535  0.00  0.00    +0.000 A 
ATOM      9  O   UNL     1       2.696   8.801  17.538  0.00  0.00    +0.000 OA
ATOM     10  N   UNL     1       2.644   6.821  18.804  0.00  0.00    +0.000 N 
ATOM     11  C   UNL     1       1.073  11.206  18.451  0.00  0.00    +0.000 C 
ATOM     12  C   UNL     1       0.178  12.427  18.774  0.00  0.00    +0.000 C 
ATOM     13  N   UNL     1       0.113  12.801  20.209  0.00  0.00    +0.000 NA
ATOM     14  C   UNL     1       1.430  13.185  20.727  0.00  0.00    +0.000 C 
ATOM     15  C   UNL     1      -0.454  11.679  20.996  0.00  0.00    +0.000 C 
ENDROOT
BRANCH  10  16
ATOM     16  C   UNL     1       3.352   6.171  17.647  0.00  0.00    +0.000 C 
ATOM     17  C   UNL     1       4.353   6.994  16.835  0.00  0.00    +0.000 C 
ATOM     18  C   UNL     1       5.768   6.983  17.371  0.00  0.00    +0.000 C 
ATOM     19  C   UNL     1       6.253   5.611  17.859  0.00  0.00    +0.000 C 
ATOM     20  C   UNL     1       5.228   4.677  18.518  0.00  0.00    +0.000 C 
ATOM     21  C   UNL     1       3.850   4.744  17.898  0.00  0.00    +0.000 C 
ENDBRANCH  10  16
BRANCH   1  22
ATOM     22  S   UNL     1       2.542   4.636  20.541  0.00  0.00    +0.000 S 
BRANCH  22  23
ATOM     23  C   UNL     1       0.951   3.795  20.219  0.00  0.00    +0.000 C 
BRANCH  23  24
ATOM     24  C   UNL     1       1.123   2.585  19.325  0.00  0.00    +0.000 C 
ATOM     25  O   UNL     1       0.323   2.205  18.469  0.00  0.00    +0.000 OA
BRANCH  24  27
ATOM     26  C   UNL     1       2.968   1.525  18.377  0.00  0.00    +0.000 C 
ATOM     27  O   UNL     1       2.319   1.975  19.570  0.00  0.00    +0.000 OA
ENDBRANCH  24  27
ENDBRANCH  23  24
ENDBRANCH  22  23
ENDBRANCH   1  22
TORSDOF 5
ENDMDL
MODEL 8
REMARK VINA RESULT:      -7.3      2.279      4.123
REMARK  Name = 
REMARK  7 active torsions:
REMARK  status: ('A' for Active; 'I' for Inactive)
REMARK    1  A    between atoms: C_1  and  O_2
REMARK    2  A    between atoms: O_2  and  C_3
REMARK    3  A    between atoms: C_3  and  C_5
REMARK    4  A    between atoms: C_5  and  S_6
REMARK    5  A    between atoms: S_6  and  C_7
REMARK    6  A    between atoms: N_16  and  C_17
REMARK    7  A    between atoms: N_25  and  C_26
REMARK                            x       y       z     vdW  Elec       q    Type
REMARK                         _______ _______ _______ _____ _____    ______ ____
ROOT
ATOM      1  C   UNL     1       3.441   5.897  19.239  0.00  0.00    +0.000 A 
ATOM      2  N   UNL     1       2.684   6.237  20.234  0.00  0.00    +0.000 NA
ATOM      3  C   UNL     1       2.000   7.377  20.093  0.00  0.00    +0.000 A 
ATOM      4  S   UNL     1       0.871   7.869  21.263  0.00  0.00    +0.000 S 
ATOM      5  C   UNL     1       0.498   9.261  20.369  0.00  0.00    +0.000 A 
ATOM      6  C   UNL     1       1.201   9.343  19.180  0.00  0.00    +0.000 A 
ATOM      7  C   UNL     1       2.087   8.237  19.035  0.00  0.00    +0.000 A 
ATOM      8  C   UNL     1       3.017   7.926  17.979  0.00  0.00    +0.000 A 
ATOM      9  O   UNL     1       3.184   8.734  17.064  0.00  0.00    +0.000 OA
ATOM     10  N   UNL     1       3.680   6.674  18.081  0.00  0.00    +0.000 N 
ATOM     11  C   UNL     1       1.033  10.519  18.264  0.00  0.00    +0.000 C 
ATOM     12  C   UNL     1      -0.132  11.423  18.734  0.00  0.00    +0.000 C 
ATOM     13  N   UNL     1      -0.243  11.598  20.204  0.00  0.00    +0.000 NA
ATOM     14  C   UNL     1       0.950  12.245  20.762  0.00  0.00    +0.000 C 
ATOM     15  C   UNL     1      -0.479  10.285  20.851  0.00  0.00    +0.000 C 
ENDROOT
BRANCH  10  16
ATOM     16  C   UNL     1       4.491   6.366  16.853  0.00  0.00    +0.000 C 
ATOM     17  C   UNL     1       5.887   6.978  16.715  0.00  0.00    +0.000 C 
ATOM     18  C   UNL     1       7.000   6.166  17.339  0.00  0.00    +0.000 C 
ATOM     19  C   UNL     1       6.895   4.654  17.102  0.00  0.00    +0.000 C 
ATOM     20  C   UNL     1       5.494   4.029  17.050  0.00  0.00    +0.000 C 
ATOM     21  C   UNL     1       4.455   4.907  16.389  0.00  0.00    +0.000 C 
ENDBRANCH  10  16
BRANCH   1  22
ATOM     22  S   UNL     1       4.195   4.349  19.542  0.00  0.00    +0.000 S 
BRANCH  22  23
ATOM     23  C   UNL     1       2.759   3.223  19.636  0.00  0.00    +0.000 C 
BRANCH  23  24
ATOM     24  C   UNL     1       2.102   3.032  18.286  0.00  0.00    +0.000 C 
ATOM     25  O   UNL     1       1.227   3.752  17.804  0.00  0.00    +0.000 OA
BRANCH  24  27
ATOM     26  C   UNL     1       3.571   1.230  18.447  0.00  0.00    +0.000 C 
ATOM     27  O   UNL     1       2.638   1.956  17.640  0.00  0.00    +0.000 OA
ENDBRANCH  24  27
ENDBRANCH  23  24
ENDBRANCH  22  23
ENDBRANCH   1  22
TORSDOF 5
ENDMDL
