MODEL 1
REMARK VINA RESULT:      -6.4      0.000      0.000
REMARK  Name = 
REMARK  9 active torsions:
REMARK  status: ('A' for Active; 'I' for Inactive)
REMARK    1  A    between atoms: C_1  and  C_2
REMARK    2  A    between atoms: C_2  and  C_3
REMARK    3  A    between atoms: C_2  and  N_7
REMARK    4  A    between atoms: N_5  and  O_6
REMARK    5  A    between atoms: N_7  and  C_8
REMARK    6  A    between atoms: N_7  and  S_18
REMARK    7  A    between atoms: C_8  and  C_9
REMARK    8  A    between atoms: C_14  and  N_15
REMARK    9  A    between atoms: S_18  and  C_21
REMARK                            x       y       z     vdW  Elec       q    Type
REMARK                         _______ _______ _______ _____ _____    ______ ____
ROOT
ATOM      1  N   UNL     1       3.601   4.403  17.702  0.00  0.00    +0.000 NA
ENDROOT
BRANCH   1   2
ATOM      2  S   UNL     1       2.110   3.540  17.759  0.00  0.00    +0.000 S 
ATOM      3  O   UNL     1       1.111   4.444  17.218  0.00  0.00    +0.000 OA
ATOM      4  O   UNL     1       2.377   2.323  17.007  0.00  0.00    +0.000 OA
BRANCH   2   5
ATOM      5  C   UNL     1       1.686   3.048  19.550  0.00  0.00    +0.000 C 
ATOM      6 CL   UNL     1       3.141   2.514  20.406  0.00  0.00    +0.000 Cl
ATOM      7 CL   UNL     1       0.871   4.407  20.356  0.00  0.00    +0.000 Cl
ATOM      8 CL   UNL     1       0.516   1.683  19.477  0.00  0.00    +0.000 Cl
ENDBRANCH   2   5
ENDBRANCH   1   2
BRANCH   1  10
ATOM      9  C   UNL     1       4.761   5.750  19.523  0.00  0.00    +0.000 C 
ATOM     10  C   UNL     1       3.606   5.681  18.521  0.00  0.00    +0.000 C 
BRANCH  10  11
ATOM     11  C   UNL     1       3.535   6.970  17.704  0.00  0.00    +0.000 C 
ATOM     12  O   UNL     1       4.355   7.296  16.845  0.00  0.00    +0.000 OA
ATOM     13  N   UNL     1       2.459   7.781  17.993  0.00  0.00    +0.000 N 
ATOM     14  H   UNL     1       1.968   7.744  18.882  0.00  0.00    +0.000 HD
BRANCH  13  15
ATOM     15  O   UNL     1       2.485   9.045  17.348  0.00  0.00    +0.000 OA
ATOM     16  H   UNL     1       3.447   9.196  17.200  0.00  0.00    +0.000 HD
ENDBRANCH  13  15
ENDBRANCH  10  11
ENDBRANCH   1  10
BRANCH   1  17
ATOM     17  C   UNL     1       4.912   3.670  17.582  0.00  0.00    +0.000 C 
BRANCH  17  18
ATOM     18  C   UNL     1       5.773   3.987  16.370  0.00  0.00    +0.000 A 
ATOM     19  C   UNL     1       5.380   3.440  15.132  0.00  0.00    +0.000 A 
ATOM     20  C   UNL     1       5.897   3.916  13.925  0.00  0.00    +0.000 A 
ATOM     21  C   UNL     1       6.854   4.923  13.926  0.00  0.00    +0.000 A 
ATOM     22  C   UNL     1       7.373   5.374  15.135  0.00  0.00    +0.000 A 
ATOM     23  C   UNL     1       6.872   4.875  16.352  0.00  0.00    +0.000 A 
BRANCH  23  24
ATOM     24  N   UNL     1       7.571   5.293  17.577  0.00  0.00    +0.000 N 
ATOM     25  O   UNL     1       8.091   4.412  18.276  0.00  0.00    +0.000 OA
ATOM     26  O   UNL     1       7.649   6.504  17.825  0.00  0.00    +0.000 OA
ENDBRANCH  23  24
ENDBRANCH  17  18
ENDBRANCH   1  17
TORSDOF 8
ENDMDL
MODEL 2
REMARK VINA RESULT:      -6.4      0.040      1.029
REMARK  Name = 
REMARK  9 active torsions:
REMARK  status: ('A' for Active; 'I' for Inactive)
REMARK    1  A    between atoms: C_1  and  C_2
REMARK    2  A    between atoms: C_2  and  C_3
REMARK    3  A    between atoms: C_2  and  N_7
REMARK    4  A    between atoms: N_5  and  O_6
REMARK    5  A    between atoms: N_7  and  C_8
REMARK    6  A    between atoms: N_7  and  S_18
REMARK    7  A    between atoms: C_8  and  C_9
REMARK    8  A    between atoms: C_14  and  N_15
REMARK    9  A    between atoms: S_18  and  C_21
REMARK                            x       y       z     vdW  Elec       q    Type
REMARK                         _______ _______ _______ _____ _____    ______ ____
ROOT
ATOM      1  N   UNL     1       3.578   4.415  17.702  0.00  0.00    +0.000 NA
ENDROOT
BRANCH   1   2
ATOM      2  S   UNL     1       2.089   3.549  17.743  0.00  0.00    +0.000 S 
ATOM      3  O   UNL     1       1.097   4.446  17.179  0.00  0.00    +0.000 OA
ATOM      4  O   UNL     1       2.370   2.325  17.007  0.00  0.00    +0.000 OA
BRANCH   2   5
ATOM      5  C   UNL     1       1.638   3.072  19.532  0.00  0.00    +0.000 C 
ATOM      6 CL   UNL     1       0.956   4.463  20.389  0.00  0.00    +0.000 Cl
ATOM      7 CL   UNL     1       0.542   1.672  19.509  0.00  0.00    +0.000 Cl
ATOM      8 CL   UNL     1       3.152   2.560  20.358  0.00  0.00    +0.000 Cl
ENDBRANCH   2   5
ENDBRANCH   1   2
BRANCH   1  10
ATOM      9  C   UNL     1       4.717   5.762  19.536  0.00  0.00    +0.000 C 
ATOM     10  C   UNL     1       3.573   5.693  18.523  0.00  0.00    +0.000 C 
BRANCH  10  11
ATOM     11  C   UNL     1       3.509   6.982  17.706  0.00  0.00    +0.000 C 
ATOM     12  O   UNL     1       4.338   7.311  16.857  0.00  0.00    +0.000 OA
ATOM     13  N   UNL     1       2.427   7.790  17.983  0.00  0.00    +0.000 N 
ATOM     14  H   UNL     1       1.926   7.750  18.865  0.00  0.00    +0.000 HD
BRANCH  13  15
ATOM     15  O   UNL     1       2.457   9.055  17.339  0.00  0.00    +0.000 OA
ATOM     16  H   UNL     1       3.282   9.008  16.803  0.00  0.00    +0.000 HD
ENDBRANCH  13  15
ENDBRANCH  10  11
ENDBRANCH   1  10
BRANCH   1  17
ATOM     17  C   UNL     1       4.893   3.684  17.594  0.00  0.00    +0.000 C 
BRANCH  17  18
ATOM     18  C   UNL     1       5.761   3.998  16.387  0.00  0.00    +0.000 A 
ATOM     19  C   UNL     1       5.369   3.455  15.146  0.00  0.00    +0.000 A 
ATOM     20  C   UNL     1       5.894   3.929  13.942  0.00  0.00    +0.000 A 
ATOM     21  C   UNL     1       6.857   4.930  13.947  0.00  0.00    +0.000 A 
ATOM     22  C   UNL     1       7.374   5.377  15.159  0.00  0.00    +0.000 A 
ATOM     23  C   UNL     1       6.864   4.879  16.374  0.00  0.00    +0.000 A 
BRANCH  23  24
ATOM     24  N   UNL     1       7.561   5.292  17.603  0.00  0.00    +0.000 N 
ATOM     25  O   UNL     1       8.085   4.408  18.295  0.00  0.00    +0.000 OA
ATOM     26  O   UNL     1       7.633   6.501  17.859  0.00  0.00    +0.000 OA
ENDBRANCH  23  24
ENDBRANCH  17  18
ENDBRANCH   1  17
TORSDOF 8
ENDMDL
MODEL 3
REMARK VINA RESULT:      -6.2      1.937      2.435
REMARK  Name = 
REMARK  9 active torsions:
REMARK  status: ('A' for Active; 'I' for Inactive)
REMARK    1  A    between atoms: C_1  and  C_2
REMARK    2  A    between atoms: C_2  and  C_3
REMARK    3  A    between atoms: C_2  and  N_7
REMARK    4  A    between atoms: N_5  and  O_6
REMARK    5  A    between atoms: N_7  and  C_8
REMARK    6  A    between atoms: N_7  and  S_18
REMARK    7  A    between atoms: C_8  and  C_9
REMARK    8  A    between atoms: C_14  and  N_15
REMARK    9  A    between atoms: S_18  and  C_21
REMARK                            x       y       z     vdW  Elec       q    Type
REMARK                         _______ _______ _______ _____ _____    ______ ____
ROOT
ATOM      1  N   UNL     1       3.077   5.442  19.240  0.00  0.00    +0.000 NA
ENDROOT
BRANCH   1   2
ATOM      2  S   UNL     1       2.334   4.022  19.874  0.00  0.00    +0.000 S 
ATOM      3  O   UNL     1       3.307   3.443  20.783  0.00  0.00    +0.000 OA
ATOM      4  O   UNL     1       1.089   4.502  20.455  0.00  0.00    +0.000 OA
BRANCH   2   5
ATOM      5  C   UNL     1       1.903   2.806  18.472  0.00  0.00    +0.000 C 
ATOM      6 CL   UNL     1       1.689   3.674  16.944  0.00  0.00    +0.000 Cl
ATOM      7 CL   UNL     1       3.155   1.547  18.380  0.00  0.00    +0.000 Cl
ATOM      8 CL   UNL     1       0.355   1.999  18.908  0.00  0.00    +0.000 Cl
ENDBRANCH   2   5
ENDBRANCH   1   2
BRANCH   1  10
ATOM      9  C   UNL     1       2.187   7.345  20.675  0.00  0.00    +0.000 C 
ATOM     10  C   UNL     1       2.197   6.679  19.298  0.00  0.00    +0.000 C 
BRANCH  10  11
ATOM     11  C   UNL     1       2.469   7.714  18.209  0.00  0.00    +0.000 C 
ATOM     12  O   UNL     1       3.334   7.600  17.339  0.00  0.00    +0.000 OA
ATOM     13  N   UNL     1       1.660   8.829  18.253  0.00  0.00    +0.000 N 
ATOM     14  H   UNL     1       1.191   9.131  19.102  0.00  0.00    +0.000 HD
BRANCH  13  15
ATOM     15  O   UNL     1       2.021   9.855  17.341  0.00  0.00    +0.000 OA
ATOM     16  H   UNL     1       2.291   9.350  16.539  0.00  0.00    +0.000 HD
ENDBRANCH  13  15
ENDBRANCH  10  11
ENDBRANCH   1  10
BRANCH   1  17
ATOM     17  C   UNL     1       4.562   5.660  19.373  0.00  0.00    +0.000 C 
BRANCH  17  18
ATOM     18  C   UNL     1       5.445   5.105  18.267  0.00  0.00    +0.000 A 
ATOM     19  C   UNL     1       4.824   4.326  17.270  0.00  0.00    +0.000 A 
ATOM     20  C   UNL     1       5.463   4.042  16.061  0.00  0.00    +0.000 A 
ATOM     21  C   UNL     1       6.757   4.494  15.833  0.00  0.00    +0.000 A 
ATOM     22  C   UNL     1       7.449   5.133  16.856  0.00  0.00    +0.000 A 
ATOM     23  C   UNL     1       6.815   5.395  18.085  0.00  0.00    +0.000 A 
BRANCH  23  24
ATOM     24  N   UNL     1       7.658   5.941  19.162  0.00  0.00    +0.000 N 
ATOM     25  O   UNL     1       7.703   5.319  20.232  0.00  0.00    +0.000 OA
ATOM     26  O   UNL     1       8.317   6.963  18.930  0.00  0.00    +0.000 OA
ENDBRANCH  23  24
ENDBRANCH  17  18
ENDBRANCH   1  17
TORSDOF 8
ENDMDL
MODEL 4
REMARK VINA RESULT:      -6.2      3.811      5.857
REMARK  Name = 
REMARK  9 active torsions:
REMARK  status: ('A' for Active; 'I' for Inactive)
REMARK    1  A    between atoms: C_1  and  C_2
REMARK    2  A    between atoms: C_2  and  C_3
REMARK    3  A    between atoms: C_2  and  N_7
REMARK    4  A    between atoms: N_5  and  O_6
REMARK    5  A    between atoms: N_7  and  C_8
REMARK    6  A    between atoms: N_7  and  S_18
REMARK    7  A    between atoms: C_8  and  C_9
REMARK    8  A    between atoms: C_14  and  N_15
REMARK    9  A    between atoms: S_18  and  C_21
REMARK                            x       y       z     vdW  Elec       q    Type
REMARK                         _______ _______ _______ _____ _____    ______ ____
ROOT
ATOM      1  N   UNL     1       5.798   5.343  17.093  0.00  0.00    +0.000 NA
ENDROOT
BRANCH   1   2
ATOM      2  S   UNL     1       6.506   4.195  16.020  0.00  0.00    +0.000 S 
ATOM      3  O   UNL     1       7.886   4.055  16.450  0.00  0.00    +0.000 OA
ATOM      4  O   UNL     1       5.653   3.023  16.141  0.00  0.00    +0.000 OA
BRANCH   2   5
ATOM      5  C   UNL     1       6.412   4.812  14.220  0.00  0.00    +0.000 C 
ATOM      6 CL   UNL     1       7.994   5.401  13.684  0.00  0.00    +0.000 Cl
ATOM      7 CL   UNL     1       5.774   3.513  13.186  0.00  0.00    +0.000 Cl
ATOM      8 CL   UNL     1       5.234   6.170  14.170  0.00  0.00    +0.000 Cl
ENDBRANCH   2   5
ENDBRANCH   1   2
BRANCH   1  10
ATOM      9  C   UNL     1       5.873   7.876  17.316  0.00  0.00    +0.000 C 
ATOM     10  C   UNL     1       6.661   6.565  17.349  0.00  0.00    +0.000 C 
BRANCH  10  11
ATOM     11  C   UNL     1       7.522   6.494  18.608  0.00  0.00    +0.000 C 
ATOM     12  O   UNL     1       8.434   7.278  18.875  0.00  0.00    +0.000 OA
ATOM     13  N   UNL     1       7.209   5.462  19.467  0.00  0.00    +0.000 N 
ATOM     14  H   UNL     1       6.730   4.621  19.160  0.00  0.00    +0.000 HD
BRANCH  13  15
ATOM     15  O   UNL     1       8.110   5.305  20.552  0.00  0.00    +0.000 OA
ATOM     16  H   UNL     1       7.886   6.067  21.135  0.00  0.00    +0.000 HD
ENDBRANCH  13  15
ENDBRANCH  10  11
ENDBRANCH   1  10
BRANCH   1  17
ATOM     17  C   UNL     1       4.305   5.548  17.126  0.00  0.00    +0.000 C 
BRANCH  17  18
ATOM     18  C   UNL     1       3.635   5.536  18.490  0.00  0.00    +0.000 A 
ATOM     19  C   UNL     1       3.037   6.734  18.931  0.00  0.00    +0.000 A 
ATOM     20  C   UNL     1       2.135   6.752  19.997  0.00  0.00    +0.000 A 
ATOM     21  C   UNL     1       1.838   5.579  20.679  0.00  0.00    +0.000 A 
ATOM     22  C   UNL     1       2.527   4.412  20.366  0.00  0.00    +0.000 A 
ATOM     23  C   UNL     1       3.457   4.399  19.309  0.00  0.00    +0.000 A 
BRANCH  23  24
ATOM     24  N   UNL     1       4.247   3.169  19.137  0.00  0.00    +0.000 N 
ATOM     25  O   UNL     1       5.395   3.150  19.602  0.00  0.00    +0.000 OA
ATOM     26  O   UNL     1       3.712   2.200  18.582  0.00  0.00    +0.000 OA
ENDBRANCH  23  24
ENDBRANCH  17  18
ENDBRANCH   1  17
TORSDOF 8
ENDMDL
MODEL 5
REMARK VINA RESULT:      -6.1      2.027      2.419
REMARK  Name = 
REMARK  9 active torsions:
REMARK  status: ('A' for Active; 'I' for Inactive)
REMARK    1  A    between atoms: C_1  and  C_2
REMARK    2  A    between atoms: C_2  and  C_3
REMARK    3  A    between atoms: C_2  and  N_7
REMARK    4  A    between atoms: N_5  and  O_6
REMARK    5  A    between atoms: N_7  and  C_8
REMARK    6  A    between atoms: N_7  and  S_18
REMARK    7  A    between atoms: C_8  and  C_9
REMARK    8  A    between atoms: C_14  and  N_15
REMARK    9  A    between atoms: S_18  and  C_21
REMARK                            x       y       z     vdW  Elec       q    Type
REMARK                         _______ _______ _______ _____ _____    ______ ____
ROOT
ATOM      1  N   UNL     1       2.994   5.882  19.006  0.00  0.00    +0.000 NA
ENDROOT
BRANCH   1   2
ATOM      2  S   UNL     1       2.440   4.443  19.776  0.00  0.00    +0.000 S 
ATOM      3  O   UNL     1       3.602   3.883  20.444  0.00  0.00    +0.000 OA
ATOM      4  O   UNL     1       1.344   4.893  20.621  0.00  0.00    +0.000 OA
BRANCH   2   5
ATOM      5  C   UNL     1       1.737   3.222  18.494  0.00  0.00    +0.000 C 
ATOM      6 CL   UNL     1       3.000   2.115  17.937  0.00  0.00    +0.000 Cl
ATOM      7 CL   UNL     1       0.338   2.376  19.193  0.00  0.00    +0.000 Cl
ATOM      8 CL   UNL     1       1.143   4.184  17.095  0.00  0.00    +0.000 Cl
ENDBRANCH   2   5
ENDBRANCH   1   2
BRANCH   1  10
ATOM      9  C   UNL     1       1.964   7.665  20.500  0.00  0.00    +0.000 C 
ATOM     10  C   UNL     1       2.025   7.047  19.102  0.00  0.00    +0.000 C 
BRANCH  10  11
ATOM     11  C   UNL     1       2.220   8.135  18.049  0.00  0.00    +0.000 C 
ATOM     12  O   UNL     1       2.856   7.988  17.004  0.00  0.00    +0.000 OA
ATOM     13  N   UNL     1       1.621   9.342  18.342  0.00  0.00    +0.000 N 
ATOM     14  H   UNL     1       1.392   9.622  19.291  0.00  0.00    +0.000 HD
BRANCH  13  15
ATOM     15  O   UNL     1       1.938  10.391  17.441  0.00  0.00    +0.000 OA
ATOM     16  H   UNL     1       1.584  11.188  17.899  0.00  0.00    +0.000 HD
ENDBRANCH  13  15
ENDBRANCH  10  11
ENDBRANCH   1  10
BRANCH   1  17
ATOM     17  C   UNL     1       4.462   6.222  18.972  0.00  0.00    +0.000 C 
BRANCH  17  18
ATOM     18  C   UNL     1       5.315   5.504  17.940  0.00  0.00    +0.000 A 
ATOM     19  C   UNL     1       4.645   4.832  16.897  0.00  0.00    +0.000 A 
ATOM     20  C   UNL     1       5.315   4.422  15.742  0.00  0.00    +0.000 A 
ATOM     21  C   UNL     1       6.683   4.634  15.617  0.00  0.00    +0.000 A 
ATOM     22  C   UNL     1       7.396   5.155  16.691  0.00  0.00    +0.000 A 
ATOM     23  C   UNL     1       6.725   5.543  17.867  0.00  0.00    +0.000 A 
BRANCH  23  24
ATOM     24  N   UNL     1       7.565   5.947  19.006  0.00  0.00    +0.000 N 
ATOM     25  O   UNL     1       7.553   5.229  20.016  0.00  0.00    +0.000 OA
ATOM     26  O   UNL     1       8.277   6.952  18.883  0.00  0.00    +0.000 OA
ENDBRANCH  23  24
ENDBRANCH  17  18
ENDBRANCH   1  17
TORSDOF 8
ENDMDL
MODEL 6
REMARK VINA RESULT:      -6.1      1.938      2.406
REMARK  Name = 
REMARK  9 active torsions:
REMARK  status: ('A' for Active; 'I' for Inactive)
REMARK    1  A    between atoms: C_1  and  C_2
REMARK    2  A    between atoms: C_2  and  C_3
REMARK    3  A    between atoms: C_2  and  N_7
REMARK    4  A    between atoms: N_5  and  O_6
REMARK    5  A    between atoms: N_7  and  C_8
REMARK    6  A    between atoms: N_7  and  S_18
REMARK    7  A    between atoms: C_8  and  C_9
REMARK    8  A    between atoms: C_14  and  N_15
REMARK    9  A    between atoms: S_18  and  C_21
REMARK                            x       y       z     vdW  Elec       q    Type
REMARK                         _______ _______ _______ _____ _____    ______ ____
ROOT
ATOM      1  N   UNL     1       3.150   5.543  19.121  0.00  0.00    +0.000 NA
ENDROOT
BRANCH   1   2
ATOM      2  S   UNL     1       2.519   4.091  19.803  0.00  0.00    +0.000 S 
ATOM      3  O   UNL     1       3.661   3.394  20.368  0.00  0.00    +0.000 OA
ATOM      4  O   UNL     1       1.499   4.551  20.734  0.00  0.00    +0.000 OA
BRANCH   2   5
ATOM      5  C   UNL     1       1.668   3.035  18.466  0.00  0.00    +0.000 C 
ATOM      6 CL   UNL     1       0.323   2.119  19.165  0.00  0.00    +0.000 Cl
ATOM      7 CL   UNL     1       1.163   4.082  17.121  0.00  0.00    +0.000 Cl
ATOM      8 CL   UNL     1       2.890   1.881  17.824  0.00  0.00    +0.000 Cl
ENDBRANCH   2   5
ENDBRANCH   1   2
BRANCH   1  10
ATOM      9  C   UNL     1       2.238   7.371  20.637  0.00  0.00    +0.000 C 
ATOM     10  C   UNL     1       2.222   6.738  19.244  0.00  0.00    +0.000 C 
BRANCH  10  11
ATOM     11  C   UNL     1       2.407   7.810  18.172  0.00  0.00    +0.000 C 
ATOM     12  O   UNL     1       3.152   7.700  17.197  0.00  0.00    +0.000 OA
ATOM     13  N   UNL     1       1.664   8.956  18.362  0.00  0.00    +0.000 N 
ATOM     14  H   UNL     1       1.318   9.238  19.275  0.00  0.00    +0.000 HD
BRANCH  13  15
ATOM     15  O   UNL     1       1.959  10.006  17.455  0.00  0.00    +0.000 OA
ATOM     16  H   UNL     1       1.204  10.626  17.584  0.00  0.00    +0.000 HD
ENDBRANCH  13  15
ENDBRANCH  10  11
ENDBRANCH   1  10
BRANCH   1  17
ATOM     17  C   UNL     1       4.630   5.828  19.148  0.00  0.00    +0.000 C 
BRANCH  17  18
ATOM     18  C   UNL     1       5.456   5.308  17.983  0.00  0.00    +0.000 A 
ATOM     19  C   UNL     1       4.777   4.602  16.969  0.00  0.00    +0.000 A 
ATOM     20  C   UNL     1       5.365   4.365  15.724  0.00  0.00    +0.000 A 
ATOM     21  C   UNL     1       6.664   4.790  15.474  0.00  0.00    +0.000 A 
ATOM     22  C   UNL     1       7.410   5.352  16.504  0.00  0.00    +0.000 A 
ATOM     23  C   UNL     1       6.828   5.566  17.767  0.00  0.00    +0.000 A 
BRANCH  23  24
ATOM     24  N   UNL     1       7.724   6.028  18.840  0.00  0.00    +0.000 N 
ATOM     25  O   UNL     1       8.240   7.148  18.720  0.00  0.00    +0.000 OA
ATOM     26  O   UNL     1       7.879   5.301  19.830  0.00  0.00    +0.000 OA
ENDBRANCH  23  24
ENDBRANCH  17  18
ENDBRANCH   1  17
TORSDOF 8
ENDMDL
MODEL 7
REMARK VINA RESULT:      -6.1      3.819      5.866
REMARK  Name = 
REMARK  9 active torsions:
REMARK  status: ('A' for Active; 'I' for Inactive)
REMARK    1  A    between atoms: C_1  and  C_2
REMARK    2  A    between atoms: C_2  and  C_3
REMARK    3  A    between atoms: C_2  and  N_7
REMARK    4  A    between atoms: N_5  and  O_6
REMARK    5  A    between atoms: N_7  and  C_8
REMARK    6  A    between atoms: N_7  and  S_18
REMARK    7  A    between atoms: C_8  and  C_9
REMARK    8  A    between atoms: C_14  and  N_15
REMARK    9  A    between atoms: S_18  and  C_21
REMARK                            x       y       z     vdW  Elec       q    Type
REMARK                         _______ _______ _______ _____ _____    ______ ____
ROOT
ATOM      1  N   UNL     1       5.742   5.323  17.136  0.00  0.00    +0.000 NA
ENDROOT
BRANCH   1   2
ATOM      2  S   UNL     1       6.479   4.220  16.035  0.00  0.00    +0.000 S 
ATOM      3  O   UNL     1       7.858   4.093  16.471  0.00  0.00    +0.000 OA
ATOM      4  O   UNL     1       5.647   3.030  16.114  0.00  0.00    +0.000 OA
BRANCH   2   5
ATOM      5  C   UNL     1       6.387   4.888  14.253  0.00  0.00    +0.000 C 
ATOM      6 CL   UNL     1       5.260   6.250  14.160  0.00  0.00    +0.000 Cl
ATOM      7 CL   UNL     1       8.023   5.309  13.697  0.00  0.00    +0.000 Cl
ATOM      8 CL   UNL     1       5.785   3.558  13.203  0.00  0.00    +0.000 Cl
ENDBRANCH   2   5
ENDBRANCH   1   2
BRANCH   1  10
ATOM      9  C   UNL     1       5.729   7.846  17.460  0.00  0.00    +0.000 C 
ATOM     10  C   UNL     1       6.567   6.567  17.410  0.00  0.00    +0.000 C 
BRANCH  10  11
ATOM     11  C   UNL     1       7.476   6.480  18.634  0.00  0.00    +0.000 C 
ATOM     12  O   UNL     1       8.426   7.233  18.853  0.00  0.00    +0.000 OA
ATOM     13  N   UNL     1       7.163   5.469  19.518  0.00  0.00    +0.000 N 
ATOM     14  H   UNL     1       6.642   4.642  19.242  0.00  0.00    +0.000 HD
BRANCH  13  15
ATOM     15  O   UNL     1       8.103   5.293  20.567  0.00  0.00    +0.000 OA
ATOM     16  H   UNL     1       8.065   4.323  20.735  0.00  0.00    +0.000 HD
ENDBRANCH  13  15
ENDBRANCH  10  11
ENDBRANCH   1  10
BRANCH   1  17
ATOM     17  C   UNL     1       4.243   5.479  17.182  0.00  0.00    +0.000 C 
BRANCH  17  18
ATOM     18  C   UNL     1       3.586   5.438  18.552  0.00  0.00    +0.000 A 
ATOM     19  C   UNL     1       2.985   6.625  19.019  0.00  0.00    +0.000 A 
ATOM     20  C   UNL     1       2.092   6.618  20.094  0.00  0.00    +0.000 A 
ATOM     21  C   UNL     1       1.809   5.431  20.757  0.00  0.00    +0.000 A 
ATOM     22  C   UNL     1       2.501   4.274  20.417  0.00  0.00    +0.000 A 
ATOM     23  C   UNL     1       3.422   4.286  19.352  0.00  0.00    +0.000 A 
BRANCH  23  24
ATOM     24  N   UNL     1       4.217   3.064  19.150  0.00  0.00    +0.000 N 
ATOM     25  O   UNL     1       5.339   3.012  19.673  0.00  0.00    +0.000 OA
ATOM     26  O   UNL     1       3.710   2.132  18.513  0.00  0.00    +0.000 OA
ENDBRANCH  23  24
ENDBRANCH  17  18
ENDBRANCH   1  17
TORSDOF 8
ENDMDL
MODEL 8
REMARK VINA RESULT:      -6.0      0.823      1.057
REMARK  Name = 
REMARK  9 active torsions:
REMARK  status: ('A' for Active; 'I' for Inactive)
REMARK    1  A    between atoms: C_1  and  C_2
REMARK    2  A    between atoms: C_2  and  C_3
REMARK    3  A    between atoms: C_2  and  N_7
REMARK    4  A    between atoms: N_5  and  O_6
REMARK    5  A    between atoms: N_7  and  C_8
REMARK    6  A    between atoms: N_7  and  S_18
REMARK    7  A    between atoms: C_8  and  C_9
REMARK    8  A    between atoms: C_14  and  N_15
REMARK    9  A    between atoms: S_18  and  C_21
REMARK                            x       y       z     vdW  Elec       q    Type
REMARK                         _______ _______ _______ _____ _____    ______ ____
ROOT
ATOM      1  N   UNL     1       3.160   5.046  17.957  0.00  0.00    +0.000 NA
ENDROOT
BRANCH   1   2
ATOM      2  S   UNL     1       2.065   3.722  17.822  0.00  0.00    +0.000 S 
ATOM      3  O   UNL     1       0.868   4.263  17.203  0.00  0.00    +0.000 OA
ATOM      4  O   UNL     1       2.807   2.723  17.067  0.00  0.00    +0.000 OA
BRANCH   2   5
ATOM      5  C   UNL     1       1.675   2.995  19.539  0.00  0.00    +0.000 C 
ATOM      6 CL   UNL     1       3.172   2.626  20.410  0.00  0.00    +0.000 Cl
ATOM      7 CL   UNL     1       0.620   4.118  20.427  0.00  0.00    +0.000 Cl
ATOM      8 CL   UNL     1       0.753   1.470  19.289  0.00  0.00    +0.000 Cl
ENDBRANCH   2   5
ENDBRANCH   1   2
BRANCH   1  10
ATOM      9  C   UNL     1       2.904   6.487  20.037  0.00  0.00    +0.000 C 
ATOM     10  C   UNL     1       2.547   6.296  18.562  0.00  0.00    +0.000 C 
BRANCH  10  11
ATOM     11  C   UNL     1       2.807   7.583  17.782  0.00  0.00    +0.000 C 
ATOM     12  O   UNL     1       3.814   7.797  17.106  0.00  0.00    +0.000 OA
ATOM     13  N   UNL     1       1.811   8.531  17.879  0.00  0.00    +0.000 N 
ATOM     14  H   UNL     1       1.156   8.559  18.655  0.00  0.00    +0.000 HD
BRANCH  13  15
ATOM     15  O   UNL     1       2.128   9.780  17.285  0.00  0.00    +0.000 OA
ATOM     16  H   UNL     1       2.606  10.251  18.006  0.00  0.00    +0.000 HD
ENDBRANCH  13  15
ENDBRANCH  10  11
ENDBRANCH   1  10
BRANCH   1  17
ATOM     17  C   UNL     1       4.625   4.810  18.226  0.00  0.00    +0.000 C 
BRANCH  17  18
ATOM     18  C   UNL     1       5.541   4.706  17.018  0.00  0.00    +0.000 A 
ATOM     19  C   UNL     1       5.012   4.125  15.848  0.00  0.00    +0.000 A 
ATOM     20  C   UNL     1       5.643   4.268  14.611  0.00  0.00    +0.000 A 
ATOM     21  C   UNL     1       6.844   4.960  14.516  0.00  0.00    +0.000 A 
ATOM     22  C   UNL     1       7.467   5.411  15.675  0.00  0.00    +0.000 A 
ATOM     23  C   UNL     1       6.845   5.243  16.926  0.00  0.00    +0.000 A 
BRANCH  23  24
ATOM     24  N   UNL     1       7.632   5.615  18.113  0.00  0.00    +0.000 N 
ATOM     25  O   UNL     1       7.827   6.821  18.322  0.00  0.00    +0.000 OA
ATOM     26  O   UNL     1       8.018   4.714  18.868  0.00  0.00    +0.000 OA
ENDBRANCH  23  24
ENDBRANCH  17  18
ENDBRANCH   1  17
TORSDOF 8
ENDMDL
MODEL 9
REMARK VINA RESULT:      -6.0      2.176      4.183
REMARK  Name = 
REMARK  9 active torsions:
REMARK  status: ('A' for Active; 'I' for Inactive)
REMARK    1  A    between atoms: C_1  and  C_2
REMARK    2  A    between atoms: C_2  and  C_3
REMARK    3  A    between atoms: C_2  and  N_7
REMARK    4  A    between atoms: N_5  and  O_6
REMARK    5  A    between atoms: N_7  and  C_8
REMARK    6  A    between atoms: N_7  and  S_18
REMARK    7  A    between atoms: C_8  and  C_9
REMARK    8  A    between atoms: C_14  and  N_15
REMARK    9  A    between atoms: S_18  and  C_21
REMARK                            x       y       z     vdW  Elec       q    Type
REMARK                         _______ _______ _______ _____ _____    ______ ____
ROOT
ATOM      1  N   UNL     1       4.564   3.981  18.351  0.00  0.00    +0.000 NA
ENDROOT
BRANCH   1   2
ATOM      2  S   UNL     1       3.961   2.672  19.297  0.00  0.00    +0.000 S 
ATOM      3  O   UNL     1       3.616   1.628  18.349  0.00  0.00    +0.000 OA
ATOM      4  O   UNL     1       5.037   2.387  20.234  0.00  0.00    +0.000 OA
BRANCH   2   5
ATOM      5  C   UNL     1       2.433   3.215  20.298  0.00  0.00    +0.000 C 
ATOM      6 CL   UNL     1       2.604   4.896  20.825  0.00  0.00    +0.000 Cl
ATOM      7 CL   UNL     1       0.967   2.941  19.329  0.00  0.00    +0.000 Cl
ATOM      8 CL   UNL     1       2.328   2.155  21.748  0.00  0.00    +0.000 Cl
ENDBRANCH   2   5
ENDBRANCH   1   2
BRANCH   1  10
ATOM      9  C   UNL     1       6.518   3.997  16.722  0.00  0.00    +0.000 C 
ATOM     10  C   UNL     1       6.073   3.980  18.186  0.00  0.00    +0.000 C 
BRANCH  10  11
ATOM     11  C   UNL     1       6.807   5.061  18.977  0.00  0.00    +0.000 C 
ATOM     12  O   UNL     1       6.565   5.353  20.149  0.00  0.00    +0.000 OA
ATOM     13  N   UNL     1       7.797   5.719  18.279  0.00  0.00    +0.000 N 
ATOM     14  H   UNL     1       7.812   5.767  17.265  0.00  0.00    +0.000 HD
BRANCH  13  15
ATOM     15  O   UNL     1       8.366   6.824  18.964  0.00  0.00    +0.000 OA
ATOM     16  H   UNL     1       7.575   7.294  19.317  0.00  0.00    +0.000 HD
ENDBRANCH  13  15
ENDBRANCH  10  11
ENDBRANCH   1  10
BRANCH   1  17
ATOM     17  C   UNL     1       3.756   4.541  17.208  0.00  0.00    +0.000 C 
BRANCH  17  18
ATOM     18  C   UNL     1       3.245   5.965  17.355  0.00  0.00    +0.000 A 
ATOM     19  C   UNL     1       1.960   6.141  17.907  0.00  0.00    +0.000 A 
ATOM     20  C   UNL     1       1.530   7.383  18.377  0.00  0.00    +0.000 A 
ATOM     21  C   UNL     1       2.357   8.495  18.268  0.00  0.00    +0.000 A 
ATOM     22  C   UNL     1       3.567   8.384  17.590  0.00  0.00    +0.000 A 
ATOM     23  C   UNL     1       3.989   7.137  17.092  0.00  0.00    +0.000 A 
BRANCH  23  24
ATOM     24  N   UNL     1       5.206   7.132  16.263  0.00  0.00    +0.000 N 
ATOM     25  O   UNL     1       6.261   7.517  16.785  0.00  0.00    +0.000 OA
ATOM     26  O   UNL     1       5.127   6.700  15.106  0.00  0.00    +0.000 OA
ENDBRANCH  23  24
ENDBRANCH  17  18
ENDBRANCH   1  17
TORSDOF 8
ENDMDL
