MODEL 1
REMARK VINA RESULT:      -7.4      0.000      0.000
REMARK  Name = 
REMARK  6 active torsions:
REMARK  status: ('A' for Active; 'I' for Inactive)
REMARK    1  A    between atoms: C_1  and  C_2
REMARK    2  A    between atoms: C_5  and  C_6
REMARK    3  A    between atoms: C_13  and  C_14
REMARK    4  A    between atoms: N_16  and  C_17
REMARK    5  A    between atoms: C_17  and  C_18
REMARK    6  A    between atoms: C_18  and  N_19
REMARK                            x       y       z     vdW  Elec       q    Type
REMARK                         _______ _______ _______ _____ _____    ______ ____
ROOT
ATOM      1  C   UNL     1       0.487   2.342  18.954  0.00  0.00    +0.000 C 
ATOM      2  C   UNL     1       1.691   3.046  18.475  0.00  0.00    +0.000 A 
ATOM      3  O   UNL     1       2.240   2.548  17.338  0.00  0.00    +0.000 OA
ATOM      4  N   UNL     1       3.334   3.295  16.979  0.00  0.00    +0.000 NA
ATOM      5  C   UNL     1       3.464   4.257  17.908  0.00  0.00    +0.000 A 
ATOM      6  C   UNL     1       2.408   4.156  18.879  0.00  0.00    +0.000 A 
ENDROOT
BRANCH   5   7
ATOM      7  C   UNL     1       4.600   5.186  17.848  0.00  0.00    +0.000 A 
ATOM      8  C   UNL     1       5.683   5.045  18.730  0.00  0.00    +0.000 A 
ATOM      9  C   UNL     1       6.754   5.947  18.702  0.00  0.00    +0.000 A 
ATOM     10  C   UNL     1       6.746   6.999  17.788  0.00  0.00    +0.000 A 
ATOM     11 BR   UNL     1       8.182   8.228  17.750  0.00  0.00    +0.000 Br
ATOM     12  C   UNL     1       5.680   7.158  16.909  0.00  0.00    +0.000 A 
ATOM     13  C   UNL     1       4.607   6.262  16.949  0.00  0.00    +0.000 A 
ENDBRANCH   5   7
BRANCH   6  14
ATOM     14  C   UNL     1       2.118   5.053  19.978  0.00  0.00    +0.000 C 
ATOM     15  O   UNL     1       1.827   4.630  21.095  0.00  0.00    +0.000 OA
ATOM     16  N   UNL     1       2.146   6.407  19.709  0.00  0.00    +0.000 N 
ATOM     17  H   UNL     1       2.125   6.733  18.749  0.00  0.00    +0.000 HD
BRANCH  16  18
ATOM     18  C   UNL     1       1.697   7.334  20.735  0.00  0.00    +0.000 C 
BRANCH  18  19
ATOM     19  C   UNL     1       1.179   8.669  20.176  0.00  0.00    +0.000 C 
BRANCH  19  20
ATOM     20  N   UNL     1       0.782   9.663  21.198  0.00  0.00    +0.000 NA
ATOM     21  C   UNL     1       0.192  10.871  20.587  0.00  0.00    +0.000 C 
ATOM     22  C   UNL     1      -0.193  11.901  21.652  0.00  0.00    +0.000 C 
ATOM     23  C   UNL     1      -1.147  11.312  22.684  0.00  0.00    +0.000 C 
ATOM     24  C   UNL     1      -0.589  10.009  23.240  0.00  0.00    +0.000 C 
ATOM     25  C   UNL     1      -0.199   9.048  22.117  0.00  0.00    +0.000 C 
ENDBRANCH  19  20
ENDBRANCH  18  19
ENDBRANCH  16  18
ENDBRANCH   6  14
TORSDOF 5
ENDMDL
MODEL 2
REMARK VINA RESULT:      -7.3      3.402      7.605
REMARK  Name = 
REMARK  6 active torsions:
REMARK  status: ('A' for Active; 'I' for Inactive)
REMARK    1  A    between atoms: C_1  and  C_2
REMARK    2  A    between atoms: C_5  and  C_6
REMARK    3  A    between atoms: C_13  and  C_14
REMARK    4  A    between atoms: N_16  and  C_17
REMARK    5  A    between atoms: C_17  and  C_18
REMARK    6  A    between atoms: C_18  and  N_19
REMARK                            x       y       z     vdW  Elec       q    Type
REMARK                         _______ _______ _______ _____ _____    ______ ____
ROOT
ATOM      1  C   UNL     1       3.841   1.967  18.830  0.00  0.00    +0.000 C 
ATOM      2  C   UNL     1       3.157   3.243  19.109  0.00  0.00    +0.000 A 
ATOM      3  O   UNL     1       1.935   3.131  19.690  0.00  0.00    +0.000 OA
ATOM      4  N   UNL     1       1.410   4.378  19.921  0.00  0.00    +0.000 NA
ATOM      5  C   UNL     1       2.313   5.265  19.469  0.00  0.00    +0.000 A 
ATOM      6  C   UNL     1       3.472   4.580  18.963  0.00  0.00    +0.000 A 
ENDROOT
BRANCH   5   7
ATOM      7  C   UNL     1       2.010   6.702  19.504  0.00  0.00    +0.000 A 
ATOM      8  C   UNL     1       1.557   7.305  20.688  0.00  0.00    +0.000 A 
ATOM      9  C   UNL     1       1.233   8.668  20.721  0.00  0.00    +0.000 A 
ATOM     10  C   UNL     1       1.361   9.436  19.566  0.00  0.00    +0.000 A 
ATOM     11 BR   UNL     1       0.916  11.273  19.598  0.00  0.00    +0.000 Br
ATOM     12  C   UNL     1       1.804   8.855  18.382  0.00  0.00    +0.000 A 
ATOM     13  C   UNL     1       2.115   7.492  18.351  0.00  0.00    +0.000 A 
ENDBRANCH   5   7
BRANCH   6  14
ATOM     14  C   UNL     1       4.711   5.158  18.485  0.00  0.00    +0.000 C 
ATOM     15  O   UNL     1       5.651   5.383  19.245  0.00  0.00    +0.000 OA
ATOM     16  N   UNL     1       4.779   5.480  17.144  0.00  0.00    +0.000 N 
ATOM     17  H   UNL     1       3.929   5.536  16.593  0.00  0.00    +0.000 HD
BRANCH  16  18
ATOM     18  C   UNL     1       5.936   6.214  16.658  0.00  0.00    +0.000 C 
BRANCH  18  19
ATOM     19  C   UNL     1       6.956   5.335  15.916  0.00  0.00    +0.000 C 
BRANCH  19  20
ATOM     20  N   UNL     1       6.681   5.138  14.475  0.00  0.00    +0.000 NA
ATOM     21  C   UNL     1       7.897   5.317  13.657  0.00  0.00    +0.000 C 
ATOM     22  C   UNL     1       7.595   5.134  12.167  0.00  0.00    +0.000 C 
ATOM     23  C   UNL     1       6.963   3.777  11.884  0.00  0.00    +0.000 C 
ATOM     24  C   UNL     1       5.770   3.546  12.802  0.00  0.00    +0.000 C 
ATOM     25  C   UNL     1       6.142   3.778  14.266  0.00  0.00    +0.000 C 
ENDBRANCH  19  20
ENDBRANCH  18  19
ENDBRANCH  16  18
ENDBRANCH   6  14
TORSDOF 5
ENDMDL
MODEL 3
REMARK VINA RESULT:      -7.3      4.914      7.190
REMARK  Name = 
REMARK  6 active torsions:
REMARK  status: ('A' for Active; 'I' for Inactive)
REMARK    1  A    between atoms: C_1  and  C_2
REMARK    2  A    between atoms: C_5  and  C_6
REMARK    3  A    between atoms: C_13  and  C_14
REMARK    4  A    between atoms: N_16  and  C_17
REMARK    5  A    between atoms: C_17  and  C_18
REMARK    6  A    between atoms: C_18  and  N_19
REMARK                            x       y       z     vdW  Elec       q    Type
REMARK                         _______ _______ _______ _____ _____    ______ ____
ROOT
ATOM      1  C   UNL     1       8.054   5.319  13.528  0.00  0.00    +0.000 C 
ATOM      2  C   UNL     1       6.904   4.952  14.376  0.00  0.00    +0.000 A 
ATOM      3  O   UNL     1       5.937   4.227  13.759  0.00  0.00    +0.000 OA
ATOM      4  N   UNL     1       4.936   3.927  14.649  0.00  0.00    +0.000 NA
ATOM      5  C   UNL     1       5.288   4.480  15.823  0.00  0.00    +0.000 A 
ATOM      6  C   UNL     1       6.566   5.127  15.704  0.00  0.00    +0.000 A 
ENDROOT
BRANCH   5   7
ATOM      7  C   UNL     1       4.377   4.400  16.973  0.00  0.00    +0.000 A 
ATOM      8  C   UNL     1       3.779   5.560  17.489  0.00  0.00    +0.000 A 
ATOM      9  C   UNL     1       2.938   5.497  18.607  0.00  0.00    +0.000 A 
ATOM     10  C   UNL     1       2.689   4.269  19.216  0.00  0.00    +0.000 A 
ATOM     11 BR   UNL     1       1.562   4.175  20.730  0.00  0.00    +0.000 Br
ATOM     12  C   UNL     1       3.276   3.109  18.721  0.00  0.00    +0.000 A 
ATOM     13  C   UNL     1       4.125   3.178  17.612  0.00  0.00    +0.000 A 
ENDBRANCH   5   7
BRANCH   6  14
ATOM     14  C   UNL     1       7.351   5.749  16.749  0.00  0.00    +0.000 C 
ATOM     15  O   UNL     1       7.867   5.087  17.648  0.00  0.00    +0.000 OA
ATOM     16  N   UNL     1       7.467   7.125  16.716  0.00  0.00    +0.000 N 
ATOM     17  H   UNL     1       6.836   7.672  16.140  0.00  0.00    +0.000 HD
BRANCH  16  18
ATOM     18  C   UNL     1       8.101   7.802  17.835  0.00  0.00    +0.000 C 
BRANCH  18  19
ATOM     19  C   UNL     1       7.795   9.307  17.898  0.00  0.00    +0.000 C 
BRANCH  19  20
ATOM     20  N   UNL     1       8.962  10.171  18.191  0.00  0.00    +0.000 NA
ATOM     21  C   UNL     1       8.784  11.533  17.651  0.00  0.00    +0.000 C 
ATOM     22  C   UNL     1      10.006  12.408  17.938  0.00  0.00    +0.000 C 
ATOM     23  C   UNL     1      10.315  12.469  19.429  0.00  0.00    +0.000 C 
ATOM     24  C   UNL     1      10.394  11.064  20.011  0.00  0.00    +0.000 C 
ATOM     25  C   UNL     1       9.156  10.243  19.655  0.00  0.00    +0.000 C 
ENDBRANCH  19  20
ENDBRANCH  18  19
ENDBRANCH  16  18
ENDBRANCH   6  14
TORSDOF 5
ENDMDL
MODEL 4
REMARK VINA RESULT:      -7.3      0.315      1.034
REMARK  Name = 
REMARK  6 active torsions:
REMARK  status: ('A' for Active; 'I' for Inactive)
REMARK    1  A    between atoms: C_1  and  C_2
REMARK    2  A    between atoms: C_5  and  C_6
REMARK    3  A    between atoms: C_13  and  C_14
REMARK    4  A    between atoms: N_16  and  C_17
REMARK    5  A    between atoms: C_17  and  C_18
REMARK    6  A    between atoms: C_18  and  N_19
REMARK                            x       y       z     vdW  Elec       q    Type
REMARK                         _______ _______ _______ _____ _____    ______ ____
ROOT
ATOM      1  C   UNL     1       0.459   2.283  18.871  0.00  0.00    +0.000 C 
ATOM      2  C   UNL     1       1.670   2.987  18.409  0.00  0.00    +0.000 A 
ATOM      3  O   UNL     1       2.252   2.471  17.297  0.00  0.00    +0.000 OA
ATOM      4  N   UNL     1       3.349   3.221  16.953  0.00  0.00    +0.000 NA
ATOM      5  C   UNL     1       3.448   4.200  17.867  0.00  0.00    +0.000 A 
ATOM      6  C   UNL     1       2.368   4.110  18.811  0.00  0.00    +0.000 A 
ENDROOT
BRANCH   5   7
ATOM      7  C   UNL     1       4.579   5.137  17.818  0.00  0.00    +0.000 A 
ATOM      8  C   UNL     1       5.679   4.969  18.673  0.00  0.00    +0.000 A 
ATOM      9  C   UNL     1       6.746   5.878  18.657  0.00  0.00    +0.000 A 
ATOM     10  C   UNL     1       6.715   6.963  17.784  0.00  0.00    +0.000 A 
ATOM     11 BR   UNL     1       8.144   8.200  17.762  0.00  0.00    +0.000 Br
ATOM     12  C   UNL     1       5.630   7.148  16.933  0.00  0.00    +0.000 A 
ATOM     13  C   UNL     1       4.563   6.246  16.960  0.00  0.00    +0.000 A 
ENDBRANCH   5   7
BRANCH   6  14
ATOM     14  C   UNL     1       2.043   5.024  19.885  0.00  0.00    +0.000 C 
ATOM     15  O   UNL     1       1.535   4.632  20.934  0.00  0.00    +0.000 OA
ATOM     16  N   UNL     1       2.293   6.365  19.667  0.00  0.00    +0.000 N 
ATOM     17  H   UNL     1       2.459   6.702  18.725  0.00  0.00    +0.000 HD
BRANCH  16  18
ATOM     18  C   UNL     1       1.827   7.333  20.647  0.00  0.00    +0.000 C 
BRANCH  18  19
ATOM     19  C   UNL     1       1.331   8.649  20.026  0.00  0.00    +0.000 C 
BRANCH  19  20
ATOM     20  N   UNL     1       0.261   9.334  20.785  0.00  0.00    +0.000 NA
ATOM     21  C   UNL     1       0.434   9.171  22.242  0.00  0.00    +0.000 C 
ATOM     22  C   UNL     1      -0.691   9.863  23.016  0.00  0.00    +0.000 C 
ATOM     23  C   UNL     1      -0.792  11.341  22.659  0.00  0.00    +0.000 C 
ATOM     24  C   UNL     1      -0.863  11.518  21.148  0.00  0.00    +0.000 C 
ATOM     25  C   UNL     1       0.271  10.773  20.447  0.00  0.00    +0.000 C 
ENDBRANCH  19  20
ENDBRANCH  18  19
ENDBRANCH  16  18
ENDBRANCH   6  14
TORSDOF 5
ENDMDL
MODEL 5
REMARK VINA RESULT:      -7.2      4.963      7.133
REMARK  Name = 
REMARK  6 active torsions:
REMARK  status: ('A' for Active; 'I' for Inactive)
REMARK    1  A    between atoms: C_1  and  C_2
REMARK    2  A    between atoms: C_5  and  C_6
REMARK    3  A    between atoms: C_13  and  C_14
REMARK    4  A    between atoms: N_16  and  C_17
REMARK    5  A    between atoms: C_17  and  C_18
REMARK    6  A    between atoms: C_18  and  N_19
REMARK                            x       y       z     vdW  Elec       q    Type
REMARK                         _______ _______ _______ _____ _____    ______ ____
ROOT
ATOM      1  C   UNL     1       7.915   5.495  13.839  0.00  0.00    +0.000 C 
ATOM      2  C   UNL     1       6.841   5.040  14.741  0.00  0.00    +0.000 A 
ATOM      3  O   UNL     1       5.923   4.212  14.179  0.00  0.00    +0.000 OA
ATOM      4  N   UNL     1       4.993   3.839  15.117  0.00  0.00    +0.000 NA
ATOM      5  C   UNL     1       5.335   4.451  16.263  0.00  0.00    +0.000 A 
ATOM      6  C   UNL     1       6.540   5.214  16.078  0.00  0.00    +0.000 A 
ENDROOT
BRANCH   5   7
ATOM      7  C   UNL     1       4.483   4.312  17.451  0.00  0.00    +0.000 A 
ATOM      8  C   UNL     1       4.832   3.421  18.477  0.00  0.00    +0.000 A 
ATOM      9  C   UNL     1       4.006   3.256  19.597  0.00  0.00    +0.000 A 
ATOM     10  C   UNL     1       2.824   3.986  19.696  0.00  0.00    +0.000 A 
ATOM     11 BR   UNL     1       1.699   3.764  21.198  0.00  0.00    +0.000 Br
ATOM     12  C   UNL     1       2.458   4.870  18.687  0.00  0.00    +0.000 A 
ATOM     13  C   UNL     1       3.279   5.023  17.565  0.00  0.00    +0.000 A 
ENDBRANCH   5   7
BRANCH   6  14
ATOM     14  C   UNL     1       7.301   5.933  17.077  0.00  0.00    +0.000 C 
ATOM     15  O   UNL     1       7.746   5.371  18.077  0.00  0.00    +0.000 OA
ATOM     16  N   UNL     1       7.477   7.289  16.879  0.00  0.00    +0.000 N 
ATOM     17  H   UNL     1       6.899   7.782  16.209  0.00  0.00    +0.000 HD
BRANCH  16  18
ATOM     18  C   UNL     1       8.088   8.078  17.937  0.00  0.00    +0.000 C 
BRANCH  18  19
ATOM     19  C   UNL     1       7.887   9.592  17.770  0.00  0.00    +0.000 C 
BRANCH  19  20
ATOM     20  N   UNL     1       9.053  10.423  18.149  0.00  0.00    +0.000 NA
ATOM     21  C   UNL     1       8.854  11.841  17.791  0.00  0.00    +0.000 C 
ATOM     22  C   UNL     1      10.075  12.685  18.166  0.00  0.00    +0.000 C 
ATOM     23  C   UNL     1      10.415  12.557  19.645  0.00  0.00    +0.000 C 
ATOM     24  C   UNL     1      10.516  11.090  20.041  0.00  0.00    +0.000 C 
ATOM     25  C   UNL     1       9.277  10.309  19.606  0.00  0.00    +0.000 C 
ENDBRANCH  19  20
ENDBRANCH  18  19
ENDBRANCH  16  18
ENDBRANCH   6  14
TORSDOF 5
ENDMDL
MODEL 6
REMARK VINA RESULT:      -7.2      2.129      2.567
REMARK  Name = 
REMARK  6 active torsions:
REMARK  status: ('A' for Active; 'I' for Inactive)
REMARK    1  A    between atoms: C_1  and  C_2
REMARK    2  A    between atoms: C_5  and  C_6
REMARK    3  A    between atoms: C_13  and  C_14
REMARK    4  A    between atoms: N_16  and  C_17
REMARK    5  A    between atoms: C_17  and  C_18
REMARK    6  A    between atoms: C_18  and  N_19
REMARK                            x       y       z     vdW  Elec       q    Type
REMARK                         _______ _______ _______ _____ _____    ______ ____
ROOT
ATOM      1  C   UNL     1       2.081   3.424  21.783  0.00  0.00    +0.000 C 
ATOM      2  C   UNL     1       3.032   3.419  20.656  0.00  0.00    +0.000 A 
ATOM      3  O   UNL     1       3.848   2.337  20.590  0.00  0.00    +0.000 OA
ATOM      4  N   UNL     1       4.666   2.433  19.493  0.00  0.00    +0.000 NA
ATOM      5  C   UNL     1       4.357   3.590  18.883  0.00  0.00    +0.000 A 
ATOM      6  C   UNL     1       3.286   4.248  19.580  0.00  0.00    +0.000 A 
ENDROOT
BRANCH   5   7
ATOM      7  C   UNL     1       5.120   4.023  17.704  0.00  0.00    +0.000 A 
ATOM      8  C   UNL     1       4.582   3.878  16.416  0.00  0.00    +0.000 A 
ATOM      9  C   UNL     1       5.316   4.256  15.284  0.00  0.00    +0.000 A 
ATOM     10  C   UNL     1       6.596   4.784  15.438  0.00  0.00    +0.000 A 
ATOM     11 BR   UNL     1       7.599   5.289  13.917  0.00  0.00    +0.000 Br
ATOM     12  C   UNL     1       7.148   4.932  16.706  0.00  0.00    +0.000 A 
ATOM     13  C   UNL     1       6.416   4.542  17.832  0.00  0.00    +0.000 A 
ENDBRANCH   5   7
BRANCH   6  14
ATOM     14  C   UNL     1       2.585   5.456  19.200  0.00  0.00    +0.000 C 
ATOM     15  O   UNL     1       2.058   5.576  18.095  0.00  0.00    +0.000 OA
ATOM     16  N   UNL     1       2.564   6.487  20.119  0.00  0.00    +0.000 N 
ATOM     17  H   UNL     1       3.209   6.481  20.901  0.00  0.00    +0.000 HD
BRANCH  16  18
ATOM     18  C   UNL     1       2.020   7.774  19.716  0.00  0.00    +0.000 C 
BRANCH  18  19
ATOM     19  C   UNL     1       1.236   8.488  20.829  0.00  0.00    +0.000 C 
BRANCH  19  20
ATOM     20  N   UNL     1       0.871   9.892  20.535  0.00  0.00    +0.000 NA
ATOM     21  C   UNL     1       0.101  10.006  19.281  0.00  0.00    +0.000 C 
ATOM     22  C   UNL     1      -0.250  11.465  18.976  0.00  0.00    +0.000 C 
ATOM     23  C   UNL     1      -1.013  12.111  20.125  0.00  0.00    +0.000 C 
ATOM     24  C   UNL     1      -0.271  11.903  21.438  0.00  0.00    +0.000 C 
ATOM     25  C   UNL     1       0.071  10.430  21.655  0.00  0.00    +0.000 C 
ENDBRANCH  19  20
ENDBRANCH  18  19
ENDBRANCH  16  18
ENDBRANCH   6  14
TORSDOF 5
ENDMDL
MODEL 7
REMARK VINA RESULT:      -7.2      2.185      2.743
REMARK  Name = 
REMARK  6 active torsions:
REMARK  status: ('A' for Active; 'I' for Inactive)
REMARK    1  A    between atoms: C_1  and  C_2
REMARK    2  A    between atoms: C_5  and  C_6
REMARK    3  A    between atoms: C_13  and  C_14
REMARK    4  A    between atoms: N_16  and  C_17
REMARK    5  A    between atoms: C_17  and  C_18
REMARK    6  A    between atoms: C_18  and  N_19
REMARK                            x       y       z     vdW  Elec       q    Type
REMARK                         _______ _______ _______ _____ _____    ______ ____
ROOT
ATOM      1  C   UNL     1       2.083   3.396  21.837  0.00  0.00    +0.000 C 
ATOM      2  C   UNL     1       3.030   3.397  20.706  0.00  0.00    +0.000 A 
ATOM      3  O   UNL     1       3.839   2.311  20.625  0.00  0.00    +0.000 OA
ATOM      4  N   UNL     1       4.654   2.414  19.525  0.00  0.00    +0.000 NA
ATOM      5  C   UNL     1       4.350   3.580  18.930  0.00  0.00    +0.000 A 
ATOM      6  C   UNL     1       3.285   4.237  19.638  0.00  0.00    +0.000 A 
ENDROOT
BRANCH   5   7
ATOM      7  C   UNL     1       5.110   4.022  17.753  0.00  0.00    +0.000 A 
ATOM      8  C   UNL     1       4.605   3.814  16.460  0.00  0.00    +0.000 A 
ATOM      9  C   UNL     1       5.340   4.202  15.332  0.00  0.00    +0.000 A 
ATOM     10  C   UNL     1       6.587   4.801  15.493  0.00  0.00    +0.000 A 
ATOM     11 BR   UNL     1       7.590   5.318  13.976  0.00  0.00    +0.000 Br
ATOM     12  C   UNL     1       7.106   5.011  16.766  0.00  0.00    +0.000 A 
ATOM     13  C   UNL     1       6.375   4.612  17.889  0.00  0.00    +0.000 A 
ENDBRANCH   5   7
BRANCH   6  14
ATOM     14  C   UNL     1       2.590   5.453  19.275  0.00  0.00    +0.000 C 
ATOM     15  O   UNL     1       2.045   5.581  18.179  0.00  0.00    +0.000 OA
ATOM     16  N   UNL     1       2.595   6.481  20.197  0.00  0.00    +0.000 N 
ATOM     17  H   UNL     1       3.254   6.466  20.967  0.00  0.00    +0.000 HD
BRANCH  16  18
ATOM     18  C   UNL     1       2.058   7.775  19.808  0.00  0.00    +0.000 C 
BRANCH  18  19
ATOM     19  C   UNL     1       1.215   8.447  20.903  0.00  0.00    +0.000 C 
BRANCH  19  20
ATOM     20  N   UNL     1       0.236   9.445  20.416  0.00  0.00    +0.000 NA
ATOM     21  C   UNL     1       0.384  10.740  21.109  0.00  0.00    +0.000 C 
ATOM     22  C   UNL     1      -0.648  11.756  20.613  0.00  0.00    +0.000 C 
ATOM     23  C   UNL     1      -0.564  11.953  19.105  0.00  0.00    +0.000 C 
ATOM     24  C   UNL     1      -0.609  10.608  18.392  0.00  0.00    +0.000 C 
ATOM     25  C   UNL     1       0.426   9.640  18.963  0.00  0.00    +0.000 C 
ENDBRANCH  19  20
ENDBRANCH  18  19
ENDBRANCH  16  18
ENDBRANCH   6  14
TORSDOF 5
ENDMDL
MODEL 8
REMARK VINA RESULT:      -7.0      3.400      7.535
REMARK  Name = 
REMARK  6 active torsions:
REMARK  status: ('A' for Active; 'I' for Inactive)
REMARK    1  A    between atoms: C_1  and  C_2
REMARK    2  A    between atoms: C_5  and  C_6
REMARK    3  A    between atoms: C_13  and  C_14
REMARK    4  A    between atoms: N_16  and  C_17
REMARK    5  A    between atoms: C_17  and  C_18
REMARK    6  A    between atoms: C_18  and  N_19
REMARK                            x       y       z     vdW  Elec       q    Type
REMARK                         _______ _______ _______ _____ _____    ______ ____
ROOT
ATOM      1  C   UNL     1       4.489   1.471  20.672  0.00  0.00    +0.000 C 
ATOM      2  C   UNL     1       3.802   2.767  20.522  0.00  0.00    +0.000 A 
ATOM      3  O   UNL     1       2.690   2.926  21.283  0.00  0.00    +0.000 OA
ATOM      4  N   UNL     1       2.154   4.173  21.077  0.00  0.00    +0.000 NA
ATOM      5  C   UNL     1       2.939   4.783  20.173  0.00  0.00    +0.000 A 
ATOM      6  C   UNL     1       4.035   3.927  19.807  0.00  0.00    +0.000 A 
ENDROOT
BRANCH   5   7
ATOM      7  C   UNL     1       2.585   6.120  19.679  0.00  0.00    +0.000 A 
ATOM      8  C   UNL     1       2.935   6.514  18.378  0.00  0.00    +0.000 A 
ATOM      9  C   UNL     1       2.633   7.800  17.911  0.00  0.00    +0.000 A 
ATOM     10  C   UNL     1       1.975   8.700  18.746  0.00  0.00    +0.000 A 
ATOM     11 BR   UNL     1       1.571  10.441  18.129  0.00  0.00    +0.000 Br
ATOM     12  C   UNL     1       1.624   8.330  20.040  0.00  0.00    +0.000 A 
ATOM     13  C   UNL     1       1.939   7.050  20.506  0.00  0.00    +0.000 A 
ENDBRANCH   5   7
BRANCH   6  14
ATOM     14  C   UNL     1       5.160   4.235  18.950  0.00  0.00    +0.000 C 
ATOM     15  O   UNL     1       6.115   4.898  19.354  0.00  0.00    +0.000 OA
ATOM     16  N   UNL     1       5.100   3.786  17.646  0.00  0.00    +0.000 N 
ATOM     17  H   UNL     1       4.216   3.479  17.257  0.00  0.00    +0.000 HD
BRANCH  16  18
ATOM     18  C   UNL     1       6.125   4.216  16.709  0.00  0.00    +0.000 C 
BRANCH  18  19
ATOM     19  C   UNL     1       5.667   5.343  15.769  0.00  0.00    +0.000 C 
BRANCH  19  20
ATOM     20  N   UNL     1       5.981   5.129  14.338  0.00  0.00    +0.000 NA
ATOM     21  C   UNL     1       7.428   5.243  14.071  0.00  0.00    +0.000 C 
ATOM     22  C   UNL     1       7.737   5.044  12.585  0.00  0.00    +0.000 C 
ATOM     23  C   UNL     1       7.210   3.708  12.076  0.00  0.00    +0.000 C 
ATOM     24  C   UNL     1       5.742   3.543  12.443  0.00  0.00    +0.000 C 
ATOM     25  C   UNL     1       5.510   3.788  13.933  0.00  0.00    +0.000 C 
ENDBRANCH  19  20
ENDBRANCH  18  19
ENDBRANCH  16  18
ENDBRANCH   6  14
TORSDOF 5
ENDMDL
MODEL 9
REMARK VINA RESULT:      -7.0      0.541      1.480
REMARK  Name = 
REMARK  6 active torsions:
REMARK  status: ('A' for Active; 'I' for Inactive)
REMARK    1  A    between atoms: C_1  and  C_2
REMARK    2  A    between atoms: C_5  and  C_6
REMARK    3  A    between atoms: C_13  and  C_14
REMARK    4  A    between atoms: N_16  and  C_17
REMARK    5  A    between atoms: C_17  and  C_18
REMARK    6  A    between atoms: C_18  and  N_19
REMARK                            x       y       z     vdW  Elec       q    Type
REMARK                         _______ _______ _______ _____ _____    ______ ____
ROOT
ATOM      1  C   UNL     1       1.175   1.962  19.278  0.00  0.00    +0.000 C 
ATOM      2  C   UNL     1       2.302   2.776  18.787  0.00  0.00    +0.000 A 
ATOM      3  O   UNL     1       2.945   2.281  17.699  0.00  0.00    +0.000 OA
ATOM      4  N   UNL     1       3.954   3.132  17.323  0.00  0.00    +0.000 NA
ATOM      5  C   UNL     1       3.937   4.156  18.194  0.00  0.00    +0.000 A 
ATOM      6  C   UNL     1       2.868   3.986  19.140  0.00  0.00    +0.000 A 
ENDROOT
BRANCH   5   7
ATOM      7  C   UNL     1       4.956   5.210  18.105  0.00  0.00    +0.000 A 
ATOM      8  C   UNL     1       4.806   6.271  17.199  0.00  0.00    +0.000 A 
ATOM      9  C   UNL     1       5.790   7.262  17.083  0.00  0.00    +0.000 A 
ATOM     10  C   UNL     1       6.933   7.195  17.877  0.00  0.00    +0.000 A 
ATOM     11 BR   UNL     1       8.271   8.521  17.721  0.00  0.00    +0.000 Br
ATOM     12  C   UNL     1       7.102   6.149  18.778  0.00  0.00    +0.000 A 
ATOM     13  C   UNL     1       6.123   5.156  18.882  0.00  0.00    +0.000 A 
ENDBRANCH   5   7
BRANCH   6  14
ATOM     14  C   UNL     1       2.436   4.905  20.172  0.00  0.00    +0.000 C 
ATOM     15  O   UNL     1       2.091   4.509  21.284  0.00  0.00    +0.000 OA
ATOM     16  N   UNL     1       2.392   6.246  19.843  0.00  0.00    +0.000 N 
ATOM     17  H   UNL     1       2.423   6.529  18.870  0.00  0.00    +0.000 HD
BRANCH  16  18
ATOM     18  C   UNL     1       1.807   7.181  20.790  0.00  0.00    +0.000 C 
BRANCH  18  19
ATOM     19  C   UNL     1       1.354   8.503  20.150  0.00  0.00    +0.000 C 
BRANCH  19  20
ATOM     20  N   UNL     1       0.301   9.230  20.895  0.00  0.00    +0.000 NA
ATOM     21  C   UNL     1       0.554   9.222  22.349  0.00  0.00    +0.000 C 
ATOM     22  C   UNL     1      -0.553   9.955  23.110  0.00  0.00    +0.000 C 
ATOM     23  C   UNL     1      -0.725  11.384  22.613  0.00  0.00    +0.000 C 
ATOM     24  C   UNL     1      -0.881  11.404  21.098  0.00  0.00    +0.000 C 
ATOM     25  C   UNL     1       0.242  10.626  20.414  0.00  0.00    +0.000 C 
ENDBRANCH  19  20
ENDBRANCH  18  19
ENDBRANCH  16  18
ENDBRANCH   6  14
TORSDOF 5
ENDMDL
