MODEL 1
REMARK VINA RESULT:      -7.7      0.000      0.000
REMARK  Name = 
REMARK  6 active torsions:
REMARK  status: ('A' for Active; 'I' for Inactive)
REMARK    1  A    between atoms: C_1  and  C_2
REMARK    2  A    between atoms: C_4  and  C_5
REMARK    3  A    between atoms: C_6  and  C_7
REMARK    4  A    between atoms: C_7  and  N_8
REMARK    5  A    between atoms: N_11  and  C_12
REMARK    6  A    between atoms: C_12  and  C_13
REMARK                            x       y       z     vdW  Elec       q    Type
REMARK                         _______ _______ _______ _____ _____    ______ ____
ROOT
ATOM      1  N   UNL     1       5.905   3.802  18.828  0.00  0.00    +0.000 N 
ATOM      2  C   UNL     1       4.905   2.947  19.141  0.00  0.00    +0.000 C 
ATOM      3  O   UNL     1       4.759   2.602  20.310  0.00  0.00    +0.000 OA
ATOM      4  N   UNL     1       4.146   2.480  18.114  0.00  0.00    +0.000 N 
ATOM      5  H   UNL     1       6.447   4.075  19.634  0.00  0.00    +0.000 HD
ATOM      6  H   UNL     1       4.022   3.083  17.304  0.00  0.00    +0.000 HD
ENDROOT
BRANCH   1   7
ATOM      7  C   UNL     1       6.320   4.277  17.526  0.00  0.00    +0.000 C 
BRANCH   7  13
ATOM      8  C   UNL     1       8.609   9.529  18.515  0.00  0.00    +0.000 C 
ATOM      9  C   UNL     1       7.987   8.213  18.172  0.00  0.00    +0.000 A 
ATOM     10  C   UNL     1       7.061   8.052  17.216  0.00  0.00    +0.000 A 
ATOM     11  C   UNL     1       6.477   6.747  16.948  0.00  0.00    +0.000 A 
ATOM     12  C   UNL     1       5.431   6.691  15.871  0.00  0.00    +0.000 C 
ATOM     13  C   UNL     1       6.880   5.664  17.647  0.00  0.00    +0.000 A 
ATOM     14  C   UNL     1       7.954   5.838  18.677  0.00  0.00    +0.000 A 
ATOM     15  O   UNL     1       8.415   4.891  19.307  0.00  0.00    +0.000 OA
ATOM     16  N   UNL     1       8.411   7.115  18.880  0.00  0.00    +0.000 N 
ATOM     17  H   UNL     1       9.130   7.210  19.585  0.00  0.00    +0.000 HD
ENDBRANCH   7  13
ENDBRANCH   1   7
BRANCH   4  18
ATOM     18  C   UNL     1       3.068   1.549  18.393  0.00  0.00    +0.000 C 
BRANCH  18  19
ATOM     19  C   UNL     1       1.779   2.219  18.897  0.00  0.00    +0.000 C 
ATOM     20  C   UNL     1       1.602   3.637  18.327  0.00  0.00    +0.000 C 
ATOM     21  O   UNL     1       1.786   4.652  19.310  0.00  0.00    +0.000 OA
ATOM     22  C   UNL     1       0.856   4.451  20.367  0.00  0.00    +0.000 C 
ATOM     23  C   UNL     1       1.028   3.093  21.041  0.00  0.00    +0.000 C 
ATOM     24  O   UNL     1       1.786   2.125  20.326  0.00  0.00    +0.000 OA
ENDBRANCH  18  19
ENDBRANCH   4  18
TORSDOF 4
ENDMDL
MODEL 2
REMARK VINA RESULT:      -7.4      3.262      6.424
REMARK  Name = 
REMARK  6 active torsions:
REMARK  status: ('A' for Active; 'I' for Inactive)
REMARK    1  A    between atoms: C_1  and  C_2
REMARK    2  A    between atoms: C_4  and  C_5
REMARK    3  A    between atoms: C_6  and  C_7
REMARK    4  A    between atoms: C_7  and  N_8
REMARK    5  A    between atoms: N_11  and  C_12
REMARK    6  A    between atoms: C_12  and  C_13
REMARK                            x       y       z     vdW  Elec       q    Type
REMARK                         _______ _______ _______ _____ _____    ______ ____
ROOT
ATOM      1  N   UNL     1       5.452   4.141  19.310  0.00  0.00    +0.000 N 
ATOM      2  C   UNL     1       6.482   4.390  18.468  0.00  0.00    +0.000 C 
ATOM      3  O   UNL     1       7.575   4.695  18.937  0.00  0.00    +0.000 OA
ATOM      4  N   UNL     1       6.218   4.334  17.135  0.00  0.00    +0.000 N 
ATOM      5  H   UNL     1       5.713   4.238  20.279  0.00  0.00    +0.000 HD
ATOM      6  H   UNL     1       5.491   3.696  16.822  0.00  0.00    +0.000 HD
ENDROOT
BRANCH   1   7
ATOM      7  C   UNL     1       4.071   3.851  18.994  0.00  0.00    +0.000 C 
BRANCH   7  13
ATOM      8  C   UNL     1       1.044   8.547  20.601  0.00  0.00    +0.000 C 
ATOM      9  C   UNL     1       1.761   7.283  20.244  0.00  0.00    +0.000 A 
ATOM     10  C   UNL     1       1.641   6.139  20.931  0.00  0.00    +0.000 A 
ATOM     11  C   UNL     1       2.385   4.950  20.545  0.00  0.00    +0.000 A 
ATOM     12  C   UNL     1       2.191   3.732  21.403  0.00  0.00    +0.000 C 
ATOM     13  C   UNL     1       3.196   4.974  19.466  0.00  0.00    +0.000 A 
ATOM     14  C   UNL     1       3.285   6.239  18.668  0.00  0.00    +0.000 A 
ATOM     15  O   UNL     1       3.950   6.319  17.640  0.00  0.00    +0.000 OA
ATOM     16  N   UNL     1       2.574   7.314  19.138  0.00  0.00    +0.000 N 
ATOM     17  H   UNL     1       2.655   8.159  18.588  0.00  0.00    +0.000 HD
ENDBRANCH   7  13
ENDBRANCH   1   7
BRANCH   4  18
ATOM     18  C   UNL     1       7.285   4.607  16.188  0.00  0.00    +0.000 C 
BRANCH  18  19
ATOM     19  C   UNL     1       6.789   5.035  14.796  0.00  0.00    +0.000 C 
ATOM     20  C   UNL     1       5.883   3.971  14.153  0.00  0.00    +0.000 C 
ATOM     21  O   UNL     1       6.505   3.311  13.054  0.00  0.00    +0.000 OA
ATOM     22  C   UNL     1       6.866   4.276  12.074  0.00  0.00    +0.000 C 
ATOM     23  C   UNL     1       7.837   5.320  12.618  0.00  0.00    +0.000 C 
ATOM     24  O   UNL     1       7.943   5.405  14.034  0.00  0.00    +0.000 OA
ENDBRANCH  18  19
ENDBRANCH   4  18
TORSDOF 4
ENDMDL
MODEL 3
REMARK VINA RESULT:      -7.4      1.759      2.010
REMARK  Name = 
REMARK  6 active torsions:
REMARK  status: ('A' for Active; 'I' for Inactive)
REMARK    1  A    between atoms: C_1  and  C_2
REMARK    2  A    between atoms: C_4  and  C_5
REMARK    3  A    between atoms: C_6  and  C_7
REMARK    4  A    between atoms: C_7  and  N_8
REMARK    5  A    between atoms: N_11  and  C_12
REMARK    6  A    between atoms: C_12  and  C_13
REMARK                            x       y       z     vdW  Elec       q    Type
REMARK                         _______ _______ _______ _____ _____    ______ ____
ROOT
ATOM      1  N   UNL     1       4.751   3.193  16.999  0.00  0.00    +0.000 N 
ATOM      2  C   UNL     1       3.745   2.591  17.675  0.00  0.00    +0.000 C 
ATOM      3  O   UNL     1       4.005   1.646  18.413  0.00  0.00    +0.000 OA
ATOM      4  N   UNL     1       2.486   3.052  17.449  0.00  0.00    +0.000 N 
ATOM      5  H   UNL     1       5.649   2.774  17.188  0.00  0.00    +0.000 HD
ATOM      6  H   UNL     1       2.377   4.034  17.205  0.00  0.00    +0.000 HD
ENDROOT
BRANCH   1   7
ATOM      7  C   UNL     1       4.680   4.256  16.021  0.00  0.00    +0.000 C 
BRANCH   7  13
ATOM      8  C   UNL     1       8.171   8.515  17.883  0.00  0.00    +0.000 C 
ATOM      9  C   UNL     1       7.194   7.481  17.420  0.00  0.00    +0.000 A 
ATOM     10  C   UNL     1       5.880   7.527  17.680  0.00  0.00    +0.000 A 
ATOM     11  C   UNL     1       4.987   6.474  17.221  0.00  0.00    +0.000 A 
ATOM     12  C   UNL     1       3.538   6.618  17.592  0.00  0.00    +0.000 C 
ATOM     13  C   UNL     1       5.467   5.440  16.499  0.00  0.00    +0.000 A 
ATOM     14  C   UNL     1       6.927   5.421  16.163  0.00  0.00    +0.000 A 
ATOM     15  O   UNL     1       7.425   4.548  15.459  0.00  0.00    +0.000 OA
ATOM     16  N   UNL     1       7.690   6.439  16.677  0.00  0.00    +0.000 N 
ATOM     17  H   UNL     1       8.674   6.401  16.443  0.00  0.00    +0.000 HD
ENDBRANCH   7  13
ENDBRANCH   1   7
BRANCH   4  18
ATOM     18  C   UNL     1       1.369   2.433  18.138  0.00  0.00    +0.000 C 
BRANCH  18  19
ATOM     19  C   UNL     1       1.071   3.043  19.519  0.00  0.00    +0.000 C 
ATOM     20  C   UNL     1       1.554   4.499  19.624  0.00  0.00    +0.000 C 
ATOM     21  O   UNL     1       2.682   4.643  20.484  0.00  0.00    +0.000 OA
ATOM     22  C   UNL     1       2.343   4.165  21.780  0.00  0.00    +0.000 C 
ATOM     23  C   UNL     1       1.933   2.695  21.767  0.00  0.00    +0.000 C 
ATOM     24  O   UNL     1       1.600   2.144  20.499  0.00  0.00    +0.000 OA
ENDBRANCH  18  19
ENDBRANCH   4  18
TORSDOF 4
ENDMDL
MODEL 4
REMARK VINA RESULT:      -7.2      2.602      4.042
REMARK  Name = 
REMARK  6 active torsions:
REMARK  status: ('A' for Active; 'I' for Inactive)
REMARK    1  A    between atoms: C_1  and  C_2
REMARK    2  A    between atoms: C_4  and  C_5
REMARK    3  A    between atoms: C_6  and  C_7
REMARK    4  A    between atoms: C_7  and  N_8
REMARK    5  A    between atoms: N_11  and  C_12
REMARK    6  A    between atoms: C_12  and  C_13
REMARK                            x       y       z     vdW  Elec       q    Type
REMARK                         _______ _______ _______ _____ _____    ______ ____
ROOT
ATOM      1  N   UNL     1       4.358   6.861  17.952  0.00  0.00    +0.000 N 
ATOM      2  C   UNL     1       3.223   6.852  18.688  0.00  0.00    +0.000 C 
ATOM      3  O   UNL     1       2.366   7.704  18.475  0.00  0.00    +0.000 OA
ATOM      4  N   UNL     1       3.128   5.910  19.665  0.00  0.00    +0.000 N 
ATOM      5  H   UNL     1       4.373   7.608  17.274  0.00  0.00    +0.000 HD
ATOM      6  H   UNL     1       3.610   5.027  19.522  0.00  0.00    +0.000 HD
ENDROOT
BRANCH   1   7
ATOM      7  C   UNL     1       5.529   6.021  18.077  0.00  0.00    +0.000 C 
BRANCH   7  13
ATOM      8  C   UNL     1       6.860   3.906  12.828  0.00  0.00    +0.000 C 
ATOM      9  C   UNL     1       6.465   4.366  14.196  0.00  0.00    +0.000 A 
ATOM     10  C   UNL     1       5.459   3.830  14.900  0.00  0.00    +0.000 A 
ATOM     11  C   UNL     1       5.111   4.340  16.218  0.00  0.00    +0.000 A 
ATOM     12  C   UNL     1       3.950   3.679  16.905  0.00  0.00    +0.000 C 
ATOM     13  C   UNL     1       5.816   5.352  16.765  0.00  0.00    +0.000 A 
ATOM     14  C   UNL     1       6.975   5.912  15.997  0.00  0.00    +0.000 A 
ATOM     15  O   UNL     1       7.701   6.789  16.455  0.00  0.00    +0.000 OA
ATOM     16  N   UNL     1       7.196   5.388  14.749  0.00  0.00    +0.000 N 
ATOM     17  H   UNL     1       7.978   5.787  14.246  0.00  0.00    +0.000 HD
ENDBRANCH   7  13
ENDBRANCH   1   7
BRANCH   4  18
ATOM     18  C   UNL     1       1.936   5.865  20.494  0.00  0.00    +0.000 C 
BRANCH  18  19
ATOM     19  C   UNL     1       1.266   4.482  20.548  0.00  0.00    +0.000 C 
ATOM     20  C   UNL     1       2.060   3.487  21.413  0.00  0.00    +0.000 C 
ATOM     21  O   UNL     1       2.693   2.471  20.640  0.00  0.00    +0.000 OA
ATOM     22  C   UNL     1       1.706   1.765  19.899  0.00  0.00    +0.000 C 
ATOM     23  C   UNL     1       0.931   2.676  18.951  0.00  0.00    +0.000 C 
ATOM     24  O   UNL     1       1.031   4.074  19.196  0.00  0.00    +0.000 OA
ENDBRANCH  18  19
ENDBRANCH   4  18
TORSDOF 4
ENDMDL
MODEL 5
REMARK VINA RESULT:      -7.0      1.255      1.859
REMARK  Name = 
REMARK  6 active torsions:
REMARK  status: ('A' for Active; 'I' for Inactive)
REMARK    1  A    between atoms: C_1  and  C_2
REMARK    2  A    between atoms: C_4  and  C_5
REMARK    3  A    between atoms: C_6  and  C_7
REMARK    4  A    between atoms: C_7  and  N_8
REMARK    5  A    between atoms: N_11  and  C_12
REMARK    6  A    between atoms: C_12  and  C_13
REMARK                            x       y       z     vdW  Elec       q    Type
REMARK                         _______ _______ _______ _____ _____    ______ ____
ROOT
ATOM      1  N   UNL     1       5.960   3.937  18.758  0.00  0.00    +0.000 N 
ATOM      2  C   UNL     1       4.953   3.063  18.989  0.00  0.00    +0.000 C 
ATOM      3  O   UNL     1       4.813   2.598  20.115  0.00  0.00    +0.000 OA
ATOM      4  N   UNL     1       4.181   2.715  17.925  0.00  0.00    +0.000 N 
ATOM      5  H   UNL     1       6.511   4.117  19.583  0.00  0.00    +0.000 HD
ATOM      6  H   UNL     1       4.056   3.401  17.184  0.00  0.00    +0.000 HD
ENDROOT
BRANCH   1   7
ATOM      7  C   UNL     1       6.368   4.543  17.510  0.00  0.00    +0.000 C 
BRANCH   7  13
ATOM      8  C   UNL     1       8.539   9.915  17.990  0.00  0.00    +0.000 C 
ATOM      9  C   UNL     1       8.012   8.515  17.961  0.00  0.00    +0.000 A 
ATOM     10  C   UNL     1       8.387   7.559  18.823  0.00  0.00    +0.000 A 
ATOM     11  C   UNL     1       7.853   6.209  18.724  0.00  0.00    +0.000 A 
ATOM     12  C   UNL     1       8.363   5.215  19.728  0.00  0.00    +0.000 C 
ATOM     13  C   UNL     1       6.948   5.902  17.771  0.00  0.00    +0.000 A 
ATOM     14  C   UNL     1       6.491   6.987  16.844  0.00  0.00    +0.000 A 
ATOM     15  O   UNL     1       5.626   6.800  15.994  0.00  0.00    +0.000 OA
ATOM     16  N   UNL     1       7.083   8.215  16.995  0.00  0.00    +0.000 N 
ATOM     17  H   UNL     1       6.765   8.929  16.353  0.00  0.00    +0.000 HD
ENDBRANCH   7  13
ENDBRANCH   1   7
BRANCH   4  18
ATOM     18  C   UNL     1       3.095   1.770  18.114  0.00  0.00    +0.000 C 
BRANCH  18  19
ATOM     19  C   UNL     1       1.815   2.397  18.693  0.00  0.00    +0.000 C 
ATOM     20  C   UNL     1       1.664   3.876  18.297  0.00  0.00    +0.000 C 
ATOM     21  O   UNL     1       1.862   4.762  19.395  0.00  0.00    +0.000 OA
ATOM     22  C   UNL     1       0.924   4.452  20.418  0.00  0.00    +0.000 C 
ATOM     23  C   UNL     1       1.070   3.019  20.925  0.00  0.00    +0.000 C 
ATOM     24  O   UNL     1       1.815   2.132  20.100  0.00  0.00    +0.000 OA
ENDBRANCH  18  19
ENDBRANCH   4  18
TORSDOF 4
ENDMDL
MODEL 6
REMARK VINA RESULT:      -6.9      4.622      6.890
REMARK  Name = 
REMARK  6 active torsions:
REMARK  status: ('A' for Active; 'I' for Inactive)
REMARK    1  A    between atoms: C_1  and  C_2
REMARK    2  A    between atoms: C_4  and  C_5
REMARK    3  A    between atoms: C_6  and  C_7
REMARK    4  A    between atoms: C_7  and  N_8
REMARK    5  A    between atoms: N_11  and  C_12
REMARK    6  A    between atoms: C_12  and  C_13
REMARK                            x       y       z     vdW  Elec       q    Type
REMARK                         _______ _______ _______ _____ _____    ______ ____
ROOT
ATOM      1  N   UNL     1       1.413   6.703  20.782  0.00  0.00    +0.000 N 
ATOM      2  C   UNL     1       2.124   5.689  20.236  0.00  0.00    +0.000 C 
ATOM      3  O   UNL     1       1.598   4.588  20.118  0.00  0.00    +0.000 OA
ATOM      4  N   UNL     1       3.414   5.953  19.896  0.00  0.00    +0.000 N 
ATOM      5  H   UNL     1       0.480   6.423  21.043  0.00  0.00    +0.000 HD
ATOM      6  H   UNL     1       3.647   6.903  19.617  0.00  0.00    +0.000 HD
ENDROOT
BRANCH   1   7
ATOM      7  C   UNL     1       1.843   8.048  21.097  0.00  0.00    +0.000 C 
BRANCH   7  13
ATOM      8  C   UNL     1      -1.195  11.975  18.072  0.00  0.00    +0.000 C 
ATOM      9  C   UNL     1      -0.487  10.967  18.920  0.00  0.00    +0.000 A 
ATOM     10  C   UNL     1      -0.766  10.752  20.213  0.00  0.00    +0.000 A 
ATOM     11  C   UNL     1      -0.022   9.771  20.989  0.00  0.00    +0.000 A 
ATOM     12  C   UNL     1      -0.404   9.634  22.435  0.00  0.00    +0.000 C 
ATOM     13  C   UNL     1       0.952   9.040  20.407  0.00  0.00    +0.000 A 
ATOM     14  C   UNL     1       1.224   9.244  18.948  0.00  0.00    +0.000 A 
ATOM     15  O   UNL     1       2.049   8.573  18.336  0.00  0.00    +0.000 OA
ATOM     16  N   UNL     1       0.494  10.219  18.317  0.00  0.00    +0.000 N 
ATOM     17  H   UNL     1       0.700  10.344  17.334  0.00  0.00    +0.000 HD
ENDBRANCH   7  13
ENDBRANCH   1   7
BRANCH   4  18
ATOM     18  C   UNL     1       4.227   4.897  19.320  0.00  0.00    +0.000 C 
BRANCH  18  19
ATOM     19  C   UNL     1       5.323   5.402  18.366  0.00  0.00    +0.000 C 
ATOM     20  C   UNL     1       4.919   5.251  16.889  0.00  0.00    +0.000 C 
ATOM     21  O   UNL     1       5.659   4.235  16.217  0.00  0.00    +0.000 OA
ATOM     22  C   UNL     1       7.046   4.539  16.296  0.00  0.00    +0.000 C 
ATOM     23  C   UNL     1       7.541   4.621  17.738  0.00  0.00    +0.000 C 
ATOM     24  O   UNL     1       6.541   4.751  18.742  0.00  0.00    +0.000 OA
ENDBRANCH  18  19
ENDBRANCH   4  18
TORSDOF 4
ENDMDL
MODEL 7
REMARK VINA RESULT:      -6.9      4.486      6.853
REMARK  Name = 
REMARK  6 active torsions:
REMARK  status: ('A' for Active; 'I' for Inactive)
REMARK    1  A    between atoms: C_1  and  C_2
REMARK    2  A    between atoms: C_4  and  C_5
REMARK    3  A    between atoms: C_6  and  C_7
REMARK    4  A    between atoms: C_7  and  N_8
REMARK    5  A    between atoms: N_11  and  C_12
REMARK    6  A    between atoms: C_12  and  C_13
REMARK                            x       y       z     vdW  Elec       q    Type
REMARK                         _______ _______ _______ _____ _____    ______ ____
ROOT
ATOM      1  N   UNL     1       1.869   6.545  19.299  0.00  0.00    +0.000 N 
ATOM      2  C   UNL     1       2.534   5.852  18.346  0.00  0.00    +0.000 C 
ATOM      3  O   UNL     1       2.102   4.760  17.993  0.00  0.00    +0.000 OA
ATOM      4  N   UNL     1       3.684   6.402  17.872  0.00  0.00    +0.000 N 
ATOM      5  H   UNL     1       1.049   6.059  19.628  0.00  0.00    +0.000 HD
ATOM      6  H   UNL     1       3.756   7.417  17.861  0.00  0.00    +0.000 HD
ENDROOT
BRANCH   1   7
ATOM      7  C   UNL     1       2.227   7.797  19.928  0.00  0.00    +0.000 C 
BRANCH   7  13
ATOM      8  C   UNL     1      -1.275  12.100  18.189  0.00  0.00    +0.000 C 
ATOM      9  C   UNL     1      -0.443  10.970  18.707  0.00  0.00    +0.000 A 
ATOM     10  C   UNL     1      -0.627  10.396  19.904  0.00  0.00    +0.000 A 
ATOM     11  C   UNL     1       0.234   9.315  20.358  0.00  0.00    +0.000 A 
ATOM     12  C   UNL     1      -0.050   8.764  21.727  0.00  0.00    +0.000 C 
ATOM     13  C   UNL     1       1.225   8.853  19.566  0.00  0.00    +0.000 A 
ATOM     14  C   UNL     1       1.393   9.461  18.206  0.00  0.00    +0.000 A 
ATOM     15  O   UNL     1       2.229   9.052  17.406  0.00  0.00    +0.000 OA
ATOM     16  N   UNL     1       0.555  10.499  17.889  0.00  0.00    +0.000 N 
ATOM     17  H   UNL     1       0.692  10.899  16.969  0.00  0.00    +0.000 HD
ENDBRANCH   7  13
ENDBRANCH   1   7
BRANCH   4  18
ATOM     18  C   UNL     1       4.445   5.694  16.858  0.00  0.00    +0.000 C 
BRANCH  18  19
ATOM     19  C   UNL     1       5.907   5.421  17.251  0.00  0.00    +0.000 C 
ATOM     20  C   UNL     1       6.015   4.519  18.492  0.00  0.00    +0.000 C 
ATOM     21  O   UNL     1       6.478   5.219  19.643  0.00  0.00    +0.000 OA
ATOM     22  C   UNL     1       7.752   5.786  19.362  0.00  0.00    +0.000 C 
ATOM     23  C   UNL     1       7.707   6.763  18.191  0.00  0.00    +0.000 C 
ATOM     24  O   UNL     1       6.559   6.692  17.354  0.00  0.00    +0.000 OA
ENDBRANCH  18  19
ENDBRANCH   4  18
TORSDOF 4
ENDMDL
MODEL 8
REMARK VINA RESULT:      -6.9      1.785      2.527
REMARK  Name = 
REMARK  6 active torsions:
REMARK  status: ('A' for Active; 'I' for Inactive)
REMARK    1  A    between atoms: C_1  and  C_2
REMARK    2  A    between atoms: C_4  and  C_5
REMARK    3  A    between atoms: C_6  and  C_7
REMARK    4  A    between atoms: C_7  and  N_8
REMARK    5  A    between atoms: N_11  and  C_12
REMARK    6  A    between atoms: C_12  and  C_13
REMARK                            x       y       z     vdW  Elec       q    Type
REMARK                         _______ _______ _______ _____ _____    ______ ____
ROOT
ATOM      1  N   UNL     1       6.057   4.501  19.555  0.00  0.00    +0.000 N 
ATOM      2  C   UNL     1       5.195   3.497  19.275  0.00  0.00    +0.000 C 
ATOM      3  O   UNL     1       5.212   2.485  19.968  0.00  0.00    +0.000 OA
ATOM      4  N   UNL     1       4.386   3.661  18.194  0.00  0.00    +0.000 N 
ATOM      5  H   UNL     1       6.649   4.293  20.345  0.00  0.00    +0.000 HD
ATOM      6  H   UNL     1       4.111   4.608  17.946  0.00  0.00    +0.000 HD
ENDROOT
BRANCH   1   7
ATOM      7  C   UNL     1       6.276   5.737  18.837  0.00  0.00    +0.000 C 
BRANCH   7  13
ATOM      8  C   UNL     1       7.062   4.625  13.185  0.00  0.00    +0.000 C 
ATOM      9  C   UNL     1       6.764   4.935  14.618  0.00  0.00    +0.000 A 
ATOM     10  C   UNL     1       5.703   5.648  15.021  0.00  0.00    +0.000 A 
ATOM     11  C   UNL     1       5.484   5.935  16.431  0.00  0.00    +0.000 A 
ATOM     12  C   UNL     1       4.276   6.763  16.764  0.00  0.00    +0.000 C 
ATOM     13  C   UNL     1       6.339   5.464  17.363  0.00  0.00    +0.000 A 
ATOM     14  C   UNL     1       7.494   4.621  16.913  0.00  0.00    +0.000 A 
ATOM     15  O   UNL     1       8.276   4.107  17.705  0.00  0.00    +0.000 OA
ATOM     16  N   UNL     1       7.633   4.442  15.560  0.00  0.00    +0.000 N 
ATOM     17  H   UNL     1       8.424   3.877  15.279  0.00  0.00    +0.000 HD
ENDBRANCH   7  13
ENDBRANCH   1   7
BRANCH   4  18
ATOM     18  C   UNL     1       3.451   2.608  17.840  0.00  0.00    +0.000 C 
BRANCH  18  19
ATOM     19  C   UNL     1       2.054   2.778  18.462  0.00  0.00    +0.000 C 
ATOM     20  C   UNL     1       1.559   4.233  18.383  0.00  0.00    +0.000 C 
ATOM     21  O   UNL     1       1.531   4.874  19.655  0.00  0.00    +0.000 OA
ATOM     22  C   UNL     1       0.686   4.137  20.530  0.00  0.00    +0.000 C 
ATOM     23  C   UNL     1       1.164   2.701  20.725  0.00  0.00    +0.000 C 
ATOM     24  O   UNL     1       2.106   2.215  19.776  0.00  0.00    +0.000 OA
ENDBRANCH  18  19
ENDBRANCH   4  18
TORSDOF 4
ENDMDL
MODEL 9
REMARK VINA RESULT:      -6.8      3.886      5.385
REMARK  Name = 
REMARK  6 active torsions:
REMARK  status: ('A' for Active; 'I' for Inactive)
REMARK    1  A    between atoms: C_1  and  C_2
REMARK    2  A    between atoms: C_4  and  C_5
REMARK    3  A    between atoms: C_6  and  C_7
REMARK    4  A    between atoms: C_7  and  N_8
REMARK    5  A    between atoms: N_11  and  C_12
REMARK    6  A    between atoms: C_12  and  C_13
REMARK                            x       y       z     vdW  Elec       q    Type
REMARK                         _______ _______ _______ _____ _____    ______ ____
ROOT
ATOM      1  N   UNL     1       3.602   7.691  17.786  0.00  0.00    +0.000 N 
ATOM      2  C   UNL     1       4.302   6.549  17.595  0.00  0.00    +0.000 C 
ATOM      3  O   UNL     1       5.527   6.600  17.551  0.00  0.00    +0.000 OA
ATOM      4  N   UNL     1       3.584   5.408  17.412  0.00  0.00    +0.000 N 
ATOM      5  H   UNL     1       4.199   8.499  17.876  0.00  0.00    +0.000 HD
ATOM      6  H   UNL     1       2.676   5.341  17.865  0.00  0.00    +0.000 HD
ENDROOT
BRANCH   1   7
ATOM      7  C   UNL     1       2.170   7.890  17.788  0.00  0.00    +0.000 C 
BRANCH   7  13
ATOM      8  C   UNL     1       0.350   9.437  23.089  0.00  0.00    +0.000 C 
ATOM      9  C   UNL     1       0.824   9.137  21.702  0.00  0.00    +0.000 A 
ATOM     10  C   UNL     1       0.802  10.024  20.699  0.00  0.00    +0.000 A 
ATOM     11  C   UNL     1       1.256   9.661  19.365  0.00  0.00    +0.000 A 
ATOM     12  C   UNL     1       1.162  10.729  18.313  0.00  0.00    +0.000 C 
ATOM     13  C   UNL     1       1.734   8.422  19.122  0.00  0.00    +0.000 A 
ATOM     14  C   UNL     1       1.808   7.450  20.260  0.00  0.00    +0.000 A 
ATOM     15  O   UNL     1       2.288   6.328  20.131  0.00  0.00    +0.000 OA
ATOM     16  N   UNL     1       1.319   7.878  21.467  0.00  0.00    +0.000 N 
ATOM     17  H   UNL     1       1.373   7.202  22.219  0.00  0.00    +0.000 HD
ENDBRANCH   7  13
ENDBRANCH   1   7
BRANCH   4  18
ATOM     18  C   UNL     1       4.284   4.156  17.189  0.00  0.00    +0.000 C 
BRANCH  18  19
ATOM     19  C   UNL     1       3.842   3.018  18.124  0.00  0.00    +0.000 C 
ATOM     20  C   UNL     1       2.494   2.411  17.700  0.00  0.00    +0.000 C 
ATOM     21  O   UNL     1       1.437   2.736  18.599  0.00  0.00    +0.000 OA
ATOM     22  C   UNL     1       1.774   2.270  19.901  0.00  0.00    +0.000 C 
ATOM     23  C   UNL     1       3.062   2.897  20.426  0.00  0.00    +0.000 C 
ATOM     24  O   UNL     1       3.897   3.526  19.461  0.00  0.00    +0.000 OA
ENDBRANCH  18  19
ENDBRANCH   4  18
TORSDOF 4
ENDMDL
