MODEL 1
REMARK VINA RESULT:      -8.6      0.000      0.000
REMARK  Name = 
REMARK  3 active torsions:
REMARK  status: ('A' for Active; 'I' for Inactive)
REMARK    1  A    between atoms: C_1  and  N_2
REMARK    2  A    between atoms: C_7  and  C_8
REMARK    3  A    between atoms: N_20  and  C_21
REMARK                            x       y       z     vdW  Elec       q    Type
REMARK                         _______ _______ _______ _____ _____    ______ ____
ROOT
ATOM      1  C   UNL     1       4.284   1.284  21.144  0.00  0.00    +0.000 C 
ATOM      2  N   UNL     1       3.647   2.541  20.844  0.00  0.00    +0.000 N 
ATOM      3  C   UNL     1       2.596   2.990  21.618  0.00  0.00    +0.000 A 
ATOM      4  N   UNL     1       2.027   4.136  21.479  0.00  0.00    +0.000 NA
ATOM      5  C   UNL     1       2.508   4.992  20.475  0.00  0.00    +0.000 A 
ATOM      6  C   UNL     1       1.916   6.235  20.338  0.00  0.00    +0.000 A 
ATOM      7  C   UNL     1       2.382   7.117  19.363  0.00  0.00    +0.000 A 
ATOM      8  N   UNL     1       3.376   6.764  18.510  0.00  0.00    +0.000 NA
ATOM      9  C   UNL     1       3.960   5.546  18.632  0.00  0.00    +0.000 A 
ATOM     10  N   UNL     1       4.927   5.180  17.679  0.00  0.00    +0.000 N 
ATOM     11  C   UNL     1       3.537   4.646  19.605  0.00  0.00    +0.000 A 
ATOM     12  C   UNL     1       4.203   3.346  19.850  0.00  0.00    +0.000 A 
ATOM     13  O   UNL     1       5.221   3.029  19.237  0.00  0.00    +0.000 OA
ATOM     14  H   UNL     1       5.600   4.527  18.093  0.00  0.00    +0.000 HD
ENDROOT
BRANCH   7  15
ATOM     15  C   UNL     1       1.697   8.405  19.094  0.00  0.00    +0.000 A 
ATOM     16  C   UNL     1       1.949   9.118  17.889  0.00  0.00    +0.000 A 
ATOM     17  C   UNL     1       1.750  10.495  17.809  0.00  0.00    +0.000 A 
ATOM     18  C   UNL     1       1.272  11.107  18.941  0.00  0.00    +0.000 A 
ATOM     19  C   UNL     1       0.755  10.401  20.024  0.00  0.00    +0.000 A 
ATOM     20  C   UNL     1       0.968   9.040  20.120  0.00  0.00    +0.000 A 
ATOM     21  C   UNL     1       0.374  11.381  21.090  0.00  0.00    +0.000 C 
ATOM     22  C   UNL     1       1.316  12.527  20.723  0.00  0.00    +0.000 C 
ATOM     23  O   UNL     1       1.809  13.349  21.475  0.00  0.00    +0.000 OA
ATOM     24  N   UNL     1       1.556  12.410  19.350  0.00  0.00    +0.000 N 
ATOM     25  H   UNL     1       2.246  12.990  18.894  0.00  0.00    +0.000 HD
ENDBRANCH   7  15
BRANCH  10  26
ATOM     26  C   UNL     1       5.537   6.282  16.929  0.00  0.00    +0.000 C 
ATOM     27  C   UNL     1       5.248   6.127  15.450  0.00  0.00    +0.000 C 
ATOM     28  C   UNL     1       6.475   5.433  14.902  0.00  0.00    +0.000 C 
ATOM     29  O   UNL     1       7.574   5.756  15.752  0.00  0.00    +0.000 OA
ATOM     30  C   UNL     1       7.065   6.274  16.990  0.00  0.00    +0.000 C 
ENDBRANCH  10  26
TORSDOF 2
ENDMDL
MODEL 2
REMARK VINA RESULT:      -8.3      2.213      4.798
REMARK  Name = 
REMARK  3 active torsions:
REMARK  status: ('A' for Active; 'I' for Inactive)
REMARK    1  A    between atoms: C_1  and  N_2
REMARK    2  A    between atoms: C_7  and  C_8
REMARK    3  A    between atoms: N_20  and  C_21
REMARK                            x       y       z     vdW  Elec       q    Type
REMARK                         _______ _______ _______ _____ _____    ______ ____
ROOT
ATOM      1  C   UNL     1       6.300   3.656  15.064  0.00  0.00    +0.000 C 
ATOM      2  N   UNL     1       5.617   4.716  15.760  0.00  0.00    +0.000 N 
ATOM      3  C   UNL     1       5.787   6.029  15.369  0.00  0.00    +0.000 A 
ATOM      4  N   UNL     1       5.152   7.028  15.874  0.00  0.00    +0.000 NA
ATOM      5  C   UNL     1       4.217   6.768  16.889  0.00  0.00    +0.000 A 
ATOM      6  C   UNL     1       3.512   7.835  17.417  0.00  0.00    +0.000 A 
ATOM      7  C   UNL     1       2.563   7.609  18.414  0.00  0.00    +0.000 A 
ATOM      8  N   UNL     1       2.346   6.367  18.912  0.00  0.00    +0.000 NA
ATOM      9  C   UNL     1       3.035   5.314  18.406  0.00  0.00    +0.000 A 
ATOM     10  N   UNL     1       2.848   4.055  19.004  0.00  0.00    +0.000 N 
ATOM     11  C   UNL     1       3.975   5.496  17.397  0.00  0.00    +0.000 A 
ATOM     12  C   UNL     1       4.682   4.373  16.737  0.00  0.00    +0.000 A 
ATOM     13  O   UNL     1       4.412   3.205  17.011  0.00  0.00    +0.000 OA
ATOM     14  H   UNL     1       3.004   3.311  18.315  0.00  0.00    +0.000 HD
ENDROOT
BRANCH   7  15
ATOM     15  C   UNL     1       1.878   8.733  19.099  0.00  0.00    +0.000 A 
ATOM     16  C   UNL     1       1.365   8.569  20.415  0.00  0.00    +0.000 A 
ATOM     17  C   UNL     1       0.323   9.365  20.889  0.00  0.00    +0.000 A 
ATOM     18  C   UNL     1      -0.149  10.324  20.028  0.00  0.00    +0.000 A 
ATOM     19  C   UNL     1       0.515  10.687  18.859  0.00  0.00    +0.000 A 
ATOM     20  C   UNL     1       1.533   9.892  18.373  0.00  0.00    +0.000 A 
ATOM     21  C   UNL     1      -0.305  11.721  18.151  0.00  0.00    +0.000 C 
ATOM     22  C   UNL     1      -1.684  11.369  18.706  0.00  0.00    +0.000 C 
ATOM     23  O   UNL     1      -2.761  11.510  18.156  0.00  0.00    +0.000 OA
ATOM     24  N   UNL     1      -1.462  10.788  19.960  0.00  0.00    +0.000 N 
ATOM     25  H   UNL     1      -2.221  10.364  20.476  0.00  0.00    +0.000 HD
ENDBRANCH   7  15
BRANCH  10  26
ATOM     26  C   UNL     1       1.626   3.897  19.798  0.00  0.00    +0.000 C 
ATOM     27  C   UNL     1       1.860   4.382  21.214  0.00  0.00    +0.000 C 
ATOM     28  C   UNL     1       2.200   3.127  21.986  0.00  0.00    +0.000 C 
ATOM     29  O   UNL     1       1.589   2.025  21.317  0.00  0.00    +0.000 OA
ATOM     30  C   UNL     1       1.222   2.434  19.991  0.00  0.00    +0.000 C 
ENDBRANCH  10  26
TORSDOF 2
ENDMDL
MODEL 3
REMARK VINA RESULT:      -8.0      1.934      2.302
REMARK  Name = 
REMARK  3 active torsions:
REMARK  status: ('A' for Active; 'I' for Inactive)
REMARK    1  A    between atoms: C_1  and  N_2
REMARK    2  A    between atoms: C_7  and  C_8
REMARK    3  A    between atoms: N_20  and  C_21
REMARK                            x       y       z     vdW  Elec       q    Type
REMARK                         _______ _______ _______ _____ _____    ______ ____
ROOT
ATOM      1  C   UNL     1       4.241   1.427  20.955  0.00  0.00    +0.000 C 
ATOM      2  N   UNL     1       3.585   2.688  20.719  0.00  0.00    +0.000 N 
ATOM      3  C   UNL     1       2.604   3.133  21.582  0.00  0.00    +0.000 A 
ATOM      4  N   UNL     1       2.029   4.282  21.500  0.00  0.00    +0.000 NA
ATOM      5  C   UNL     1       2.429   5.146  20.468  0.00  0.00    +0.000 A 
ATOM      6  C   UNL     1       1.832   6.392  20.392  0.00  0.00    +0.000 A 
ATOM      7  C   UNL     1       2.220   7.282  19.389  0.00  0.00    +0.000 A 
ATOM      8  N   UNL     1       3.139   6.934  18.455  0.00  0.00    +0.000 NA
ATOM      9  C   UNL     1       3.726   5.713  18.517  0.00  0.00    +0.000 A 
ATOM     10  N   UNL     1       4.610   5.353  17.484  0.00  0.00    +0.000 N 
ATOM     11  C   UNL     1       3.381   4.806  19.514  0.00  0.00    +0.000 A 
ATOM     12  C   UNL     1       4.061   3.501  19.691  0.00  0.00    +0.000 A 
ATOM     13  O   UNL     1       5.024   3.187  18.993  0.00  0.00    +0.000 OA
ATOM     14  H   UNL     1       5.313   4.695  17.835  0.00  0.00    +0.000 HD
ENDROOT
BRANCH   7  15
ATOM     15  C   UNL     1       1.519   8.574  19.189  0.00  0.00    +0.000 A 
ATOM     16  C   UNL     1       1.330   9.467  20.280  0.00  0.00    +0.000 A 
ATOM     17  C   UNL     1       0.295  10.401  20.279  0.00  0.00    +0.000 A 
ATOM     18  C   UNL     1      -0.501  10.425  19.160  0.00  0.00    +0.000 A 
ATOM     19  C   UNL     1      -0.168   9.767  17.979  0.00  0.00    +0.000 A 
ATOM     20  C   UNL     1       0.842   8.826  17.978  0.00  0.00    +0.000 A 
ATOM     21  C   UNL     1      -1.279   9.971  16.995  0.00  0.00    +0.000 C 
ATOM     22  C   UNL     1      -2.432  10.215  17.968  0.00  0.00    +0.000 C 
ATOM     23  O   UNL     1      -3.609   9.952  17.800  0.00  0.00    +0.000 OA
ATOM     24  N   UNL     1      -1.857  10.747  19.128  0.00  0.00    +0.000 N 
ATOM     25  H   UNL     1      -2.409  10.884  19.963  0.00  0.00    +0.000 HD
ENDBRANCH   7  15
BRANCH  10  26
ATOM     26  C   UNL     1       5.160   6.461  16.697  0.00  0.00    +0.000 C 
ATOM     27  C   UNL     1       5.392   6.016  15.266  0.00  0.00    +0.000 C 
ATOM     28  C   UNL     1       6.851   5.623  15.231  0.00  0.00    +0.000 C 
ATOM     29  O   UNL     1       7.527   6.361  16.247  0.00  0.00    +0.000 OA
ATOM     30  C   UNL     1       6.554   6.890  17.160  0.00  0.00    +0.000 C 
ENDBRANCH  10  26
TORSDOF 2
ENDMDL
MODEL 4
REMARK VINA RESULT:      -8.0      1.613      4.270
REMARK  Name = 
REMARK  3 active torsions:
REMARK  status: ('A' for Active; 'I' for Inactive)
REMARK    1  A    between atoms: C_1  and  N_2
REMARK    2  A    between atoms: C_7  and  C_8
REMARK    3  A    between atoms: N_20  and  C_21
REMARK                            x       y       z     vdW  Elec       q    Type
REMARK                         _______ _______ _______ _____ _____    ______ ____
ROOT
ATOM      1  C   UNL     1       7.461   4.392  17.156  0.00  0.00    +0.000 C 
ATOM      2  N   UNL     1       6.409   5.341  17.412  0.00  0.00    +0.000 N 
ATOM      3  C   UNL     1       6.289   6.474  16.632  0.00  0.00    +0.000 A 
ATOM      4  N   UNL     1       5.331   7.328  16.730  0.00  0.00    +0.000 NA
ATOM      5  C   UNL     1       4.336   7.093  17.692  0.00  0.00    +0.000 A 
ATOM      6  C   UNL     1       3.291   7.995  17.785  0.00  0.00    +0.000 A 
ATOM      7  C   UNL     1       2.276   7.781  18.718  0.00  0.00    +0.000 A 
ATOM      8  N   UNL     1       2.314   6.729  19.573  0.00  0.00    +0.000 NA
ATOM      9  C   UNL     1       3.337   5.842  19.495  0.00  0.00    +0.000 A 
ATOM     10  N   UNL     1       3.391   4.812  20.451  0.00  0.00    +0.000 N 
ATOM     11  C   UNL     1       4.357   6.009  18.564  0.00  0.00    +0.000 A 
ATOM     12  C   UNL     1       5.443   5.020  18.365  0.00  0.00    +0.000 A 
ATOM     13  O   UNL     1       5.450   3.955  18.980  0.00  0.00    +0.000 OA
ATOM     14  H   UNL     1       3.858   3.989  20.056  0.00  0.00    +0.000 HD
ENDROOT
BRANCH   7  15
ATOM     15  C   UNL     1       1.207   8.785  18.941  0.00  0.00    +0.000 A 
ATOM     16  C   UNL     1       0.707   9.559  17.857  0.00  0.00    +0.000 A 
ATOM     17  C   UNL     1       0.111  10.801  18.070  0.00  0.00    +0.000 A 
ATOM     18  C   UNL     1       0.009  11.210  19.377  0.00  0.00    +0.000 A 
ATOM     19  C   UNL     1       0.229  10.360  20.457  0.00  0.00    +0.000 A 
ATOM     20  C   UNL     1       0.838   9.138  20.256  0.00  0.00    +0.000 A 
ATOM     21  C   UNL     1       0.077  11.151  21.720  0.00  0.00    +0.000 C 
ATOM     22  C   UNL     1       0.405  12.543  21.182  0.00  0.00    +0.000 C 
ATOM     23  O   UNL     1       0.915  13.469  21.788  0.00  0.00    +0.000 OA
ATOM     24  N   UNL     1       0.058  12.529  19.826  0.00  0.00    +0.000 N 
ATOM     25  H   UNL     1       0.291  13.306  19.225  0.00  0.00    +0.000 HD
ENDBRANCH   7  15
BRANCH  10  26
ATOM     26  C   UNL     1       2.136   4.518  21.148  0.00  0.00    +0.000 C 
ATOM     27  C   UNL     1       2.260   3.218  21.917  0.00  0.00    +0.000 C 
ATOM     28  C   UNL     1       1.673   2.179  20.989  0.00  0.00    +0.000 C 
ATOM     29  O   UNL     1       0.736   2.835  20.136  0.00  0.00    +0.000 OA
ATOM     30  C   UNL     1       0.970   4.250  20.194  0.00  0.00    +0.000 C 
ENDBRANCH  10  26
TORSDOF 2
ENDMDL
MODEL 5
REMARK VINA RESULT:      -8.0      2.419      4.857
REMARK  Name = 
REMARK  3 active torsions:
REMARK  status: ('A' for Active; 'I' for Inactive)
REMARK    1  A    between atoms: C_1  and  N_2
REMARK    2  A    between atoms: C_7  and  C_8
REMARK    3  A    between atoms: N_20  and  C_21
REMARK                            x       y       z     vdW  Elec       q    Type
REMARK                         _______ _______ _______ _____ _____    ______ ____
ROOT
ATOM      1  C   UNL     1       6.821   3.959  16.246  0.00  0.00    +0.000 C 
ATOM      2  N   UNL     1       5.942   5.025  16.651  0.00  0.00    +0.000 N 
ATOM      3  C   UNL     1       5.866   6.185  15.906  0.00  0.00    +0.000 A 
ATOM      4  N   UNL     1       5.048   7.150  16.143  0.00  0.00    +0.000 NA
ATOM      5  C   UNL     1       4.167   7.015  17.228  0.00  0.00    +0.000 A 
ATOM      6  C   UNL     1       3.268   8.038  17.470  0.00  0.00    +0.000 A 
ATOM      7  C   UNL     1       2.367   7.927  18.530  0.00  0.00    +0.000 A 
ATOM      8  N   UNL     1       2.383   6.856  19.361  0.00  0.00    +0.000 NA
ATOM      9  C   UNL     1       3.264   5.850  19.136  0.00  0.00    +0.000 A 
ATOM     10  N   UNL     1       3.312   4.795  20.065  0.00  0.00    +0.000 N 
ATOM     11  C   UNL     1       4.165   5.913  18.077  0.00  0.00    +0.000 A 
ATOM     12  C   UNL     1       5.078   4.802  17.723  0.00  0.00    +0.000 A 
ATOM     13  O   UNL     1       5.031   3.727  18.320  0.00  0.00    +0.000 OA
ATOM     14  H   UNL     1       3.613   3.931  19.602  0.00  0.00    +0.000 HD
ENDROOT
BRANCH   7  15
ATOM     15  C   UNL     1       1.475   9.051  18.906  0.00  0.00    +0.000 A 
ATOM     16  C   UNL     1       1.072   9.230  20.259  0.00  0.00    +0.000 A 
ATOM     17  C   UNL     1      -0.101   9.910  20.581  0.00  0.00    +0.000 A 
ATOM     18  C   UNL     1      -0.820  10.415  19.525  0.00  0.00    +0.000 A 
ATOM     19  C   UNL     1      -0.310  10.499  18.232  0.00  0.00    +0.000 A 
ATOM     20  C   UNL     1       0.840   9.811  17.902  0.00  0.00    +0.000 A 
ATOM     21  C   UNL     1      -1.377  11.053  17.338  0.00  0.00    +0.000 C 
ATOM     22  C   UNL     1      -2.612  10.632  18.134  0.00  0.00    +0.000 C 
ATOM     23  O   UNL     1      -3.716  10.363  17.697  0.00  0.00    +0.000 OA
ATOM     24  N   UNL     1      -2.206  10.555  19.471  0.00  0.00    +0.000 N 
ATOM     25  H   UNL     1      -2.823  10.181  20.178  0.00  0.00    +0.000 HD
ENDBRANCH   7  15
BRANCH  10  26
ATOM     26  C   UNL     1       2.133   4.642  20.922  0.00  0.00    +0.000 C 
ATOM     27  C   UNL     1       2.338   3.491  21.886  0.00  0.00    +0.000 C 
ATOM     28  C   UNL     1       1.665   2.317  21.213  0.00  0.00    +0.000 C 
ATOM     29  O   UNL     1       0.646   2.831  20.357  0.00  0.00    +0.000 OA
ATOM     30  C   UNL     1       0.879   4.231  20.148  0.00  0.00    +0.000 C 
ENDBRANCH  10  26
TORSDOF 2
ENDMDL
MODEL 6
REMARK VINA RESULT:      -7.9      3.511      8.869
REMARK  Name = 
REMARK  3 active torsions:
REMARK  status: ('A' for Active; 'I' for Inactive)
REMARK    1  A    between atoms: C_1  and  N_2
REMARK    2  A    between atoms: C_7  and  C_8
REMARK    3  A    between atoms: N_20  and  C_21
REMARK                            x       y       z     vdW  Elec       q    Type
REMARK                         _______ _______ _______ _____ _____    ______ ____
ROOT
ATOM      1  C   UNL     1      -2.673  15.187  22.226  0.00  0.00    +0.000 C 
ATOM      2  N   UNL     1      -1.769  14.143  21.815  0.00  0.00    +0.000 N 
ATOM      3  C   UNL     1      -0.598  13.923  22.512  0.00  0.00    +0.000 A 
ATOM      4  N   UNL     1       0.223  12.961  22.271  0.00  0.00    +0.000 NA
ATOM      5  C   UNL     1      -0.094  12.070  21.234  0.00  0.00    +0.000 A 
ATOM      6  C   UNL     1       0.772  11.019  20.987  0.00  0.00    +0.000 A 
ATOM      7  C   UNL     1       0.477  10.105  19.975  0.00  0.00    +0.000 A 
ATOM      8  N   UNL     1      -0.621  10.250  19.192  0.00  0.00    +0.000 NA
ATOM      9  C   UNL     1      -1.473  11.279  19.420  0.00  0.00    +0.000 A 
ATOM     10  N   UNL     1      -2.553  11.449  18.537  0.00  0.00    +0.000 N 
ATOM     11  C   UNL     1      -1.225  12.200  20.434  0.00  0.00    +0.000 A 
ATOM     12  C   UNL     1      -2.170  13.282  20.794  0.00  0.00    +0.000 A 
ATOM     13  O   UNL     1      -3.268  13.374  20.247  0.00  0.00    +0.000 OA
ATOM     14  H   UNL     1      -3.340  11.894  19.022  0.00  0.00    +0.000 HD
ENDROOT
BRANCH   7  15
ATOM     15  C   UNL     1       1.436   9.041  19.591  0.00  0.00    +0.000 A 
ATOM     16  C   UNL     1       1.945   8.974  18.264  0.00  0.00    +0.000 A 
ATOM     17  C   UNL     1       2.415   7.776  17.730  0.00  0.00    +0.000 A 
ATOM     18  C   UNL     1       2.387   6.685  18.564  0.00  0.00    +0.000 A 
ATOM     19  C   UNL     1       2.164   6.785  19.935  0.00  0.00    +0.000 A 
ATOM     20  C   UNL     1       1.677   7.962  20.467  0.00  0.00    +0.000 A 
ATOM     21  C   UNL     1       2.155   5.404  20.514  0.00  0.00    +0.000 C 
ATOM     22  C   UNL     1       1.749   4.615  19.271  0.00  0.00    +0.000 C 
ATOM     23  O   UNL     1       1.118   3.573  19.229  0.00  0.00    +0.000 OA
ATOM     24  N   UNL     1       2.193   5.361  18.173  0.00  0.00    +0.000 N 
ATOM     25  H   UNL     1       1.938   5.098  17.232  0.00  0.00    +0.000 HD
ENDBRANCH   7  15
BRANCH  10  26
ATOM     26  C   UNL     1      -2.921  10.275  17.740  0.00  0.00    +0.000 C 
ATOM     27  C   UNL     1      -2.125  10.251  16.451  0.00  0.00    +0.000 C 
ATOM     28  C   UNL     1      -3.044  10.891  15.435  0.00  0.00    +0.000 C 
ATOM     29  O   UNL     1      -4.387  10.685  15.870  0.00  0.00    +0.000 OA
ATOM     30  C   UNL     1      -4.372  10.310  17.256  0.00  0.00    +0.000 C 
ENDBRANCH  10  26
TORSDOF 2
ENDMDL
MODEL 7
REMARK VINA RESULT:      -7.9      1.170      1.252
REMARK  Name = 
REMARK  3 active torsions:
REMARK  status: ('A' for Active; 'I' for Inactive)
REMARK    1  A    between atoms: C_1  and  N_2
REMARK    2  A    between atoms: C_7  and  C_8
REMARK    3  A    between atoms: N_20  and  C_21
REMARK                            x       y       z     vdW  Elec       q    Type
REMARK                         _______ _______ _______ _____ _____    ______ ____
ROOT
ATOM      1  C   UNL     1       3.677   1.911  21.024  0.00  0.00    +0.000 C 
ATOM      2  N   UNL     1       3.168   3.197  20.621  0.00  0.00    +0.000 N 
ATOM      3  C   UNL     1       2.251   3.861  21.411  0.00  0.00    +0.000 A 
ATOM      4  N   UNL     1       1.811   5.047  21.175  0.00  0.00    +0.000 NA
ATOM      5  C   UNL     1       2.299   5.717  20.043  0.00  0.00    +0.000 A 
ATOM      6  C   UNL     1       1.849   7.003  19.799  0.00  0.00    +0.000 A 
ATOM      7  C   UNL     1       2.328   7.703  18.692  0.00  0.00    +0.000 A 
ATOM      8  N   UNL     1       3.194   7.134  17.818  0.00  0.00    +0.000 NA
ATOM      9  C   UNL     1       3.638   5.872  18.043  0.00  0.00    +0.000 A 
ATOM     10  N   UNL     1       4.467   5.282  17.073  0.00  0.00    +0.000 N 
ATOM     11  C   UNL     1       3.199   5.148  19.148  0.00  0.00    +0.000 A 
ATOM     12  C   UNL     1       3.726   3.809  19.499  0.00  0.00    +0.000 A 
ATOM     13  O   UNL     1       4.641   3.298  18.855  0.00  0.00    +0.000 OA
ATOM     14  H   UNL     1       5.092   4.598  17.513  0.00  0.00    +0.000 HD
ENDROOT
BRANCH   7  15
ATOM     15  C   UNL     1       1.779   9.030  18.320  0.00  0.00    +0.000 A 
ATOM     16  C   UNL     1       2.651  10.110  18.010  0.00  0.00    +0.000 A 
ATOM     17  C   UNL     1       2.240  11.435  18.149  0.00  0.00    +0.000 A 
ATOM     18  C   UNL     1       0.947  11.629  18.568  0.00  0.00    +0.000 A 
ATOM     19  C   UNL     1      -0.000  10.609  18.604  0.00  0.00    +0.000 A 
ATOM     20  C   UNL     1       0.403   9.294  18.488  0.00  0.00    +0.000 A 
ATOM     21  C   UNL     1      -1.277  11.167  19.153  0.00  0.00    +0.000 C 
ATOM     22  C   UNL     1      -0.710  12.329  19.967  0.00  0.00    +0.000 C 
ATOM     23  O   UNL     1      -1.173  12.814  20.984  0.00  0.00    +0.000 OA
ATOM     24  N   UNL     1       0.490  12.693  19.345  0.00  0.00    +0.000 N 
ATOM     25  H   UNL     1       1.109  13.367  19.771  0.00  0.00    +0.000 HD
ENDBRANCH   7  15
BRANCH  10  26
ATOM     26  C   UNL     1       5.134   6.206  16.152  0.00  0.00    +0.000 C 
ATOM     27  C   UNL     1       5.519   5.482  14.877  0.00  0.00    +0.000 C 
ATOM     28  C   UNL     1       6.961   5.085  15.095  0.00  0.00    +0.000 C 
ATOM     29  O   UNL     1       7.534   6.011  16.017  0.00  0.00    +0.000 OA
ATOM     30  C   UNL     1       6.475   6.716  16.683  0.00  0.00    +0.000 C 
ENDBRANCH  10  26
TORSDOF 2
ENDMDL
MODEL 8
REMARK VINA RESULT:      -7.7      3.374      9.058
REMARK  Name = 
REMARK  3 active torsions:
REMARK  status: ('A' for Active; 'I' for Inactive)
REMARK    1  A    between atoms: C_1  and  N_2
REMARK    2  A    between atoms: C_7  and  C_8
REMARK    3  A    between atoms: N_20  and  C_21
REMARK                            x       y       z     vdW  Elec       q    Type
REMARK                         _______ _______ _______ _____ _____    ______ ____
ROOT
ATOM      1  C   UNL     1      -5.383  12.266  17.074  0.00  0.00    +0.000 C 
ATOM      2  N   UNL     1      -4.175  11.502  17.252  0.00  0.00    +0.000 N 
ATOM      3  C   UNL     1      -3.721  10.675  16.244  0.00  0.00    +0.000 A 
ATOM      4  N   UNL     1      -2.610  10.026  16.280  0.00  0.00    +0.000 NA
ATOM      5  C   UNL     1      -1.800  10.170  17.417  0.00  0.00    +0.000 A 
ATOM      6  C   UNL     1      -0.593   9.494  17.450  0.00  0.00    +0.000 A 
ATOM      7  C   UNL     1       0.244   9.630  18.558  0.00  0.00    +0.000 A 
ATOM      8  N   UNL     1      -0.121  10.376  19.630  0.00  0.00    +0.000 NA
ATOM      9  C   UNL     1      -1.304  11.038  19.611  0.00  0.00    +0.000 A 
ATOM     10  N   UNL     1      -1.690  11.732  20.772  0.00  0.00    +0.000 N 
ATOM     11  C   UNL     1      -2.157  10.944  18.516  0.00  0.00    +0.000 A 
ATOM     12  C   UNL     1      -3.412  11.724  18.398  0.00  0.00    +0.000 A 
ATOM     13  O   UNL     1      -3.725  12.555  19.248  0.00  0.00    +0.000 OA
ATOM     14  H   UNL     1      -2.288  12.527  20.525  0.00  0.00    +0.000 HD
ENDROOT
BRANCH   7  15
ATOM     15  C   UNL     1       1.484   8.827  18.693  0.00  0.00    +0.000 A 
ATOM     16  C   UNL     1       2.453   8.815  17.652  0.00  0.00    +0.000 A 
ATOM     17  C   UNL     1       3.336   7.749  17.498  0.00  0.00    +0.000 A 
ATOM     18  C   UNL     1       3.235   6.737  18.421  0.00  0.00    +0.000 A 
ATOM     19  C   UNL     1       2.499   6.855  19.598  0.00  0.00    +0.000 A 
ATOM     20  C   UNL     1       1.607   7.898  19.747  0.00  0.00    +0.000 A 
ATOM     21  C   UNL     1       2.573   5.553  20.335  0.00  0.00    +0.000 C 
ATOM     22  C   UNL     1       2.843   4.616  19.158  0.00  0.00    +0.000 C 
ATOM     23  O   UNL     1       2.516   3.448  19.054  0.00  0.00    +0.000 OA
ATOM     24  N   UNL     1       3.493   5.387  18.187  0.00  0.00    +0.000 N 
ATOM     25  H   UNL     1       3.672   5.014  17.265  0.00  0.00    +0.000 HD
ENDBRANCH   7  15
BRANCH  10  26
ATOM     26  C   UNL     1      -0.614  12.055  21.713  0.00  0.00    +0.000 C 
ATOM     27  C   UNL     1      -1.166  12.153  23.121  0.00  0.00    +0.000 C 
ATOM     28  C   UNL     1      -1.416  13.631  23.320  0.00  0.00    +0.000 C 
ATOM     29  O   UNL     1      -0.523  14.343  22.467  0.00  0.00    +0.000 OA
ATOM     30  C   UNL     1      -0.008  13.439  21.478  0.00  0.00    +0.000 C 
ENDBRANCH  10  26
TORSDOF 2
ENDMDL
MODEL 9
REMARK VINA RESULT:      -7.6      1.786      4.411
REMARK  Name = 
REMARK  3 active torsions:
REMARK  status: ('A' for Active; 'I' for Inactive)
REMARK    1  A    between atoms: C_1  and  N_2
REMARK    2  A    between atoms: C_7  and  C_8
REMARK    3  A    between atoms: N_20  and  C_21
REMARK                            x       y       z     vdW  Elec       q    Type
REMARK                         _______ _______ _______ _____ _____    ______ ____
ROOT
ATOM      1  C   UNL     1       7.230   4.377  16.832  0.00  0.00    +0.000 C 
ATOM      2  N   UNL     1       6.219   5.363  17.113  0.00  0.00    +0.000 N 
ATOM      3  C   UNL     1       6.116   6.496  16.330  0.00  0.00    +0.000 A 
ATOM      4  N   UNL     1       5.192   7.384  16.452  0.00  0.00    +0.000 NA
ATOM      5  C   UNL     1       4.218   7.187  17.443  0.00  0.00    +0.000 A 
ATOM      6  C   UNL     1       3.208   8.126  17.561  0.00  0.00    +0.000 A 
ATOM      7  C   UNL     1       2.213   7.951  18.524  0.00  0.00    +0.000 A 
ATOM      8  N   UNL     1       2.239   6.902  19.382  0.00  0.00    +0.000 NA
ATOM      9  C   UNL     1       3.228   5.979  19.280  0.00  0.00    +0.000 A 
ATOM     10  N   UNL     1       3.274   4.952  20.239  0.00  0.00    +0.000 N 
ATOM     11  C   UNL     1       4.226   6.107  18.319  0.00  0.00    +0.000 A 
ATOM     12  C   UNL     1       5.270   5.080  18.095  0.00  0.00    +0.000 A 
ATOM     13  O   UNL     1       5.259   4.018  18.715  0.00  0.00    +0.000 OA
ATOM     14  H   UNL     1       3.700   4.112  19.836  0.00  0.00    +0.000 HD
ENDROOT
BRANCH   7  15
ATOM     15  C   UNL     1       1.187   8.993  18.772  0.00  0.00    +0.000 A 
ATOM     16  C   UNL     1       0.057   9.110  17.915  0.00  0.00    +0.000 A 
ATOM     17  C   UNL     1      -0.633  10.315  17.789  0.00  0.00    +0.000 A 
ATOM     18  C   UNL     1      -0.179  11.358  18.558  0.00  0.00    +0.000 A 
ATOM     19  C   UNL     1       0.731  11.194  19.599  0.00  0.00    +0.000 A 
ATOM     20  C   UNL     1       1.433  10.011  19.716  0.00  0.00    +0.000 A 
ATOM     21  C   UNL     1       1.033  12.541  20.181  0.00  0.00    +0.000 C 
ATOM     22  C   UNL     1       0.720  13.413  18.966  0.00  0.00    +0.000 C 
ATOM     23  O   UNL     1       1.227  14.481  18.672  0.00  0.00    +0.000 OA
ATOM     24  N   UNL     1      -0.229  12.709  18.215  0.00  0.00    +0.000 N 
ATOM     25  H   UNL     1      -0.508  13.033  17.299  0.00  0.00    +0.000 HD
ENDBRANCH   7  15
BRANCH  10  26
ATOM     26  C   UNL     1       2.029   4.705  20.974  0.00  0.00    +0.000 C 
ATOM     27  C   UNL     1       2.225   3.574  21.963  0.00  0.00    +0.000 C 
ATOM     28  C   UNL     1       1.720   2.350  21.233  0.00  0.00    +0.000 C 
ATOM     29  O   UNL     1       0.756   2.781  20.274  0.00  0.00    +0.000 OA
ATOM     30  C   UNL     1       0.897   4.196  20.079  0.00  0.00    +0.000 C 
ENDBRANCH  10  26
TORSDOF 2
ENDMDL
