MODEL 1
REMARK VINA RESULT:      -7.0      0.000      0.000
REMARK  Name = 
REMARK  8 active torsions:
REMARK  status: ('A' for Active; 'I' for Inactive)
REMARK    1  A    between atoms: N_1  and  CA_2
REMARK    2  A    between atoms: CA_2  and  C_3
REMARK    3  A    between atoms: CA_2  and  C_21
REMARK    4  A    between atoms: C_3  and  C_4
REMARK    5  A    between atoms: C_8  and  O_9
REMARK    6  A    between atoms: O_9  and  C_10
REMARK    7  A    between atoms: C_13  and  O_14
REMARK    8  A    between atoms: C_21  and  OXT_23
REMARK                            x       y       z     vdW  Elec       q    Type
REMARK                         _______ _______ _______ _____ _____    ______ ____
ROOT
ATOM      1  C   UNL     1       1.613   7.843  20.837  0.00  0.00    +0.000 A 
ATOM      2  C   UNL     1       1.492   6.483  21.124  0.00  0.00    +0.000 A 
ATOM      3  C   UNL     1       1.911   5.503  20.210  0.00  0.00    +0.000 A 
ATOM      4 CL   UNL     1       1.935   3.885  20.827  0.00  0.00    +0.000 Cl
ATOM      5  C   UNL     1       2.353   5.867  18.931  0.00  0.00    +0.000 A 
ATOM      6  C   UNL     1       2.498   7.240  18.655  0.00  0.00    +0.000 A 
ATOM      7 CL   UNL     1       3.170   7.790  17.156  0.00  0.00    +0.000 Cl
ATOM      8  C   UNL     1       2.148   8.217  19.601  0.00  0.00    +0.000 A 
ENDROOT
BRANCH   1   9
ATOM      9  C   UNL     1       1.197   8.881  21.858  0.00  0.00    +0.000 C 
BRANCH   9  10
ATOM     10  CA  UNL     1      -0.269   9.339  21.738  0.00  0.00    +0.000 C 
BRANCH  10  11
ATOM     11  N   UNL     1      -0.532  10.279  20.603  0.00  0.00    +0.000 NA
ATOM     12  H1  UNL     1       0.295  10.283  19.998  0.00  0.00    +0.000 HD
ATOM     13  H2  UNL     1      -0.584  11.231  20.976  0.00  0.00    +0.000 HD
ENDBRANCH  10  11
BRANCH  10  14
ATOM     14  C   UNL     1      -0.706  10.051  23.031  0.00  0.00    +0.000 C 
ATOM     15  O   UNL     1      -1.617  10.858  23.127  0.00  0.00    +0.000 OA
BRANCH  14  16
ATOM     16  OXT UNL     1       0.069   9.672  24.082  0.00  0.00    +0.000 OA
ATOM     17  HXT UNL     1       0.942   9.403  23.702  0.00  0.00    +0.000 HD
ENDBRANCH  14  16
ENDBRANCH  10  14
ENDBRANCH   9  10
ENDBRANCH   1   9
BRANCH   5  18
ATOM     18  O   UNL     1       2.776   5.014  17.933  0.00  0.00    +0.000 OA
BRANCH  18  19
ATOM     19  C   UNL     1       4.105   4.733  17.727  0.00  0.00    +0.000 A 
ATOM     20  C   UNL     1       5.099   4.752  18.711  0.00  0.00    +0.000 A 
ATOM     21  C   UNL     1       6.442   4.601  18.349  0.00  0.00    +0.000 A 
ATOM     22  C   UNL     1       6.779   4.350  17.018  0.00  0.00    +0.000 A 
ATOM     23  C   UNL     1       5.777   4.201  16.057  0.00  0.00    +0.000 A 
ATOM     24 CL   UNL     1       6.149   3.815  14.418  0.00  0.00    +0.000 Cl
ATOM     25  C   UNL     1       4.442   4.392  16.414  0.00  0.00    +0.000 A 
BRANCH  22  26
ATOM     26  O   UNL     1       8.094   4.261  16.655  0.00  0.00    +0.000 OA
ATOM     27  H   UNL     1       8.170   4.365  15.694  0.00  0.00    +0.000 HD
ENDBRANCH  22  26
ENDBRANCH  18  19
ENDBRANCH   5  18
TORSDOF 8
ENDMDL
MODEL 2
REMARK VINA RESULT:      -6.8      1.595      2.575
REMARK  Name = 
REMARK  8 active torsions:
REMARK  status: ('A' for Active; 'I' for Inactive)
REMARK    1  A    between atoms: N_1  and  CA_2
REMARK    2  A    between atoms: CA_2  and  C_3
REMARK    3  A    between atoms: CA_2  and  C_21
REMARK    4  A    between atoms: C_3  and  C_4
REMARK    5  A    between atoms: C_8  and  O_9
REMARK    6  A    between atoms: O_9  and  C_10
REMARK    7  A    between atoms: C_13  and  O_14
REMARK    8  A    between atoms: C_21  and  OXT_23
REMARK                            x       y       z     vdW  Elec       q    Type
REMARK                         _______ _______ _______ _____ _____    ______ ____
ROOT
ATOM      1  C   UNL     1       1.657   6.807  20.528  0.00  0.00    +0.000 A 
ATOM      2  C   UNL     1       2.422   7.213  19.435  0.00  0.00    +0.000 A 
ATOM      3  C   UNL     1       3.181   6.294  18.692  0.00  0.00    +0.000 A 
ATOM      4 CL   UNL     1       3.854   6.914  17.222  0.00  0.00    +0.000 Cl
ATOM      5  C   UNL     1       3.284   4.959  19.107  0.00  0.00    +0.000 A 
ATOM      6  C   UNL     1       2.490   4.548  20.195  0.00  0.00    +0.000 A 
ATOM      7 CL   UNL     1       2.439   2.891  20.696  0.00  0.00    +0.000 Cl
ATOM      8  C   UNL     1       1.674   5.457  20.888  0.00  0.00    +0.000 A 
ENDROOT
BRANCH   1   9
ATOM      9  C   UNL     1       0.810   7.809  21.284  0.00  0.00    +0.000 C 
BRANCH   9  10
ATOM     10  CA  UNL     1       1.501   9.163  21.537  0.00  0.00    +0.000 C 
BRANCH  10  11
ATOM     11  N   UNL     1       1.939   9.378  22.952  0.00  0.00    +0.000 NA
ATOM     12  H1  UNL     1       2.893   9.018  23.046  0.00  0.00    +0.000 HD
ATOM     13  H2  UNL     1       1.376   8.777  23.561  0.00  0.00    +0.000 HD
ENDBRANCH  10  11
BRANCH  10  14
ATOM     14  C   UNL     1       0.547  10.316  21.174  0.00  0.00    +0.000 C 
ATOM     15  O   UNL     1      -0.604  10.193  20.785  0.00  0.00    +0.000 OA
BRANCH  14  16
ATOM     16  OXT UNL     1       1.156  11.521  21.334  0.00  0.00    +0.000 OA
ATOM     17  HXT UNL     1       1.012  11.783  22.277  0.00  0.00    +0.000 HD
ENDBRANCH  14  16
ENDBRANCH  10  14
ENDBRANCH   9  10
ENDBRANCH   1   9
BRANCH   5  18
ATOM     18  O   UNL     1       4.004   3.958  18.487  0.00  0.00    +0.000 OA
BRANCH  18  19
ATOM     19  C   UNL     1       5.056   4.230  17.646  0.00  0.00    +0.000 A 
ATOM     20  C   UNL     1       6.307   4.711  18.044  0.00  0.00    +0.000 A 
ATOM     21  C   UNL     1       7.244   5.097  17.079  0.00  0.00    +0.000 A 
ATOM     22  C   UNL     1       6.959   4.923  15.724  0.00  0.00    +0.000 A 
ATOM     23  C   UNL     1       5.763   4.320  15.331  0.00  0.00    +0.000 A 
ATOM     24 CL   UNL     1       5.406   4.017  13.671  0.00  0.00    +0.000 Cl
ATOM     25  C   UNL     1       4.813   3.973  16.293  0.00  0.00    +0.000 A 
BRANCH  22  26
ATOM     26  O   UNL     1       7.851   5.353  14.781  0.00  0.00    +0.000 OA
ATOM     27  H   UNL     1       8.588   5.808  15.219  0.00  0.00    +0.000 HD
ENDBRANCH  22  26
ENDBRANCH  18  19
ENDBRANCH   5  18
TORSDOF 8
ENDMDL
MODEL 3
REMARK VINA RESULT:      -6.8      0.781      2.065
REMARK  Name = 
REMARK  8 active torsions:
REMARK  status: ('A' for Active; 'I' for Inactive)
REMARK    1  A    between atoms: N_1  and  CA_2
REMARK    2  A    between atoms: CA_2  and  C_3
REMARK    3  A    between atoms: CA_2  and  C_21
REMARK    4  A    between atoms: C_3  and  C_4
REMARK    5  A    between atoms: C_8  and  O_9
REMARK    6  A    between atoms: O_9  and  C_10
REMARK    7  A    between atoms: C_13  and  O_14
REMARK    8  A    between atoms: C_21  and  OXT_23
REMARK                            x       y       z     vdW  Elec       q    Type
REMARK                         _______ _______ _______ _____ _____    ______ ____
ROOT
ATOM      1  C   UNL     1       1.352   8.090  21.084  0.00  0.00    +0.000 A 
ATOM      2  C   UNL     1       1.887   8.533  19.874  0.00  0.00    +0.000 A 
ATOM      3  C   UNL     1       2.318   7.629  18.890  0.00  0.00    +0.000 A 
ATOM      4 CL   UNL     1       2.703   8.338  17.358  0.00  0.00    +0.000 Cl
ATOM      5  C   UNL     1       2.335   6.251  19.150  0.00  0.00    +0.000 A 
ATOM      6  C   UNL     1       1.771   5.807  20.361  0.00  0.00    +0.000 A 
ATOM      7 CL   UNL     1       1.616   4.118  20.714  0.00  0.00    +0.000 Cl
ATOM      8  C   UNL     1       1.271   6.713  21.311  0.00  0.00    +0.000 A 
ENDROOT
BRANCH   1   9
ATOM      9  C   UNL     1       0.851   9.084  22.110  0.00  0.00    +0.000 C 
BRANCH   9  10
ATOM     10  CA  UNL     1       0.208  10.349  21.508  0.00  0.00    +0.000 C 
BRANCH  10  11
ATOM     11  N   UNL     1       1.160  11.483  21.294  0.00  0.00    +0.000 NA
ATOM     12  H1  UNL     1       0.975  12.192  22.011  0.00  0.00    +0.000 HD
ATOM     13  H2  UNL     1       0.924  11.943  20.410  0.00  0.00    +0.000 HD
ENDBRANCH  10  11
BRANCH  10  14
ATOM     14  C   UNL     1      -0.911  10.860  22.433  0.00  0.00    +0.000 C 
ATOM     15  O   UNL     1      -1.482  11.935  22.333  0.00  0.00    +0.000 OA
BRANCH  14  16
ATOM     16  OXT UNL     1      -1.194   9.952  23.405  0.00  0.00    +0.000 OA
ATOM     17  HXT UNL     1      -2.156  10.055  23.611  0.00  0.00    +0.000 HD
ENDBRANCH  14  16
ENDBRANCH  10  14
ENDBRANCH   9  10
ENDBRANCH   1   9
BRANCH   5  18
ATOM     18  O   UNL     1       2.746   5.256  18.287  0.00  0.00    +0.000 OA
BRANCH  18  19
ATOM     19  C   UNL     1       4.075   4.981  18.071  0.00  0.00    +0.000 A 
ATOM     20  C   UNL     1       5.097   5.135  19.013  0.00  0.00    +0.000 A 
ATOM     21  C   UNL     1       6.431   4.970  18.626  0.00  0.00    +0.000 A 
ATOM     22  C   UNL     1       6.734   4.572  17.324  0.00  0.00    +0.000 A 
ATOM     23  C   UNL     1       5.707   4.290  16.420  0.00  0.00    +0.000 A 
ATOM     24 CL   UNL     1       6.037   3.723  14.825  0.00  0.00    +0.000 Cl
ATOM     25  C   UNL     1       4.379   4.495  16.796  0.00  0.00    +0.000 A 
BRANCH  22  26
ATOM     26  O   UNL     1       8.039   4.467  16.930  0.00  0.00    +0.000 OA
ATOM     27  H   UNL     1       8.356   5.335  16.633  0.00  0.00    +0.000 HD
ENDBRANCH  22  26
ENDBRANCH  18  19
ENDBRANCH   5  18
TORSDOF 8
ENDMDL
MODEL 4
REMARK VINA RESULT:      -6.8      3.222      4.378
REMARK  Name = 
REMARK  8 active torsions:
REMARK  status: ('A' for Active; 'I' for Inactive)
REMARK    1  A    between atoms: N_1  and  CA_2
REMARK    2  A    between atoms: CA_2  and  C_3
REMARK    3  A    between atoms: CA_2  and  C_21
REMARK    4  A    between atoms: C_3  and  C_4
REMARK    5  A    between atoms: C_8  and  O_9
REMARK    6  A    between atoms: O_9  and  C_10
REMARK    7  A    between atoms: C_13  and  O_14
REMARK    8  A    between atoms: C_21  and  OXT_23
REMARK                            x       y       z     vdW  Elec       q    Type
REMARK                         _______ _______ _______ _____ _____    ______ ____
ROOT
ATOM      1  C   UNL     1       0.317  10.346  18.819  0.00  0.00    +0.000 A 
ATOM      2  C   UNL     1       0.186   9.853  20.118  0.00  0.00    +0.000 A 
ATOM      3  C   UNL     1       0.973   8.784  20.576  0.00  0.00    +0.000 A 
ATOM      4 CL   UNL     1       0.872   8.474  22.277  0.00  0.00    +0.000 Cl
ATOM      5  C   UNL     1       1.829   8.104  19.699  0.00  0.00    +0.000 A 
ATOM      6  C   UNL     1       1.977   8.621  18.397  0.00  0.00    +0.000 A 
ATOM      7 CL   UNL     1       3.114   7.939  17.283  0.00  0.00    +0.000 Cl
ATOM      8  C   UNL     1       1.242   9.738  17.967  0.00  0.00    +0.000 A 
ENDROOT
BRANCH   1   9
ATOM      9  C   UNL     1      -0.510  11.530  18.364  0.00  0.00    +0.000 C 
BRANCH   9  10
ATOM     10  CA  UNL     1      -1.908  11.162  17.831  0.00  0.00    +0.000 C 
BRANCH  10  11
ATOM     11  N   UNL     1      -2.148  11.553  16.406  0.00  0.00    +0.000 NA
ATOM     12  H1  UNL     1      -1.251  11.519  15.913  0.00  0.00    +0.000 HD
ATOM     13  H2  UNL     1      -2.419  12.540  16.382  0.00  0.00    +0.000 HD
ENDBRANCH  10  11
BRANCH  10  14
ATOM     14  C   UNL     1      -2.993  11.847  18.682  0.00  0.00    +0.000 C 
ATOM     15  O   UNL     1      -2.881  12.168  19.855  0.00  0.00    +0.000 OA
BRANCH  14  16
ATOM     16  OXT UNL     1      -4.124  12.054  17.956  0.00  0.00    +0.000 OA
ATOM     17  HXT UNL     1      -4.017  11.534  17.121  0.00  0.00    +0.000 HD
ENDBRANCH  14  16
ENDBRANCH  10  14
ENDBRANCH   9  10
ENDBRANCH   1   9
BRANCH   5  18
ATOM     18  O   UNL     1       2.642   7.033  20.007  0.00  0.00    +0.000 OA
BRANCH  18  19
ATOM     19  C   UNL     1       2.246   5.734  19.802  0.00  0.00    +0.000 A 
ATOM     20  C   UNL     1       1.222   5.080  20.494  0.00  0.00    +0.000 A 
ATOM     21  C   UNL     1       1.016   3.709  20.303  0.00  0.00    +0.000 A 
ATOM     22  C   UNL     1       1.779   3.016  19.363  0.00  0.00    +0.000 A 
ATOM     23  C   UNL     1       2.713   3.696  18.578  0.00  0.00    +0.000 A 
ATOM     24 CL   UNL     1       3.621   2.891  17.353  0.00  0.00    +0.000 Cl
ATOM     25  C   UNL     1       2.944   5.055  18.798  0.00  0.00    +0.000 A 
BRANCH  22  26
ATOM     26  O   UNL     1       1.619   1.665  19.218  0.00  0.00    +0.000 OA
ATOM     27  H   UNL     1       0.932   1.493  18.555  0.00  0.00    +0.000 HD
ENDBRANCH  22  26
ENDBRANCH  18  19
ENDBRANCH   5  18
TORSDOF 8
ENDMDL
MODEL 5
REMARK VINA RESULT:      -6.8      1.197      1.553
REMARK  Name = 
REMARK  8 active torsions:
REMARK  status: ('A' for Active; 'I' for Inactive)
REMARK    1  A    between atoms: N_1  and  CA_2
REMARK    2  A    between atoms: CA_2  and  C_3
REMARK    3  A    between atoms: CA_2  and  C_21
REMARK    4  A    between atoms: C_3  and  C_4
REMARK    5  A    between atoms: C_8  and  O_9
REMARK    6  A    between atoms: O_9  and  C_10
REMARK    7  A    between atoms: C_13  and  O_14
REMARK    8  A    between atoms: C_21  and  OXT_23
REMARK                            x       y       z     vdW  Elec       q    Type
REMARK                         _______ _______ _______ _____ _____    ______ ____
ROOT
ATOM      1  C   UNL     1       1.616   7.826  20.802  0.00  0.00    +0.000 A 
ATOM      2  C   UNL     1       1.552   6.463  21.094  0.00  0.00    +0.000 A 
ATOM      3  C   UNL     1       1.970   5.495  20.166  0.00  0.00    +0.000 A 
ATOM      4 CL   UNL     1       2.072   3.881  20.783  0.00  0.00    +0.000 Cl
ATOM      5  C   UNL     1       2.351   5.872  18.871  0.00  0.00    +0.000 A 
ATOM      6  C   UNL     1       2.438   7.248  18.588  0.00  0.00    +0.000 A 
ATOM      7 CL   UNL     1       3.033   7.817  17.064  0.00  0.00    +0.000 Cl
ATOM      8  C   UNL     1       2.091   8.215  19.547  0.00  0.00    +0.000 A 
ENDROOT
BRANCH   1   9
ATOM      9  C   UNL     1       1.204   8.851  21.837  0.00  0.00    +0.000 C 
BRANCH   9  10
ATOM     10  CA  UNL     1      -0.275   9.275  21.758  0.00  0.00    +0.000 C 
BRANCH  10  11
ATOM     11  N   UNL     1      -0.593  10.198  20.624  0.00  0.00    +0.000 NA
ATOM     12  H1  UNL     1      -1.302  10.864  20.947  0.00  0.00    +0.000 HD
ATOM     13  H2  UNL     1      -1.061   9.660  19.889  0.00  0.00    +0.000 HD
ENDBRANCH  10  11
BRANCH  10  14
ATOM     14  C   UNL     1      -0.688   9.989  23.058  0.00  0.00    +0.000 C 
ATOM     15  O   UNL     1      -1.608  10.783  23.173  0.00  0.00    +0.000 OA
BRANCH  14  16
ATOM     16  OXT UNL     1       0.120   9.628  24.091  0.00  0.00    +0.000 OA
ATOM     17  HXT UNL     1       0.464   8.726  23.873  0.00  0.00    +0.000 HD
ENDBRANCH  14  16
ENDBRANCH  10  14
ENDBRANCH   9  10
ENDBRANCH   1   9
BRANCH   5  18
ATOM     18  O   UNL     1       2.764   5.031  17.858  0.00  0.00    +0.000 OA
BRANCH  18  19
ATOM     19  C   UNL     1       4.091   4.866  17.543  0.00  0.00    +0.000 A 
ATOM     20  C   UNL     1       4.579   4.337  16.344  0.00  0.00    +0.000 A 
ATOM     21  C   UNL     1       5.947   4.076  16.204  0.00  0.00    +0.000 A 
ATOM     22  C   UNL     1       6.829   4.420  17.227  0.00  0.00    +0.000 A 
ATOM     23  C   UNL     1       6.359   5.069  18.370  0.00  0.00    +0.000 A 
ATOM     24 CL   UNL     1       7.427   5.580  19.624  0.00  0.00    +0.000 Cl
ATOM     25  C   UNL     1       4.990   5.292  18.526  0.00  0.00    +0.000 A 
BRANCH  22  26
ATOM     26  O   UNL     1       8.157   4.111  17.114  0.00  0.00    +0.000 OA
ATOM     27  H   UNL     1       8.403   3.486  17.815  0.00  0.00    +0.000 HD
ENDBRANCH  22  26
ENDBRANCH  18  19
ENDBRANCH   5  18
TORSDOF 8
ENDMDL
MODEL 6
REMARK VINA RESULT:      -6.7      1.421      2.665
REMARK  Name = 
REMARK  8 active torsions:
REMARK  status: ('A' for Active; 'I' for Inactive)
REMARK    1  A    between atoms: N_1  and  CA_2
REMARK    2  A    between atoms: CA_2  and  C_3
REMARK    3  A    between atoms: CA_2  and  C_21
REMARK    4  A    between atoms: C_3  and  C_4
REMARK    5  A    between atoms: C_8  and  O_9
REMARK    6  A    between atoms: O_9  and  C_10
REMARK    7  A    between atoms: C_13  and  O_14
REMARK    8  A    between atoms: C_21  and  OXT_23
REMARK                            x       y       z     vdW  Elec       q    Type
REMARK                         _______ _______ _______ _____ _____    ______ ____
ROOT
ATOM      1  C   UNL     1       1.405   7.997  20.988  0.00  0.00    +0.000 A 
ATOM      2  C   UNL     1       1.937   8.402  19.763  0.00  0.00    +0.000 A 
ATOM      3  C   UNL     1       2.345   7.467  18.798  0.00  0.00    +0.000 A 
ATOM      4 CL   UNL     1       2.730   8.133  17.246  0.00  0.00    +0.000 Cl
ATOM      5  C   UNL     1       2.339   6.096  19.090  0.00  0.00    +0.000 A 
ATOM      6  C   UNL     1       1.777   5.691  20.316  0.00  0.00    +0.000 A 
ATOM      7 CL   UNL     1       1.594   4.014  20.710  0.00  0.00    +0.000 Cl
ATOM      8  C   UNL     1       1.301   6.628  21.247  0.00  0.00    +0.000 A 
ENDROOT
BRANCH   1   9
ATOM      9  C   UNL     1       0.929   9.024  21.993  0.00  0.00    +0.000 C 
BRANCH   9  10
ATOM     10  CA  UNL     1       0.357  10.310  21.367  0.00  0.00    +0.000 C 
BRANCH  10  11
ATOM     11  N   UNL     1       1.354  11.414  21.202  0.00  0.00    +0.000 NA
ATOM     12  H1  UNL     1       2.150  11.044  20.673  0.00  0.00    +0.000 HD
ATOM     13  H2  UNL     1       1.740  11.643  22.122  0.00  0.00    +0.000 HD
ENDBRANCH  10  11
BRANCH  10  14
ATOM     14  C   UNL     1      -0.789  10.855  22.239  0.00  0.00    +0.000 C 
ATOM     15  O   UNL     1      -0.959  10.612  23.424  0.00  0.00    +0.000 OA
BRANCH  14  16
ATOM     16  OXT UNL     1      -1.615  11.655  21.515  0.00  0.00    +0.000 OA
ATOM     17  HXT UNL     1      -2.537  11.432  21.798  0.00  0.00    +0.000 HD
ENDBRANCH  14  16
ENDBRANCH  10  14
ENDBRANCH   9  10
ENDBRANCH   1   9
BRANCH   5  18
ATOM     18  O   UNL     1       2.726   5.074  18.247  0.00  0.00    +0.000 OA
BRANCH  18  19
ATOM     19  C   UNL     1       4.029   4.915  17.845  0.00  0.00    +0.000 A 
ATOM     20  C   UNL     1       4.439   4.369  16.624  0.00  0.00    +0.000 A 
ATOM     21  C   UNL     1       5.796   4.117  16.394  0.00  0.00    +0.000 A 
ATOM     22  C   UNL     1       6.743   4.484  17.350  0.00  0.00    +0.000 A 
ATOM     23  C   UNL     1       6.346   5.148  18.512  0.00  0.00    +0.000 A 
ATOM     24 CL   UNL     1       7.493   5.688  19.681  0.00  0.00    +0.000 Cl
ATOM     25  C   UNL     1       4.989   5.363  18.757  0.00  0.00    +0.000 A 
BRANCH  22  26
ATOM     26  O   UNL     1       8.063   4.184  17.150  0.00  0.00    +0.000 OA
ATOM     27  H   UNL     1       8.159   3.696  16.317  0.00  0.00    +0.000 HD
ENDBRANCH  22  26
ENDBRANCH  18  19
ENDBRANCH   5  18
TORSDOF 8
ENDMDL
MODEL 7
REMARK VINA RESULT:      -6.7      3.967      8.183
REMARK  Name = 
REMARK  8 active torsions:
REMARK  status: ('A' for Active; 'I' for Inactive)
REMARK    1  A    between atoms: N_1  and  CA_2
REMARK    2  A    between atoms: CA_2  and  C_3
REMARK    3  A    between atoms: CA_2  and  C_21
REMARK    4  A    between atoms: C_3  and  C_4
REMARK    5  A    between atoms: C_8  and  O_9
REMARK    6  A    between atoms: O_9  and  C_10
REMARK    7  A    between atoms: C_13  and  O_14
REMARK    8  A    between atoms: C_21  and  OXT_23
REMARK                            x       y       z     vdW  Elec       q    Type
REMARK                         _______ _______ _______ _____ _____    ______ ____
ROOT
ATOM      1  C   UNL     1       1.947   6.353  20.259  0.00  0.00    +0.000 A 
ATOM      2  C   UNL     1       1.189   6.985  21.245  0.00  0.00    +0.000 A 
ATOM      3  C   UNL     1       0.734   8.303  21.085  0.00  0.00    +0.000 A 
ATOM      4 CL   UNL     1      -0.407   8.837  22.274  0.00  0.00    +0.000 Cl
ATOM      5  C   UNL     1       1.134   9.064  19.977  0.00  0.00    +0.000 A 
ATOM      6  C   UNL     1       1.878   8.415  18.973  0.00  0.00    +0.000 A 
ATOM      7 CL   UNL     1       2.301   9.227  17.502  0.00  0.00    +0.000 Cl
ATOM      8  C   UNL     1       2.267   7.072  19.104  0.00  0.00    +0.000 A 
ENDROOT
BRANCH   1   9
ATOM      9  C   UNL     1       2.387   4.915  20.434  0.00  0.00    +0.000 C 
BRANCH   9  10
ATOM     10  CA  UNL     1       1.295   3.874  20.124  0.00  0.00    +0.000 C 
BRANCH  10  11
ATOM     11  N   UNL     1       1.043   2.895  21.228  0.00  0.00    +0.000 NA
ATOM     12  H1  UNL     1       1.260   3.357  22.116  0.00  0.00    +0.000 HD
ATOM     13  H2  UNL     1       1.731   2.140  21.155  0.00  0.00    +0.000 HD
ENDBRANCH  10  11
BRANCH  10  14
ATOM     14  C   UNL     1       1.681   3.063  18.874  0.00  0.00    +0.000 C 
ATOM     15  O   UNL     1       2.334   2.031  18.868  0.00  0.00    +0.000 OA
BRANCH  14  16
ATOM     16  OXT UNL     1       1.204   3.651  17.744  0.00  0.00    +0.000 OA
ATOM     17  HXT UNL     1       1.849   4.362  17.506  0.00  0.00    +0.000 HD
ENDBRANCH  14  16
ENDBRANCH  10  14
ENDBRANCH   9  10
ENDBRANCH   1   9
BRANCH   5  18
ATOM     18  O   UNL     1       0.779  10.369  19.704  0.00  0.00    +0.000 OA
BRANCH  18  19
ATOM     19  C   UNL     1      -0.483  10.709  19.283  0.00  0.00    +0.000 A 
ATOM     20  C   UNL     1      -1.133  10.182  18.163  0.00  0.00    +0.000 A 
ATOM     21  C   UNL     1      -2.356  10.721  17.748  0.00  0.00    +0.000 A 
ATOM     22  C   UNL     1      -2.962  11.728  18.500  0.00  0.00    +0.000 A 
ATOM     23  C   UNL     1      -2.377  12.163  19.691  0.00  0.00    +0.000 A 
ATOM     24 CL   UNL     1      -3.133  13.350  20.688  0.00  0.00    +0.000 Cl
ATOM     25  C   UNL     1      -1.139  11.652  20.081  0.00  0.00    +0.000 A 
BRANCH  22  26
ATOM     26  O   UNL     1      -4.127  12.295  18.063  0.00  0.00    +0.000 OA
ATOM     27  H   UNL     1      -4.488  11.766  17.333  0.00  0.00    +0.000 HD
ENDBRANCH  22  26
ENDBRANCH  18  19
ENDBRANCH   5  18
TORSDOF 8
ENDMDL
MODEL 8
REMARK VINA RESULT:      -6.7      1.748      2.892
REMARK  Name = 
REMARK  8 active torsions:
REMARK  status: ('A' for Active; 'I' for Inactive)
REMARK    1  A    between atoms: N_1  and  CA_2
REMARK    2  A    between atoms: CA_2  and  C_3
REMARK    3  A    between atoms: CA_2  and  C_21
REMARK    4  A    between atoms: C_3  and  C_4
REMARK    5  A    between atoms: C_8  and  O_9
REMARK    6  A    between atoms: O_9  and  C_10
REMARK    7  A    between atoms: C_13  and  O_14
REMARK    8  A    between atoms: C_21  and  OXT_23
REMARK                            x       y       z     vdW  Elec       q    Type
REMARK                         _______ _______ _______ _____ _____    ______ ____
ROOT
ATOM      1  C   UNL     1       1.373   8.118  20.708  0.00  0.00    +0.000 A 
ATOM      2  C   UNL     1       2.016   8.351  19.492  0.00  0.00    +0.000 A 
ATOM      3  C   UNL     1       2.494   7.292  18.704  0.00  0.00    +0.000 A 
ATOM      4 CL   UNL     1       3.024   7.739  17.116  0.00  0.00    +0.000 Cl
ATOM      5  C   UNL     1       2.444   5.974  19.178  0.00  0.00    +0.000 A 
ATOM      6  C   UNL     1       1.771   5.741  20.393  0.00  0.00    +0.000 A 
ATOM      7 CL   UNL     1       1.531   4.134  20.994  0.00  0.00    +0.000 Cl
ATOM      8  C   UNL     1       1.228   6.798  21.142  0.00  0.00    +0.000 A 
ENDROOT
BRANCH   1   9
ATOM      9  C   UNL     1       0.825   9.274  21.518  0.00  0.00    +0.000 C 
BRANCH   9  10
ATOM     10  CA  UNL     1       0.704  10.597  20.737  0.00  0.00    +0.000 C 
BRANCH  10  11
ATOM     11  N   UNL     1       0.956  11.823  21.558  0.00  0.00    +0.000 NA
ATOM     12  H1  UNL     1       0.386  12.583  21.174  0.00  0.00    +0.000 HD
ATOM     13  H2  UNL     1       1.923  12.124  21.404  0.00  0.00    +0.000 HD
ENDBRANCH  10  11
BRANCH  10  14
ATOM     14  C   UNL     1      -0.709  10.729  20.141  0.00  0.00    +0.000 C 
ATOM     15  O   UNL     1      -1.142  10.098  19.189  0.00  0.00    +0.000 OA
BRANCH  14  16
ATOM     16  OXT UNL     1      -1.437  11.660  20.813  0.00  0.00    +0.000 OA
ATOM     17  HXT UNL     1      -2.366  11.321  20.841  0.00  0.00    +0.000 HD
ENDBRANCH  14  16
ENDBRANCH  10  14
ENDBRANCH   9  10
ENDBRANCH   1   9
BRANCH   5  18
ATOM     18  O   UNL     1       2.889   4.845  18.521  0.00  0.00    +0.000 OA
BRANCH  18  19
ATOM     19  C   UNL     1       4.164   4.750  18.017  0.00  0.00    +0.000 A 
ATOM     20  C   UNL     1       4.501   4.250  16.756  0.00  0.00    +0.000 A 
ATOM     21  C   UNL     1       5.845   4.060  16.418  0.00  0.00    +0.000 A 
ATOM     22  C   UNL     1       6.847   4.445  17.308  0.00  0.00    +0.000 A 
ATOM     23  C   UNL     1       6.513   5.065  18.514  0.00  0.00    +0.000 A 
ATOM     24 CL   UNL     1       7.724   5.625  19.607  0.00  0.00    +0.000 Cl
ATOM     25  C   UNL     1       5.172   5.218  18.866  0.00  0.00    +0.000 A 
BRANCH  22  26
ATOM     26  O   UNL     1       8.158   4.205  17.003  0.00  0.00    +0.000 OA
ATOM     27  H   UNL     1       8.273   4.228  16.039  0.00  0.00    +0.000 HD
ENDBRANCH  22  26
ENDBRANCH  18  19
ENDBRANCH   5  18
TORSDOF 8
ENDMDL
MODEL 9
REMARK VINA RESULT:      -6.7      3.868      7.964
REMARK  Name = 
REMARK  8 active torsions:
REMARK  status: ('A' for Active; 'I' for Inactive)
REMARK    1  A    between atoms: N_1  and  CA_2
REMARK    2  A    between atoms: CA_2  and  C_3
REMARK    3  A    between atoms: CA_2  and  C_21
REMARK    4  A    between atoms: C_3  and  C_4
REMARK    5  A    between atoms: C_8  and  O_9
REMARK    6  A    between atoms: O_9  and  C_10
REMARK    7  A    between atoms: C_13  and  O_14
REMARK    8  A    between atoms: C_21  and  OXT_23
REMARK                            x       y       z     vdW  Elec       q    Type
REMARK                         _______ _______ _______ _____ _____    ______ ____
ROOT
ATOM      1  C   UNL     1       2.175   5.106  19.905  0.00  0.00    +0.000 A 
ATOM      2  C   UNL     1       2.679   5.632  18.715  0.00  0.00    +0.000 A 
ATOM      3  C   UNL     1       2.662   7.013  18.461  0.00  0.00    +0.000 A 
ATOM      4 CL   UNL     1       3.559   7.515  17.067  0.00  0.00    +0.000 Cl
ATOM      5  C   UNL     1       2.025   7.891  19.350  0.00  0.00    +0.000 A 
ATOM      6  C   UNL     1       1.541   7.359  20.560  0.00  0.00    +0.000 A 
ATOM      7 CL   UNL     1       0.866   8.382  21.785  0.00  0.00    +0.000 Cl
ATOM      8  C   UNL     1       1.629   5.986  20.843  0.00  0.00    +0.000 A 
ENDROOT
BRANCH   1   9
ATOM      9  C   UNL     1       2.247   3.618  20.175  0.00  0.00    +0.000 C 
BRANCH   9  10
ATOM     10  CA  UNL     1       2.670   2.770  18.960  0.00  0.00    +0.000 C 
BRANCH  10  11
ATOM     11  N   UNL     1       1.683   1.714  18.571  0.00  0.00    +0.000 NA
ATOM     12  H1  UNL     1       1.728   0.966  19.270  0.00  0.00    +0.000 HD
ATOM     13  H2  UNL     1       2.003   1.275  17.702  0.00  0.00    +0.000 HD
ENDBRANCH  10  11
BRANCH  10  14
ATOM     14  C   UNL     1       4.006   2.062  19.252  0.00  0.00    +0.000 C 
ATOM     15  O   UNL     1       4.874   2.465  20.010  0.00  0.00    +0.000 OA
BRANCH  14  16
ATOM     16  OXT UNL     1       4.111   0.908  18.541  0.00  0.00    +0.000 OA
ATOM     17  HXT UNL     1       4.680   1.114  17.758  0.00  0.00    +0.000 HD
ENDBRANCH  14  16
ENDBRANCH  10  14
ENDBRANCH   9  10
ENDBRANCH   1   9
BRANCH   5  18
ATOM     18  O   UNL     1       1.919   9.260  19.218  0.00  0.00    +0.000 OA
BRANCH  18  19
ATOM     19  C   UNL     1       0.745   9.867  18.842  0.00  0.00    +0.000 A 
ATOM     20  C   UNL     1      -0.162   9.366  17.904  0.00  0.00    +0.000 A 
ATOM     21  C   UNL     1      -1.244  10.151  17.491  0.00  0.00    +0.000 A 
ATOM     22  C   UNL     1      -1.460  11.399  18.076  0.00  0.00    +0.000 A 
ATOM     23  C   UNL     1      -0.629  11.844  19.106  0.00  0.00    +0.000 A 
ATOM     24 CL   UNL     1      -0.908  13.346  19.907  0.00  0.00    +0.000 Cl
ATOM     25  C   UNL     1       0.472  11.077  19.488  0.00  0.00    +0.000 A 
BRANCH  22  26
ATOM     26  O   UNL     1      -2.482  12.191  17.631  0.00  0.00    +0.000 OA
ATOM     27  H   UNL     1      -2.563  12.100  16.668  0.00  0.00    +0.000 HD
ENDBRANCH  22  26
ENDBRANCH  18  19
ENDBRANCH   5  18
TORSDOF 8
ENDMDL
