MODEL 1
REMARK VINA RESULT:      -7.2      0.000      0.000
REMARK  Name = 
REMARK  9 active torsions:
REMARK  status: ('A' for Active; 'I' for Inactive)
REMARK    1  A    between atoms: C_1  and  C_2
REMARK    2  A    between atoms: N_4  and  C_5
REMARK    3  A    between atoms: C_8  and  O_9
REMARK    4  A    between atoms: O_9  and  C_10
REMARK    5  A    between atoms: C_10  and  C_11
REMARK    6  A    between atoms: C_11  and  O_12
REMARK    7  A    between atoms: O_12  and  C_13
REMARK    8  A    between atoms: C_16  and  N_17
REMARK    9  A    between atoms: C_18  and  C_19
REMARK                            x       y       z     vdW  Elec       q    Type
REMARK                         _______ _______ _______ _____ _____    ______ ____
ROOT
ATOM      1  C   UNL     1       7.799   7.523  17.555  0.00  0.00    +0.000 C 
ENDROOT
BRANCH   1   2
ATOM      2  O   UNL     1       6.705   7.263  16.679  0.00  0.00    +0.000 OA
BRANCH   2   6
ATOM      3  C   UNL     1       3.946   4.391  17.936  0.00  0.00    +0.000 A 
ATOM      4  C   UNL     1       4.131   5.598  18.608  0.00  0.00    +0.000 A 
ATOM      5  C   UNL     1       5.066   6.530  18.152  0.00  0.00    +0.000 A 
ATOM      6  C   UNL     1       5.850   6.258  17.035  0.00  0.00    +0.000 A 
ATOM      7  C   UNL     1       5.680   5.048  16.364  0.00  0.00    +0.000 A 
ATOM      8  C   UNL     1       4.735   4.117  16.816  0.00  0.00    +0.000 A 
BRANCH   3  12
ATOM      9  C   UNL     1       0.933   2.274  18.725  0.00  0.00    +0.000 C 
ATOM     10  C   UNL     1       1.661   3.406  18.048  0.00  0.00    +0.000 C 
ATOM     11  O   UNL     1       1.054   4.195  17.334  0.00  0.00    +0.000 OA
ATOM     12  N   UNL     1       3.012   3.415  18.339  0.00  0.00    +0.000 N 
ATOM     13  H   UNL     1       3.383   2.612  18.827  0.00  0.00    +0.000 HD
ENDBRANCH   3  12
ENDBRANCH   2   6
ENDBRANCH   1   2
BRANCH   1  14
ATOM     14  C   UNL     1       7.943   9.017  17.826  0.00  0.00    +0.000 C 
BRANCH  14  15
ATOM     15  O   UNL     1       8.794   9.186  18.955  0.00  0.00    +0.000 OA
BRANCH  15  16
ATOM     16  C   UNL     1       9.392  10.406  19.087  0.00  0.00    +0.000 A 
ATOM     17  C   UNL     1       9.525  10.849  20.398  0.00  0.00    +0.000 A 
ATOM     18  C   UNL     1      10.166  12.058  20.680  0.00  0.00    +0.000 A 
ATOM     19  C   UNL     1      10.708  12.835  19.655  0.00  0.00    +0.000 A 
ATOM     20  C   UNL     1      10.558  12.394  18.336  0.00  0.00    +0.000 A 
ATOM     21  C   UNL     1       9.907  11.185  18.051  0.00  0.00    +0.000 A 
BRANCH  19  22
ATOM     22  N   UNL     1      11.422  14.031  19.877  0.00  0.00    +0.000 N 
ATOM     23  C   UNL     1      10.905  15.318  19.861  0.00  0.00    +0.000 C 
ATOM     24  C   UNL     1      11.922  16.368  20.222  0.00  0.00    +0.000 C 
ATOM     25  O   UNL     1       9.759  15.647  19.581  0.00  0.00    +0.000 OA
ATOM     26  H   UNL     1      12.401  13.930  20.108  0.00  0.00    +0.000 HD
ENDBRANCH  19  22
ENDBRANCH  15  16
ENDBRANCH  14  15
ENDBRANCH   1  14
TORSDOF 7
ENDMDL
MODEL 2
REMARK VINA RESULT:      -7.1      1.452      1.529
REMARK  Name = 
REMARK  9 active torsions:
REMARK  status: ('A' for Active; 'I' for Inactive)
REMARK    1  A    between atoms: C_1  and  C_2
REMARK    2  A    between atoms: N_4  and  C_5
REMARK    3  A    between atoms: C_8  and  O_9
REMARK    4  A    between atoms: O_9  and  C_10
REMARK    5  A    between atoms: C_10  and  C_11
REMARK    6  A    between atoms: C_11  and  O_12
REMARK    7  A    between atoms: O_12  and  C_13
REMARK    8  A    between atoms: C_16  and  N_17
REMARK    9  A    between atoms: C_18  and  C_19
REMARK                            x       y       z     vdW  Elec       q    Type
REMARK                         _______ _______ _______ _____ _____    ______ ____
ROOT
ATOM      1  C   UNL     1       7.805   7.558  17.482  0.00  0.00    +0.000 C 
ENDROOT
BRANCH   1   2
ATOM      2  O   UNL     1       6.577   7.274  16.817  0.00  0.00    +0.000 OA
BRANCH   2   6
ATOM      3  C   UNL     1       3.803   5.333  19.262  0.00  0.00    +0.000 A 
ATOM      4  C   UNL     1       5.178   5.137  19.384  0.00  0.00    +0.000 A 
ATOM      5  C   UNL     1       6.070   5.807  18.544  0.00  0.00    +0.000 A 
ATOM      6  C   UNL     1       5.600   6.662  17.551  0.00  0.00    +0.000 A 
ATOM      7  C   UNL     1       4.226   6.854  17.413  0.00  0.00    +0.000 A 
ATOM      8  C   UNL     1       3.332   6.188  18.263  0.00  0.00    +0.000 A 
BRANCH   3  12
ATOM      9  C   UNL     1       1.575   2.983  21.184  0.00  0.00    +0.000 C 
ATOM     10  C   UNL     1       2.776   3.342  20.349  0.00  0.00    +0.000 C 
ATOM     11  O   UNL     1       3.556   2.472  19.980  0.00  0.00    +0.000 OA
ATOM     12  N   UNL     1       2.853   4.696  20.085  0.00  0.00    +0.000 N 
ATOM     13  H   UNL     1       2.212   5.299  20.583  0.00  0.00    +0.000 HD
ENDBRANCH   3  12
ENDBRANCH   2   6
ENDBRANCH   1   2
BRANCH   1  14
ATOM     14  C   UNL     1       7.950   9.051  17.756  0.00  0.00    +0.000 C 
BRANCH  14  15
ATOM     15  O   UNL     1       8.774   9.217  18.905  0.00  0.00    +0.000 OA
BRANCH  15  16
ATOM     16  C   UNL     1       9.391  10.427  19.041  0.00  0.00    +0.000 A 
ATOM     17  C   UNL     1       9.533  10.862  20.354  0.00  0.00    +0.000 A 
ATOM     18  C   UNL     1      10.193  12.060  20.639  0.00  0.00    +0.000 A 
ATOM     19  C   UNL     1      10.745  12.833  19.616  0.00  0.00    +0.000 A 
ATOM     20  C   UNL     1      10.586  12.399  18.296  0.00  0.00    +0.000 A 
ATOM     21  C   UNL     1       9.915  11.202  18.007  0.00  0.00    +0.000 A 
BRANCH  19  22
ATOM     22  N   UNL     1      11.478  14.016  19.841  0.00  0.00    +0.000 N 
ATOM     23  C   UNL     1      10.979  15.311  19.840  0.00  0.00    +0.000 C 
ATOM     24  C   UNL     1      12.014  16.344  20.199  0.00  0.00    +0.000 C 
ATOM     25  O   UNL     1       9.836  15.659  19.571  0.00  0.00    +0.000 OA
ATOM     26  H   UNL     1      12.457  13.900  20.063  0.00  0.00    +0.000 HD
ENDBRANCH  19  22
ENDBRANCH  15  16
ENDBRANCH  14  15
ENDBRANCH   1  14
TORSDOF 7
ENDMDL
MODEL 3
REMARK VINA RESULT:      -7.1      0.763      1.138
REMARK  Name = 
REMARK  9 active torsions:
REMARK  status: ('A' for Active; 'I' for Inactive)
REMARK    1  A    between atoms: C_1  and  C_2
REMARK    2  A    between atoms: N_4  and  C_5
REMARK    3  A    between atoms: C_8  and  O_9
REMARK    4  A    between atoms: O_9  and  C_10
REMARK    5  A    between atoms: C_10  and  C_11
REMARK    6  A    between atoms: C_11  and  O_12
REMARK    7  A    between atoms: O_12  and  C_13
REMARK    8  A    between atoms: C_16  and  N_17
REMARK    9  A    between atoms: C_18  and  C_19
REMARK                            x       y       z     vdW  Elec       q    Type
REMARK                         _______ _______ _______ _____ _____    ______ ____
ROOT
ATOM      1  C   UNL     1       7.801   7.491  17.864  0.00  0.00    +0.000 C 
ENDROOT
BRANCH   1   2
ATOM      2  O   UNL     1       6.926   7.066  16.822  0.00  0.00    +0.000 OA
BRANCH   2   6
ATOM      3  C   UNL     1       4.040   4.280  17.983  0.00  0.00    +0.000 A 
ATOM      4  C   UNL     1       4.421   5.348  18.793  0.00  0.00    +0.000 A 
ATOM      5  C   UNL     1       5.391   6.257  18.365  0.00  0.00    +0.000 A 
ATOM      6  C   UNL     1       6.016   6.095  17.132  0.00  0.00    +0.000 A 
ATOM      7  C   UNL     1       5.652   5.022  16.320  0.00  0.00    +0.000 A 
ATOM      8  C   UNL     1       4.671   4.116  16.747  0.00  0.00    +0.000 A 
BRANCH   3  12
ATOM      9  C   UNL     1       0.930   2.277  18.687  0.00  0.00    +0.000 C 
ATOM     10  C   UNL     1       1.715   3.390  18.044  0.00  0.00    +0.000 C 
ATOM     11  O   UNL     1       1.152   4.218  17.339  0.00  0.00    +0.000 OA
ATOM     12  N   UNL     1       3.061   3.336  18.353  0.00  0.00    +0.000 N 
ATOM     13  H   UNL     1       3.391   2.508  18.829  0.00  0.00    +0.000 HD
ENDBRANCH   3  12
ENDBRANCH   2   6
ENDBRANCH   1   2
BRANCH   1  14
ATOM     14  C   UNL     1       8.052   8.993  17.794  0.00  0.00    +0.000 C 
BRANCH  14  15
ATOM     15  O   UNL     1       8.795   9.376  18.947  0.00  0.00    +0.000 OA
BRANCH  15  16
ATOM     16  C   UNL     1       9.353  10.622  18.924  0.00  0.00    +0.000 A 
ATOM     17  C   UNL     1       8.840  11.470  17.948  0.00  0.00    +0.000 A 
ATOM     18  C   UNL     1       9.286  12.791  17.847  0.00  0.00    +0.000 A 
ATOM     19  C   UNL     1      10.235  13.294  18.738  0.00  0.00    +0.000 A 
ATOM     20  C   UNL     1      10.760  12.433  19.707  0.00  0.00    +0.000 A 
ATOM     21  C   UNL     1      10.321  11.105  19.804  0.00  0.00    +0.000 A 
BRANCH  19  22
ATOM     22  N   UNL     1      10.679  14.633  18.730  0.00  0.00    +0.000 N 
ATOM     23  C   UNL     1       9.977  15.740  19.184  0.00  0.00    +0.000 C 
ATOM     24  C   UNL     1      10.773  17.016  19.111  0.00  0.00    +0.000 C 
ATOM     25  O   UNL     1       8.825  15.760  19.601  0.00  0.00    +0.000 OA
ATOM     26  H   UNL     1      11.620  14.789  18.394  0.00  0.00    +0.000 HD
ENDBRANCH  19  22
ENDBRANCH  15  16
ENDBRANCH  14  15
ENDBRANCH   1  14
TORSDOF 7
ENDMDL
MODEL 4
REMARK VINA RESULT:      -7.0      6.276      7.594
REMARK  Name = 
REMARK  9 active torsions:
REMARK  status: ('A' for Active; 'I' for Inactive)
REMARK    1  A    between atoms: C_1  and  C_2
REMARK    2  A    between atoms: N_4  and  C_5
REMARK    3  A    between atoms: C_8  and  O_9
REMARK    4  A    between atoms: O_9  and  C_10
REMARK    5  A    between atoms: C_10  and  C_11
REMARK    6  A    between atoms: C_11  and  O_12
REMARK    7  A    between atoms: O_12  and  C_13
REMARK    8  A    between atoms: C_16  and  N_17
REMARK    9  A    between atoms: C_18  and  C_19
REMARK                            x       y       z     vdW  Elec       q    Type
REMARK                         _______ _______ _______ _____ _____    ______ ____
ROOT
ATOM      1  C   UNL     1       2.840   3.822  19.149  0.00  0.00    +0.000 C 
ENDROOT
BRANCH   1   2
ATOM      2  O   UNL     1       4.234   3.981  19.402  0.00  0.00    +0.000 OA
BRANCH   2   6
ATOM      3  C   UNL     1       6.396   5.103  16.009  0.00  0.00    +0.000 A 
ATOM      4  C   UNL     1       5.027   4.839  15.974  0.00  0.00    +0.000 A 
ATOM      5  C   UNL     1       4.344   4.466  17.134  0.00  0.00    +0.000 A 
ATOM      6  C   UNL     1       5.023   4.324  18.340  0.00  0.00    +0.000 A 
ATOM      7  C   UNL     1       6.394   4.573  18.382  0.00  0.00    +0.000 A 
ATOM      8  C   UNL     1       7.077   4.956  17.220  0.00  0.00    +0.000 A 
BRANCH   3  12
ATOM      9  C   UNL     1       8.160   5.466  12.703  0.00  0.00    +0.000 C 
ATOM     10  C   UNL     1       7.180   4.840  13.660  0.00  0.00    +0.000 C 
ATOM     11  O   UNL     1       6.527   3.859  13.326  0.00  0.00    +0.000 OA
ATOM     12  N   UNL     1       7.139   5.493  14.878  0.00  0.00    +0.000 N 
ATOM     13  H   UNL     1       7.633   6.372  14.945  0.00  0.00    +0.000 HD
ENDBRANCH   3  12
ENDBRANCH   2   6
ENDBRANCH   1   2
BRANCH   1  14
ATOM     14  C   UNL     1       2.027   4.904  19.851  0.00  0.00    +0.000 C 
BRANCH  14  15
ATOM     15  O   UNL     1       2.825   6.081  19.933  0.00  0.00    +0.000 OA
BRANCH  15  16
ATOM     16  C   UNL     1       2.214   7.253  19.592  0.00  0.00    +0.000 A 
ATOM     17  C   UNL     1       1.558   7.892  20.639  0.00  0.00    +0.000 A 
ATOM     18  C   UNL     1       0.935   9.127  20.440  0.00  0.00    +0.000 A 
ATOM     19  C   UNL     1       0.979   9.758  19.196  0.00  0.00    +0.000 A 
ATOM     20  C   UNL     1       1.626   9.104  18.142  0.00  0.00    +0.000 A 
ATOM     21  C   UNL     1       2.244   7.860  18.337  0.00  0.00    +0.000 A 
BRANCH  19  22
ATOM     22  N   UNL     1       0.427  11.031  18.947  0.00  0.00    +0.000 N 
ATOM     23  C   UNL     1       1.127  12.212  18.749  0.00  0.00    +0.000 C 
ATOM     24  C   UNL     1       0.235  13.380  18.422  0.00  0.00    +0.000 C 
ATOM     25  O   UNL     1       2.339  12.371  18.829  0.00  0.00    +0.000 OA
ATOM     26  H   UNL     1      -0.580  11.073  18.867  0.00  0.00    +0.000 HD
ENDBRANCH  19  22
ENDBRANCH  15  16
ENDBRANCH  14  15
ENDBRANCH   1  14
TORSDOF 7
ENDMDL
MODEL 5
REMARK VINA RESULT:      -6.9      1.778     11.151
REMARK  Name = 
REMARK  9 active torsions:
REMARK  status: ('A' for Active; 'I' for Inactive)
REMARK    1  A    between atoms: C_1  and  C_2
REMARK    2  A    between atoms: N_4  and  C_5
REMARK    3  A    between atoms: C_8  and  O_9
REMARK    4  A    between atoms: O_9  and  C_10
REMARK    5  A    between atoms: C_10  and  C_11
REMARK    6  A    between atoms: C_11  and  O_12
REMARK    7  A    between atoms: O_12  and  C_13
REMARK    8  A    between atoms: C_16  and  N_17
REMARK    9  A    between atoms: C_18  and  C_19
REMARK                            x       y       z     vdW  Elec       q    Type
REMARK                         _______ _______ _______ _____ _____    ______ ____
ROOT
ATOM      1  C   UNL     1       8.909  10.221  18.251  0.00  0.00    +0.000 C 
ENDROOT
BRANCH   1   2
ATOM      2  O   UNL     1      10.081  10.520  19.006  0.00  0.00    +0.000 OA
BRANCH   2   6
ATOM      3  C   UNL     1      11.635  14.305  18.170  0.00  0.00    +0.000 A 
ATOM      4  C   UNL     1      10.862  13.593  17.255  0.00  0.00    +0.000 A 
ATOM      5  C   UNL     1      10.363  12.329  17.576  0.00  0.00    +0.000 A 
ATOM      6  C   UNL     1      10.652  11.746  18.807  0.00  0.00    +0.000 A 
ATOM      7  C   UNL     1      11.435  12.446  19.723  0.00  0.00    +0.000 A 
ATOM      8  C   UNL     1      11.928  13.718  19.403  0.00  0.00    +0.000 A 
BRANCH   3  12
ATOM      9  C   UNL     1      12.326  17.971  17.656  0.00  0.00    +0.000 C 
ATOM     10  C   UNL     1      11.528  16.793  18.151  0.00  0.00    +0.000 C 
ATOM     11  O   UNL     1      10.444  16.964  18.696  0.00  0.00    +0.000 OA
ATOM     12  N   UNL     1      12.159  15.588  17.910  0.00  0.00    +0.000 N 
ATOM     13  H   UNL     1      13.114  15.625  17.581  0.00  0.00    +0.000 HD
ENDBRANCH   3  12
ENDBRANCH   2   6
ENDBRANCH   1   2
BRANCH   1  14
ATOM     14  C   UNL     1       8.403   8.815  18.554  0.00  0.00    +0.000 C 
BRANCH  14  15
ATOM     15  O   UNL     1       7.809   8.289  17.371  0.00  0.00    +0.000 OA
BRANCH  15  16
ATOM     16  C   UNL     1       7.145   7.104  17.501  0.00  0.00    +0.000 A 
ATOM     17  C   UNL     1       5.885   7.076  16.913  0.00  0.00    +0.000 A 
ATOM     18  C   UNL     1       5.118   5.908  16.926  0.00  0.00    +0.000 A 
ATOM     19  C   UNL     1       5.610   4.738  17.507  0.00  0.00    +0.000 A 
ATOM     20  C   UNL     1       6.871   4.774  18.111  0.00  0.00    +0.000 A 
ATOM     21  C   UNL     1       7.638   5.949  18.107  0.00  0.00    +0.000 A 
BRANCH  19  22
ATOM     22  N   UNL     1       4.915   3.511  17.497  0.00  0.00    +0.000 N 
ATOM     23  C   UNL     1       3.927   3.112  18.386  0.00  0.00    +0.000 C 
ATOM     24  C   UNL     1       3.329   1.774  18.044  0.00  0.00    +0.000 C 
ATOM     25  O   UNL     1       3.539   3.721  19.376  0.00  0.00    +0.000 OA
ATOM     26  H   UNL     1       5.136   2.879  16.740  0.00  0.00    +0.000 HD
ENDBRANCH  19  22
ENDBRANCH  15  16
ENDBRANCH  14  15
ENDBRANCH   1  14
TORSDOF 7
ENDMDL
MODEL 6
REMARK VINA RESULT:      -6.9      6.469      8.720
REMARK  Name = 
REMARK  9 active torsions:
REMARK  status: ('A' for Active; 'I' for Inactive)
REMARK    1  A    between atoms: C_1  and  C_2
REMARK    2  A    between atoms: N_4  and  C_5
REMARK    3  A    between atoms: C_8  and  O_9
REMARK    4  A    between atoms: O_9  and  C_10
REMARK    5  A    between atoms: C_10  and  C_11
REMARK    6  A    between atoms: C_11  and  O_12
REMARK    7  A    between atoms: O_12  and  C_13
REMARK    8  A    between atoms: C_16  and  N_17
REMARK    9  A    between atoms: C_18  and  C_19
REMARK                            x       y       z     vdW  Elec       q    Type
REMARK                         _______ _______ _______ _____ _____    ______ ____
ROOT
ATOM      1  C   UNL     1       1.790   5.285  20.254  0.00  0.00    +0.000 C 
ENDROOT
BRANCH   1   2
ATOM      2  O   UNL     1       2.532   6.484  20.460  0.00  0.00    +0.000 OA
BRANCH   2   6
ATOM      3  C   UNL     1       0.783   9.975  18.979  0.00  0.00    +0.000 A 
ATOM      4  C   UNL     1       1.610   9.163  18.204  0.00  0.00    +0.000 A 
ATOM      5  C   UNL     1       2.175   8.004  18.741  0.00  0.00    +0.000 A 
ATOM      6  C   UNL     1       1.944   7.654  20.068  0.00  0.00    +0.000 A 
ATOM      7  C   UNL     1       1.128   8.467  20.854  0.00  0.00    +0.000 A 
ATOM      8  C   UNL     1       0.555   9.625  20.312  0.00  0.00    +0.000 A 
BRANCH   3  12
ATOM      9  C   UNL     1      -0.342  13.471  18.145  0.00  0.00    +0.000 C 
ATOM     10  C   UNL     1       0.598  12.445  18.722  0.00  0.00    +0.000 C 
ATOM     11  O   UNL     1       1.609  12.797  19.318  0.00  0.00    +0.000 OA
ATOM     12  N   UNL     1       0.175  11.150  18.493  0.00  0.00    +0.000 N 
ATOM     13  H   UNL     1      -0.604  11.026  17.861  0.00  0.00    +0.000 HD
ENDBRANCH   3  12
ENDBRANCH   2   6
ENDBRANCH   1   2
BRANCH   1  14
ATOM     14  C   UNL     1       2.375   4.465  19.110  0.00  0.00    +0.000 C 
BRANCH  14  15
ATOM     15  O   UNL     1       3.783   4.374  19.299  0.00  0.00    +0.000 OA
BRANCH  15  16
ATOM     16  C   UNL     1       4.564   4.772  18.252  0.00  0.00    +0.000 A 
ATOM     17  C   UNL     1       5.838   4.215  18.233  0.00  0.00    +0.000 A 
ATOM     18  C   UNL     1       6.722   4.497  17.189  0.00  0.00    +0.000 A 
ATOM     19  C   UNL     1       6.338   5.323  16.131  0.00  0.00    +0.000 A 
ATOM     20  C   UNL     1       5.062   5.894  16.163  0.00  0.00    +0.000 A 
ATOM     21  C   UNL     1       4.176   5.619  17.215  0.00  0.00    +0.000 A 
BRANCH  19  22
ATOM     22  N   UNL     1       7.158   5.595  15.017  0.00  0.00    +0.000 N 
ATOM     23  C   UNL     1       7.208   4.878  13.830  0.00  0.00    +0.000 C 
ATOM     24  C   UNL     1       8.132   5.486  12.809  0.00  0.00    +0.000 C 
ATOM     25  O   UNL     1       6.604   3.844  13.570  0.00  0.00    +0.000 OA
ATOM     26  H   UNL     1       7.739   6.420  15.081  0.00  0.00    +0.000 HD
ENDBRANCH  19  22
ENDBRANCH  15  16
ENDBRANCH  14  15
ENDBRANCH   1  14
TORSDOF 7
ENDMDL
MODEL 7
REMARK VINA RESULT:      -6.9      1.287      1.306
REMARK  Name = 
REMARK  9 active torsions:
REMARK  status: ('A' for Active; 'I' for Inactive)
REMARK    1  A    between atoms: C_1  and  C_2
REMARK    2  A    between atoms: N_4  and  C_5
REMARK    3  A    between atoms: C_8  and  O_9
REMARK    4  A    between atoms: O_9  and  C_10
REMARK    5  A    between atoms: C_10  and  C_11
REMARK    6  A    between atoms: C_11  and  O_12
REMARK    7  A    between atoms: O_12  and  C_13
REMARK    8  A    between atoms: C_16  and  N_17
REMARK    9  A    between atoms: C_18  and  C_19
REMARK                            x       y       z     vdW  Elec       q    Type
REMARK                         _______ _______ _______ _____ _____    ______ ____
ROOT
ATOM      1  C   UNL     1       8.049   7.432  18.140  0.00  0.00    +0.000 C 
ENDROOT
BRANCH   1   2
ATOM      2  O   UNL     1       7.118   6.955  17.172  0.00  0.00    +0.000 OA
BRANCH   2   6
ATOM      3  C   UNL     1       3.786   4.750  18.387  0.00  0.00    +0.000 A 
ATOM      4  C   UNL     1       3.676   5.975  17.731  0.00  0.00    +0.000 A 
ATOM      5  C   UNL     1       4.818   6.679  17.343  0.00  0.00    +0.000 A 
ATOM      6  C   UNL     1       6.087   6.184  17.630  0.00  0.00    +0.000 A 
ATOM      7  C   UNL     1       6.206   4.966  18.297  0.00  0.00    +0.000 A 
ATOM      8  C   UNL     1       5.059   4.255  18.678  0.00  0.00    +0.000 A 
BRANCH   3  12
ATOM      9  C   UNL     1       0.984   2.981  20.176  0.00  0.00    +0.000 C 
ATOM     10  C   UNL     1       2.089   3.996  20.047  0.00  0.00    +0.000 C 
ATOM     11  O   UNL     1       2.383   4.716  20.994  0.00  0.00    +0.000 OA
ATOM     12  N   UNL     1       2.673   3.987  18.795  0.00  0.00    +0.000 N 
ATOM     13  H   UNL     1       2.221   3.434  18.080  0.00  0.00    +0.000 HD
ENDBRANCH   3  12
ENDBRANCH   2   6
ENDBRANCH   1   2
BRANCH   1  14
ATOM     14  C   UNL     1       8.215   8.945  18.045  0.00  0.00    +0.000 C 
BRANCH  14  15
ATOM     15  O   UNL     1       9.106   9.362  19.074  0.00  0.00    +0.000 OA
BRANCH  15  16
ATOM     16  C   UNL     1       9.532  10.658  19.021  0.00  0.00    +0.000 A 
ATOM     17  C   UNL     1       9.701  11.266  20.260  0.00  0.00    +0.000 A 
ATOM     18  C   UNL     1      10.182  12.575  20.352  0.00  0.00    +0.000 A 
ATOM     19  C   UNL     1      10.526  13.291  19.204  0.00  0.00    +0.000 A 
ATOM     20  C   UNL     1      10.339  12.682  17.959  0.00  0.00    +0.000 A 
ATOM     21  C   UNL     1       9.847  11.372  17.865  0.00  0.00    +0.000 A 
BRANCH  19  22
ATOM     22  N   UNL     1      11.076  14.589  19.231  0.00  0.00    +0.000 N 
ATOM     23  C   UNL     1      10.391  15.782  19.053  0.00  0.00    +0.000 C 
ATOM     24  C   UNL     1      11.263  16.997  19.227  0.00  0.00    +0.000 C 
ATOM     25  O   UNL     1       9.207  15.915  18.767  0.00  0.00    +0.000 OA
ATOM     26  H   UNL     1      12.064  14.651  19.441  0.00  0.00    +0.000 HD
ENDBRANCH  19  22
ENDBRANCH  15  16
ENDBRANCH  14  15
ENDBRANCH   1  14
TORSDOF 7
ENDMDL
MODEL 8
REMARK VINA RESULT:      -6.8      1.238      1.815
REMARK  Name = 
REMARK  9 active torsions:
REMARK  status: ('A' for Active; 'I' for Inactive)
REMARK    1  A    between atoms: C_1  and  C_2
REMARK    2  A    between atoms: N_4  and  C_5
REMARK    3  A    between atoms: C_8  and  O_9
REMARK    4  A    between atoms: O_9  and  C_10
REMARK    5  A    between atoms: C_10  and  C_11
REMARK    6  A    between atoms: C_11  and  O_12
REMARK    7  A    between atoms: O_12  and  C_13
REMARK    8  A    between atoms: C_16  and  N_17
REMARK    9  A    between atoms: C_18  and  C_19
REMARK                            x       y       z     vdW  Elec       q    Type
REMARK                         _______ _______ _______ _____ _____    ______ ____
ROOT
ATOM      1  C   UNL     1       7.539   7.153  16.809  0.00  0.00    +0.000 C 
ENDROOT
BRANCH   1   2
ATOM      2  O   UNL     1       7.674   5.976  17.601  0.00  0.00    +0.000 OA
BRANCH   2   6
ATOM      3  C   UNL     1       4.202   3.783  18.360  0.00  0.00    +0.000 A 
ATOM      4  C   UNL     1       4.819   3.803  17.110  0.00  0.00    +0.000 A 
ATOM      5  C   UNL     1       5.979   4.551  16.901  0.00  0.00    +0.000 A 
ATOM      6  C   UNL     1       6.525   5.313  17.930  0.00  0.00    +0.000 A 
ATOM      7  C   UNL     1       5.908   5.309  19.180  0.00  0.00    +0.000 A 
ATOM      8  C   UNL     1       4.748   4.551  19.391  0.00  0.00    +0.000 A 
BRANCH   3  12
ATOM      9  C   UNL     1       0.729   2.381  18.752  0.00  0.00    +0.000 C 
ATOM     10  C   UNL     1       1.763   3.314  18.177  0.00  0.00    +0.000 C 
ATOM     11  O   UNL     1       1.435   4.197  17.394  0.00  0.00    +0.000 OA
ATOM     12  N   UNL     1       3.037   3.040  18.637  0.00  0.00    +0.000 N 
ATOM     13  H   UNL     1       3.162   2.188  19.167  0.00  0.00    +0.000 HD
ENDBRANCH   3  12
ENDBRANCH   2   6
ENDBRANCH   1   2
BRANCH   1  14
ATOM     14  C   UNL     1       7.363   8.389  17.684  0.00  0.00    +0.000 C 
BRANCH  14  15
ATOM     15  O   UNL     1       8.535   8.545  18.478  0.00  0.00    +0.000 OA
BRANCH  15  16
ATOM     16  C   UNL     1       8.929   9.827  18.733  0.00  0.00    +0.000 A 
ATOM     17  C   UNL     1       8.611  10.742  17.735  0.00  0.00    +0.000 A 
ATOM     18  C   UNL     1       8.910  12.098  17.890  0.00  0.00    +0.000 A 
ATOM     19  C   UNL     1       9.511  12.567  19.060  0.00  0.00    +0.000 A 
ATOM     20  C   UNL     1       9.844  11.642  20.054  0.00  0.00    +0.000 A 
ATOM     21  C   UNL     1       9.553  10.279  19.895  0.00  0.00    +0.000 A 
BRANCH  19  22
ATOM     22  N   UNL     1       9.781  13.929  19.306  0.00  0.00    +0.000 N 
ATOM     23  C   UNL     1      10.896  14.641  18.888  0.00  0.00    +0.000 C 
ATOM     24  C   UNL     1      10.834  16.102  19.246  0.00  0.00    +0.000 C 
ATOM     25  O   UNL     1      11.874  14.196  18.298  0.00  0.00    +0.000 OA
ATOM     26  H   UNL     1       9.066  14.443  19.804  0.00  0.00    +0.000 HD
ENDBRANCH  19  22
ENDBRANCH  15  16
ENDBRANCH  14  15
ENDBRANCH   1  14
TORSDOF 7
ENDMDL
MODEL 9
REMARK VINA RESULT:      -6.7      6.796      9.655
REMARK  Name = 
REMARK  9 active torsions:
REMARK  status: ('A' for Active; 'I' for Inactive)
REMARK    1  A    between atoms: C_1  and  C_2
REMARK    2  A    between atoms: N_4  and  C_5
REMARK    3  A    between atoms: C_8  and  O_9
REMARK    4  A    between atoms: O_9  and  C_10
REMARK    5  A    between atoms: C_10  and  C_11
REMARK    6  A    between atoms: C_11  and  O_12
REMARK    7  A    between atoms: O_12  and  C_13
REMARK    8  A    between atoms: C_16  and  N_17
REMARK    9  A    between atoms: C_18  and  C_19
REMARK                            x       y       z     vdW  Elec       q    Type
REMARK                         _______ _______ _______ _____ _____    ______ ____
ROOT
ATOM      1  C   UNL     1       1.822   7.657  20.601  0.00  0.00    +0.000 C 
ENDROOT
BRANCH   1   2
ATOM      2  O   UNL     1       1.736   6.257  20.347  0.00  0.00    +0.000 OA
BRANCH   2   6
ATOM      3  C   UNL     1       4.140   4.617  17.352  0.00  0.00    +0.000 A 
ATOM      4  C   UNL     1       2.764   4.402  17.411  0.00  0.00    +0.000 A 
ATOM      5  C   UNL     1       1.998   4.970  18.432  0.00  0.00    +0.000 A 
ATOM      6  C   UNL     1       2.600   5.738  19.424  0.00  0.00    +0.000 A 
ATOM      7  C   UNL     1       3.978   5.948  19.380  0.00  0.00    +0.000 A 
ATOM      8  C   UNL     1       4.744   5.385  18.350  0.00  0.00    +0.000 A 
BRANCH   3  12
ATOM      9  C   UNL     1       6.269   3.881  14.335  0.00  0.00    +0.000 C 
ATOM     10  C   UNL     1       5.531   4.778  15.292  0.00  0.00    +0.000 C 
ATOM     11  O   UNL     1       5.479   5.987  15.095  0.00  0.00    +0.000 OA
ATOM     12  N   UNL     1       4.965   4.081  16.343  0.00  0.00    +0.000 N 
ATOM     13  H   UNL     1       5.221   3.108  16.440  0.00  0.00    +0.000 HD
ENDBRANCH   3  12
ENDBRANCH   2   6
ENDBRANCH   1   2
BRANCH   1  14
ATOM     14  C   UNL     1       1.509   8.464  19.346  0.00  0.00    +0.000 C 
BRANCH  14  15
ATOM     15  O   UNL     1       1.075   9.760  19.744  0.00  0.00    +0.000 OA
BRANCH  15  16
ATOM     16  C   UNL     1      -0.084  10.212  19.182  0.00  0.00    +0.000 A 
ATOM     17  C   UNL     1      -0.763  11.163  19.936  0.00  0.00    +0.000 A 
ATOM     18  C   UNL     1      -1.937  11.748  19.455  0.00  0.00    +0.000 A 
ATOM     19  C   UNL     1      -2.440  11.408  18.197  0.00  0.00    +0.000 A 
ATOM     20  C   UNL     1      -1.763  10.440  17.449  0.00  0.00    +0.000 A 
ATOM     21  C   UNL     1      -0.590   9.845  17.936  0.00  0.00    +0.000 A 
BRANCH  19  22
ATOM     22  N   UNL     1      -3.582  12.007  17.627  0.00  0.00    +0.000 N 
ATOM     23  C   UNL     1      -4.897  11.586  17.770  0.00  0.00    +0.000 C 
ATOM     24  C   UNL     1      -5.887  12.499  17.099  0.00  0.00    +0.000 C 
ATOM     25  O   UNL     1      -5.287  10.581  18.353  0.00  0.00    +0.000 OA
ATOM     26  H   UNL     1      -3.424  12.851  17.093  0.00  0.00    +0.000 HD
ENDBRANCH  19  22
ENDBRANCH  15  16
ENDBRANCH  14  15
ENDBRANCH   1  14
TORSDOF 7
ENDMDL
