MODEL 1
REMARK VINA RESULT:      -7.9      0.000      0.000
REMARK  Name = 
REMARK  6 active torsions:
REMARK  status: ('A' for Active; 'I' for Inactive)
REMARK    1  A    between atoms: C_2  and  O_3
REMARK    2  A    between atoms: C_2  and  C_4
REMARK    3  A    between atoms: N_6  and  C_7
REMARK    4  A    between atoms: C_10  and  C_11
REMARK    5  A    between atoms: C_11  and  C_12
REMARK    6  A    between atoms: C_12  and  C_13
REMARK                            x       y       z     vdW  Elec       q    Type
REMARK                         _______ _______ _______ _____ _____    ______ ____
ROOT
ATOM      1  C   UNL     1       6.373   5.153  18.311  0.00  0.00    +0.000 A 
ATOM      2  C   UNL     1       5.854   6.044  17.380  0.00  0.00    +0.000 A 
ATOM      3  C   UNL     1       6.458   7.280  17.162  0.00  0.00    +0.000 A 
ATOM      4  C   UNL     1       7.585   7.674  17.889  0.00  0.00    +0.000 A 
ATOM      5  C   UNL     1       8.120   6.772  18.817  0.00  0.00    +0.000 A 
ATOM      6  C   UNL     1       7.509   5.524  19.036  0.00  0.00    +0.000 A 
ENDROOT
BRANCH   1   9
ATOM      7  C   UNL     1       4.607   3.679  19.242  0.00  0.00    +0.000 C 
ATOM      8  O   UNL     1       3.806   4.484  19.705  0.00  0.00    +0.000 OA
ATOM      9  N   UNL     1       5.782   3.896  18.550  0.00  0.00    +0.000 N 
ATOM     10  H   UNL     1       6.226   3.071  18.153  0.00  0.00    +0.000 HD
BRANCH   7  12
ATOM     11  O   UNL     1       3.217   1.723  18.955  0.00  0.00    +0.000 OA
ATOM     12  C   UNL     1       4.236   2.203  19.411  0.00  0.00    +0.000 C 
BRANCH  12  13
ATOM     13  O   UNL     1       5.182   1.555  20.121  0.00  0.00    +0.000 OA
ATOM     14  H   UNL     1       5.700   0.985  19.501  0.00  0.00    +0.000 HD
ENDBRANCH  12  13
ENDBRANCH   7  12
ENDBRANCH   1   9
BRANCH   4  15
ATOM     15  C   UNL     1       8.241   9.024  17.640  0.00  0.00    +0.000 C 
BRANCH  15  16
ATOM     16  C   UNL     1       8.958   9.595  18.876  0.00  0.00    +0.000 C 
BRANCH  16  17
ATOM     17  C   UNL     1       9.541  10.967  18.656  0.00  0.00    +0.000 A 
ATOM     18  C   UNL     1      10.783  11.300  19.218  0.00  0.00    +0.000 A 
ATOM     19  C   UNL     1      11.347  12.555  18.991  0.00  0.00    +0.000 A 
ATOM     20  C   UNL     1      10.673  13.488  18.205  0.00  0.00    +0.000 A 
ATOM     21  C   UNL     1       9.437  13.166  17.645  0.00  0.00    +0.000 A 
ATOM     22  C   UNL     1       8.872  11.909  17.870  0.00  0.00    +0.000 A 
ENDBRANCH  16  17
ENDBRANCH  15  16
ENDBRANCH   4  15
TORSDOF 6
ENDMDL
MODEL 2
REMARK VINA RESULT:      -7.9      0.804      1.359
REMARK  Name = 
REMARK  6 active torsions:
REMARK  status: ('A' for Active; 'I' for Inactive)
REMARK    1  A    between atoms: C_2  and  O_3
REMARK    2  A    between atoms: C_2  and  C_4
REMARK    3  A    between atoms: N_6  and  C_7
REMARK    4  A    between atoms: C_10  and  C_11
REMARK    5  A    between atoms: C_11  and  C_12
REMARK    6  A    between atoms: C_12  and  C_13
REMARK                            x       y       z     vdW  Elec       q    Type
REMARK                         _______ _______ _______ _____ _____    ______ ____
ROOT
ATOM      1  C   UNL     1       6.557   5.297  18.249  0.00  0.00    +0.000 A 
ATOM      2  C   UNL     1       7.645   5.647  19.040  0.00  0.00    +0.000 A 
ATOM      3  C   UNL     1       8.247   6.897  18.912  0.00  0.00    +0.000 A 
ATOM      4  C   UNL     1       7.796   7.825  17.969  0.00  0.00    +0.000 A 
ATOM      5  C   UNL     1       6.690   7.481  17.181  0.00  0.00    +0.000 A 
ATOM      6  C   UNL     1       6.083   6.219  17.311  0.00  0.00    +0.000 A 
ENDROOT
BRANCH   1   9
ATOM      7  C   UNL     1       4.775   3.778  19.070  0.00  0.00    +0.000 C 
ATOM      8  O   UNL     1       4.022   4.546  19.662  0.00  0.00    +0.000 OA
ATOM      9  N   UNL     1       5.929   4.040  18.359  0.00  0.00    +0.000 N 
ATOM     10  H   UNL     1       6.326   3.256  17.846  0.00  0.00    +0.000 HD
BRANCH   7  12
ATOM     11  O   UNL     1       3.528   1.853  18.307  0.00  0.00    +0.000 OA
ATOM     12  C   UNL     1       4.355   2.306  19.074  0.00  0.00    +0.000 C 
BRANCH  12  13
ATOM     13  O   UNL     1       5.021   1.626  20.030  0.00  0.00    +0.000 OA
ATOM     14  H   UNL     1       5.971   1.898  19.999  0.00  0.00    +0.000 HD
ENDBRANCH  12  13
ENDBRANCH   7  12
ENDBRANCH   1   9
BRANCH   4  15
ATOM     15  C   UNL     1       8.457   9.189  17.839  0.00  0.00    +0.000 C 
BRANCH  15  16
ATOM     16  C   UNL     1       8.937   9.769  19.180  0.00  0.00    +0.000 C 
BRANCH  16  17
ATOM     17  C   UNL     1       9.979  10.848  19.034  0.00  0.00    +0.000 A 
ATOM     18  C   UNL     1      10.559  11.422  20.174  0.00  0.00    +0.000 A 
ATOM     19  C   UNL     1      11.550  12.396  20.048  0.00  0.00    +0.000 A 
ATOM     20  C   UNL     1      11.964  12.806  18.783  0.00  0.00    +0.000 A 
ATOM     21  C   UNL     1      11.390  12.242  17.644  0.00  0.00    +0.000 A 
ATOM     22  C   UNL     1      10.399  11.266  17.768  0.00  0.00    +0.000 A 
ENDBRANCH  16  17
ENDBRANCH  15  16
ENDBRANCH   4  15
TORSDOF 6
ENDMDL
MODEL 3
REMARK VINA RESULT:      -7.9      0.848      1.597
REMARK  Name = 
REMARK  6 active torsions:
REMARK  status: ('A' for Active; 'I' for Inactive)
REMARK    1  A    between atoms: C_2  and  O_3
REMARK    2  A    between atoms: C_2  and  C_4
REMARK    3  A    between atoms: N_6  and  C_7
REMARK    4  A    between atoms: C_10  and  C_11
REMARK    5  A    between atoms: C_11  and  C_12
REMARK    6  A    between atoms: C_12  and  C_13
REMARK                            x       y       z     vdW  Elec       q    Type
REMARK                         _______ _______ _______ _____ _____    ______ ____
ROOT
ATOM      1  C   UNL     1       6.446   5.190  18.381  0.00  0.00    +0.000 A 
ATOM      2  C   UNL     1       7.557   5.606  19.105  0.00  0.00    +0.000 A 
ATOM      3  C   UNL     1       8.176   6.822  18.825  0.00  0.00    +0.000 A 
ATOM      4  C   UNL     1       7.719   7.647  17.793  0.00  0.00    +0.000 A 
ATOM      5  C   UNL     1       6.590   7.238  17.071  0.00  0.00    +0.000 A 
ATOM      6  C   UNL     1       5.966   6.009  17.355  0.00  0.00    +0.000 A 
ENDROOT
BRANCH   1   9
ATOM      7  C   UNL     1       4.600   3.817  19.310  0.00  0.00    +0.000 C 
ATOM      8  O   UNL     1       3.818   4.667  19.724  0.00  0.00    +0.000 OA
ATOM      9  N   UNL     1       5.800   3.965  18.645  0.00  0.00    +0.000 N 
ATOM     10  H   UNL     1       6.223   3.111  18.287  0.00  0.00    +0.000 HD
BRANCH   7  12
ATOM     11  O   UNL     1       3.076   1.945  19.182  0.00  0.00    +0.000 OA
ATOM     12  C   UNL     1       4.167   2.363  19.517  0.00  0.00    +0.000 C 
BRANCH  12  13
ATOM     13  O   UNL     1       5.151   1.655  20.108  0.00  0.00    +0.000 OA
ATOM     14  H   UNL     1       5.725   2.283  20.612  0.00  0.00    +0.000 HD
ENDBRANCH  12  13
ENDBRANCH   7  12
ENDBRANCH   1   9
BRANCH   4  15
ATOM     15  C   UNL     1       8.398   8.976  17.496  0.00  0.00    +0.000 C 
BRANCH  15  16
ATOM     16  C   UNL     1       8.311   9.982  18.656  0.00  0.00    +0.000 C 
BRANCH  16  17
ATOM     17  C   UNL     1       9.583  10.758  18.880  0.00  0.00    +0.000 A 
ATOM     18  C   UNL     1      10.375  11.138  17.786  0.00  0.00    +0.000 A 
ATOM     19  C   UNL     1      11.535  11.887  17.981  0.00  0.00    +0.000 A 
ATOM     20  C   UNL     1      11.915  12.258  19.269  0.00  0.00    +0.000 A 
ATOM     21  C   UNL     1      11.134  11.882  20.362  0.00  0.00    +0.000 A 
ATOM     22  C   UNL     1       9.972  11.134  20.169  0.00  0.00    +0.000 A 
ENDBRANCH  16  17
ENDBRANCH  15  16
ENDBRANCH   4  15
TORSDOF 6
ENDMDL
MODEL 4
REMARK VINA RESULT:      -7.7      0.346      1.332
REMARK  Name = 
REMARK  6 active torsions:
REMARK  status: ('A' for Active; 'I' for Inactive)
REMARK    1  A    between atoms: C_2  and  O_3
REMARK    2  A    between atoms: C_2  and  C_4
REMARK    3  A    between atoms: N_6  and  C_7
REMARK    4  A    between atoms: C_10  and  C_11
REMARK    5  A    between atoms: C_11  and  C_12
REMARK    6  A    between atoms: C_12  and  C_13
REMARK                            x       y       z     vdW  Elec       q    Type
REMARK                         _______ _______ _______ _____ _____    ______ ____
ROOT
ATOM      1  C   UNL     1       6.511   5.177  18.490  0.00  0.00    +0.000 A 
ATOM      2  C   UNL     1       7.646   5.648  19.138  0.00  0.00    +0.000 A 
ATOM      3  C   UNL     1       8.176   6.899  18.831  0.00  0.00    +0.000 A 
ATOM      4  C   UNL     1       7.602   7.706  17.845  0.00  0.00    +0.000 A 
ATOM      5  C   UNL     1       6.448   7.242  17.200  0.00  0.00    +0.000 A 
ATOM      6  C   UNL     1       5.914   5.978  17.511  0.00  0.00    +0.000 A 
ENDROOT
BRANCH   1   9
ATOM      7  C   UNL     1       4.731   3.698  19.385  0.00  0.00    +0.000 C 
ATOM      8  O   UNL     1       3.857   4.498  19.706  0.00  0.00    +0.000 OA
ATOM      9  N   UNL     1       5.954   3.916  18.782  0.00  0.00    +0.000 N 
ATOM     10  H   UNL     1       6.467   3.085  18.497  0.00  0.00    +0.000 HD
BRANCH   7  12
ATOM     11  O   UNL     1       4.993   1.557  20.475  0.00  0.00    +0.000 OA
ATOM     12  C   UNL     1       4.408   2.225  19.645  0.00  0.00    +0.000 C 
BRANCH  12  13
ATOM     13  O   UNL     1       3.413   1.807  18.835  0.00  0.00    +0.000 OA
ATOM     14  H   UNL     1       2.891   1.118  19.314  0.00  0.00    +0.000 HD
ENDBRANCH  12  13
ENDBRANCH   7  12
ENDBRANCH   1   9
BRANCH   4  15
ATOM     15  C   UNL     1       8.185   9.074  17.519  0.00  0.00    +0.000 C 
BRANCH  15  16
ATOM     16  C   UNL     1       8.902   9.735  18.708  0.00  0.00    +0.000 C 
BRANCH  16  17
ATOM     17  C   UNL     1       9.561  11.045  18.363  0.00  0.00    +0.000 A 
ATOM     18  C   UNL     1      10.946  11.198  18.525  0.00  0.00    +0.000 A 
ATOM     19  C   UNL     1      11.570  12.395  18.176  0.00  0.00    +0.000 A 
ATOM     20  C   UNL     1      10.815  13.450  17.666  0.00  0.00    +0.000 A 
ATOM     21  C   UNL     1       9.437  13.307  17.505  0.00  0.00    +0.000 A 
ATOM     22  C   UNL     1       8.811  12.109  17.853  0.00  0.00    +0.000 A 
ENDBRANCH  16  17
ENDBRANCH  15  16
ENDBRANCH   4  15
TORSDOF 6
ENDMDL
MODEL 5
REMARK VINA RESULT:      -7.7      6.075      8.342
REMARK  Name = 
REMARK  6 active torsions:
REMARK  status: ('A' for Active; 'I' for Inactive)
REMARK    1  A    between atoms: C_2  and  O_3
REMARK    2  A    between atoms: C_2  and  C_4
REMARK    3  A    between atoms: N_6  and  C_7
REMARK    4  A    between atoms: C_10  and  C_11
REMARK    5  A    between atoms: C_11  and  C_12
REMARK    6  A    between atoms: C_12  and  C_13
REMARK                            x       y       z     vdW  Elec       q    Type
REMARK                         _______ _______ _______ _____ _____    ______ ____
ROOT
ATOM      1  C   UNL     1       5.791   4.186  14.851  0.00  0.00    +0.000 A 
ATOM      2  C   UNL     1       5.685   5.572  14.819  0.00  0.00    +0.000 A 
ATOM      3  C   UNL     1       5.117   6.268  15.884  0.00  0.00    +0.000 A 
ATOM      4  C   UNL     1       4.612   5.597  17.001  0.00  0.00    +0.000 A 
ATOM      5  C   UNL     1       4.731   4.201  17.043  0.00  0.00    +0.000 A 
ATOM      6  C   UNL     1       5.305   3.500  15.967  0.00  0.00    +0.000 A 
ENDROOT
BRANCH   1   9
ATOM      7  C   UNL     1       5.747   3.177  12.584  0.00  0.00    +0.000 C 
ATOM      8  O   UNL     1       4.661   3.548  12.149  0.00  0.00    +0.000 OA
ATOM      9  N   UNL     1       6.362   3.458  13.788  0.00  0.00    +0.000 N 
ATOM     10  H   UNL     1       7.323   3.138  13.885  0.00  0.00    +0.000 HD
BRANCH   7  12
ATOM     11  O   UNL     1       7.666   2.643  11.215  0.00  0.00    +0.000 OA
ATOM     12  C   UNL     1       6.578   2.306  11.638  0.00  0.00    +0.000 C 
BRANCH  12  13
ATOM     13  O   UNL     1       5.928   1.157  11.360  0.00  0.00    +0.000 OA
ATOM     14  H   UNL     1       6.076   0.940  10.406  0.00  0.00    +0.000 HD
ENDBRANCH  12  13
ENDBRANCH   7  12
ENDBRANCH   1   9
BRANCH   4  15
ATOM     15  C   UNL     1       3.997   6.365  18.162  0.00  0.00    +0.000 C 
BRANCH  15  16
ATOM     16  C   UNL     1       2.475   6.183  18.282  0.00  0.00    +0.000 C 
BRANCH  16  17
ATOM     17  C   UNL     1       2.072   4.993  19.114  0.00  0.00    +0.000 A 
ATOM     18  C   UNL     1       2.355   4.968  20.487  0.00  0.00    +0.000 A 
ATOM     19  C   UNL     1       1.955   3.887  21.271  0.00  0.00    +0.000 A 
ATOM     20  C   UNL     1       1.273   2.820  20.689  0.00  0.00    +0.000 A 
ATOM     21  C   UNL     1       0.991   2.835  19.323  0.00  0.00    +0.000 A 
ATOM     22  C   UNL     1       1.389   3.918  18.537  0.00  0.00    +0.000 A 
ENDBRANCH  16  17
ENDBRANCH  15  16
ENDBRANCH   4  15
TORSDOF 6
ENDMDL
MODEL 6
REMARK VINA RESULT:      -7.6      6.073      8.330
REMARK  Name = 
REMARK  6 active torsions:
REMARK  status: ('A' for Active; 'I' for Inactive)
REMARK    1  A    between atoms: C_2  and  O_3
REMARK    2  A    between atoms: C_2  and  C_4
REMARK    3  A    between atoms: N_6  and  C_7
REMARK    4  A    between atoms: C_10  and  C_11
REMARK    5  A    between atoms: C_11  and  C_12
REMARK    6  A    between atoms: C_12  and  C_13
REMARK                            x       y       z     vdW  Elec       q    Type
REMARK                         _______ _______ _______ _____ _____    ______ ____
ROOT
ATOM      1  C   UNL     1       5.879   4.117  14.811  0.00  0.00    +0.000 A 
ATOM      2  C   UNL     1       5.544   3.516  16.018  0.00  0.00    +0.000 A 
ATOM      3  C   UNL     1       5.009   4.266  17.063  0.00  0.00    +0.000 A 
ATOM      4  C   UNL     1       4.819   5.645  16.942  0.00  0.00    +0.000 A 
ATOM      5  C   UNL     1       5.141   6.251  15.720  0.00  0.00    +0.000 A 
ATOM      6  C   UNL     1       5.681   5.493  14.666  0.00  0.00    +0.000 A 
ENDROOT
BRANCH   1   9
ATOM      7  C   UNL     1       5.781   3.110  12.545  0.00  0.00    +0.000 C 
ATOM      8  O   UNL     1       4.693   3.497  12.129  0.00  0.00    +0.000 OA
ATOM      9  N   UNL     1       6.421   3.381  13.738  0.00  0.00    +0.000 N 
ATOM     10  H   UNL     1       7.379   3.047  13.817  0.00  0.00    +0.000 HD
BRANCH   7  12
ATOM     11  O   UNL     1       7.661   2.555  11.131  0.00  0.00    +0.000 OA
ATOM     12  C   UNL     1       6.581   2.228  11.583  0.00  0.00    +0.000 C 
BRANCH  12  13
ATOM     13  O   UNL     1       5.917   1.082  11.328  0.00  0.00    +0.000 OA
ATOM     14  H   UNL     1       6.004   0.881  10.363  0.00  0.00    +0.000 HD
ENDBRANCH  12  13
ENDBRANCH   7  12
ENDBRANCH   1   9
BRANCH   4  15
ATOM     15  C   UNL     1       4.229   6.456  18.087  0.00  0.00    +0.000 C 
BRANCH  15  16
ATOM     16  C   UNL     1       2.692   6.459  18.109  0.00  0.00    +0.000 C 
BRANCH  16  17
ATOM     17  C   UNL     1       2.094   5.238  18.759  0.00  0.00    +0.000 A 
ATOM     18  C   UNL     1       1.997   5.162  20.156  0.00  0.00    +0.000 A 
ATOM     19  C   UNL     1       1.413   4.051  20.764  0.00  0.00    +0.000 A 
ATOM     20  C   UNL     1       0.926   3.006  19.981  0.00  0.00    +0.000 A 
ATOM     21  C   UNL     1       1.021   3.073  18.591  0.00  0.00    +0.000 A 
ATOM     22  C   UNL     1       1.604   4.185  17.981  0.00  0.00    +0.000 A 
ENDBRANCH  16  17
ENDBRANCH  15  16
ENDBRANCH   4  15
TORSDOF 6
ENDMDL
MODEL 7
REMARK VINA RESULT:      -7.6      5.236      7.520
REMARK  Name = 
REMARK  6 active torsions:
REMARK  status: ('A' for Active; 'I' for Inactive)
REMARK    1  A    between atoms: C_2  and  O_3
REMARK    2  A    between atoms: C_2  and  C_4
REMARK    3  A    between atoms: N_6  and  C_7
REMARK    4  A    between atoms: C_10  and  C_11
REMARK    5  A    between atoms: C_11  and  C_12
REMARK    6  A    between atoms: C_12  and  C_13
REMARK                            x       y       z     vdW  Elec       q    Type
REMARK                         _______ _______ _______ _____ _____    ______ ____
ROOT
ATOM      1  C   UNL     1       1.918   7.126  20.251  0.00  0.00    +0.000 A 
ATOM      2  C   UNL     1       1.754   5.790  20.598  0.00  0.00    +0.000 A 
ATOM      3  C   UNL     1       1.991   4.778  19.670  0.00  0.00    +0.000 A 
ATOM      4  C   UNL     1       2.372   5.072  18.358  0.00  0.00    +0.000 A 
ATOM      5  C   UNL     1       2.554   6.417  18.009  0.00  0.00    +0.000 A 
ATOM      6  C   UNL     1       2.314   7.438  18.947  0.00  0.00    +0.000 A 
ENDROOT
BRANCH   1   9
ATOM      7  C   UNL     1       0.461   8.509  21.707  0.00  0.00    +0.000 C 
ATOM      8  O   UNL     1      -0.631   7.962  21.587  0.00  0.00    +0.000 OA
ATOM      9  N   UNL     1       1.686   8.168  21.170  0.00  0.00    +0.000 N 
ATOM     10  H   UNL     1       2.485   8.701  21.506  0.00  0.00    +0.000 HD
BRANCH   7  12
ATOM     11  O   UNL     1       0.276   9.663  23.823  0.00  0.00    +0.000 OA
ATOM     12  C   UNL     1       0.491   9.731  22.628  0.00  0.00    +0.000 C 
BRANCH  12  13
ATOM     13  O   UNL     1       0.780  10.846  21.926  0.00  0.00    +0.000 OA
ATOM     14  H   UNL     1       0.268  10.821  21.080  0.00  0.00    +0.000 HD
ENDBRANCH  12  13
ENDBRANCH   7  12
ENDBRANCH   1   9
BRANCH   4  15
ATOM     15  C   UNL     1       2.633   3.961  17.353  0.00  0.00    +0.000 C 
BRANCH  15  16
ATOM     16  C   UNL     1       3.996   3.272  17.538  0.00  0.00    +0.000 C 
BRANCH  16  17
ATOM     17  C   UNL     1       5.150   4.234  17.643  0.00  0.00    +0.000 A 
ATOM     18  C   UNL     1       5.683   4.821  16.485  0.00  0.00    +0.000 A 
ATOM     19  C   UNL     1       6.729   5.739  16.575  0.00  0.00    +0.000 A 
ATOM     20  C   UNL     1       7.253   6.075  17.821  0.00  0.00    +0.000 A 
ATOM     21  C   UNL     1       6.731   5.494  18.977  0.00  0.00    +0.000 A 
ATOM     22  C   UNL     1       5.684   4.576  18.889  0.00  0.00    +0.000 A 
ENDBRANCH  16  17
ENDBRANCH  15  16
ENDBRANCH   4  15
TORSDOF 6
ENDMDL
MODEL 8
REMARK VINA RESULT:      -7.6      5.490      7.644
REMARK  Name = 
REMARK  6 active torsions:
REMARK  status: ('A' for Active; 'I' for Inactive)
REMARK    1  A    between atoms: C_2  and  O_3
REMARK    2  A    between atoms: C_2  and  C_4
REMARK    3  A    between atoms: N_6  and  C_7
REMARK    4  A    between atoms: C_10  and  C_11
REMARK    5  A    between atoms: C_11  and  C_12
REMARK    6  A    between atoms: C_12  and  C_13
REMARK                            x       y       z     vdW  Elec       q    Type
REMARK                         _______ _______ _______ _____ _____    ______ ____
ROOT
ATOM      1  C   UNL     1       1.867   7.079  20.310  0.00  0.00    +0.000 A 
ATOM      2  C   UNL     1       2.264   7.334  19.002  0.00  0.00    +0.000 A 
ATOM      3  C   UNL     1       2.460   6.291  18.101  0.00  0.00    +0.000 A 
ATOM      4  C   UNL     1       2.291   4.958  18.486  0.00  0.00    +0.000 A 
ATOM      5  C   UNL     1       1.875   4.698  19.799  0.00  0.00    +0.000 A 
ATOM      6  C   UNL     1       1.678   5.753  20.709  0.00  0.00    +0.000 A 
ENDROOT
BRANCH   1   9
ATOM      7  C   UNL     1       0.436   8.528  21.728  0.00  0.00    +0.000 C 
ATOM      8  O   UNL     1      -0.683   8.060  21.542  0.00  0.00    +0.000 OA
ATOM      9  N   UNL     1       1.661   8.116  21.242  0.00  0.00    +0.000 N 
ATOM     10  H   UNL     1       2.476   8.586  21.628  0.00  0.00    +0.000 HD
BRANCH   7  12
ATOM     11  O   UNL     1       0.494   9.610  23.888  0.00  0.00    +0.000 OA
ATOM     12  C   UNL     1       0.503   9.726  22.679  0.00  0.00    +0.000 C 
BRANCH  12  13
ATOM     13  O   UNL     1       0.567  10.880  21.983  0.00  0.00    +0.000 OA
ATOM     14  H   UNL     1       1.418  10.892  21.479  0.00  0.00    +0.000 HD
ENDBRANCH  12  13
ENDBRANCH   7  12
ENDBRANCH   1   9
BRANCH   4  15
ATOM     15  C   UNL     1       2.502   3.825  17.494  0.00  0.00    +0.000 C 
BRANCH  15  16
ATOM     16  C   UNL     1       3.883   3.158  17.607  0.00  0.00    +0.000 C 
BRANCH  16  17
ATOM     17  C   UNL     1       5.030   4.085  17.298  0.00  0.00    +0.000 A 
ATOM     18  C   UNL     1       5.213   4.564  15.993  0.00  0.00    +0.000 A 
ATOM     19  C   UNL     1       6.251   5.450  15.705  0.00  0.00    +0.000 A 
ATOM     20  C   UNL     1       7.116   5.860  16.718  0.00  0.00    +0.000 A 
ATOM     21  C   UNL     1       6.942   5.386  18.018  0.00  0.00    +0.000 A 
ATOM     22  C   UNL     1       5.903   4.500  18.308  0.00  0.00    +0.000 A 
ENDBRANCH  16  17
ENDBRANCH  15  16
ENDBRANCH   4  15
TORSDOF 6
ENDMDL
MODEL 9
REMARK VINA RESULT:      -7.5      5.199      7.437
REMARK  Name = 
REMARK  6 active torsions:
REMARK  status: ('A' for Active; 'I' for Inactive)
REMARK    1  A    between atoms: C_2  and  O_3
REMARK    2  A    between atoms: C_2  and  C_4
REMARK    3  A    between atoms: N_6  and  C_7
REMARK    4  A    between atoms: C_10  and  C_11
REMARK    5  A    between atoms: C_11  and  C_12
REMARK    6  A    between atoms: C_12  and  C_13
REMARK                            x       y       z     vdW  Elec       q    Type
REMARK                         _______ _______ _______ _____ _____    ______ ____
ROOT
ATOM      1  C   UNL     1       1.912   7.184  20.353  0.00  0.00    +0.000 A 
ATOM      2  C   UNL     1       1.784   5.837  20.671  0.00  0.00    +0.000 A 
ATOM      3  C   UNL     1       2.044   4.852  19.721  0.00  0.00    +0.000 A 
ATOM      4  C   UNL     1       2.413   5.185  18.414  0.00  0.00    +0.000 A 
ATOM      5  C   UNL     1       2.558   6.541  18.094  0.00  0.00    +0.000 A 
ATOM      6  C   UNL     1       2.295   7.535  19.055  0.00  0.00    +0.000 A 
ENDROOT
BRANCH   1   9
ATOM      7  C   UNL     1       0.407   8.613  21.712  0.00  0.00    +0.000 C 
ATOM      8  O   UNL     1      -0.702   8.162  21.444  0.00  0.00    +0.000 OA
ATOM      9  N   UNL     1       1.656   8.200  21.295  0.00  0.00    +0.000 N 
ATOM     10  H   UNL     1       2.450   8.651  21.744  0.00  0.00    +0.000 HD
BRANCH   7  12
ATOM     11  O   UNL     1       0.399   9.639  23.901  0.00  0.00    +0.000 OA
ATOM     12  C   UNL     1       0.424   9.787  22.695  0.00  0.00    +0.000 C 
BRANCH  12  13
ATOM     13  O   UNL     1       0.466  10.961  22.030  0.00  0.00    +0.000 OA
ATOM     14  H   UNL     1      -0.270  10.970  21.370  0.00  0.00    +0.000 HD
ENDBRANCH  12  13
ENDBRANCH   7  12
ENDBRANCH   1   9
BRANCH   4  15
ATOM     15  C   UNL     1       2.700   4.102  17.384  0.00  0.00    +0.000 C 
BRANCH  15  16
ATOM     16  C   UNL     1       4.074   3.436  17.559  0.00  0.00    +0.000 C 
BRANCH  16  17
ATOM     17  C   UNL     1       5.210   4.417  17.691  0.00  0.00    +0.000 A 
ATOM     18  C   UNL     1       5.767   4.682  18.951  0.00  0.00    +0.000 A 
ATOM     19  C   UNL     1       6.841   5.562  19.078  0.00  0.00    +0.000 A 
ATOM     20  C   UNL     1       7.364   6.188  17.949  0.00  0.00    +0.000 A 
ATOM     21  C   UNL     1       6.814   5.933  16.692  0.00  0.00    +0.000 A 
ATOM     22  C   UNL     1       5.740   5.051  16.563  0.00  0.00    +0.000 A 
ENDBRANCH  16  17
ENDBRANCH  15  16
ENDBRANCH   4  15
TORSDOF 6
ENDMDL
