MODEL 1
REMARK VINA RESULT:      -6.9      0.000      0.000
REMARK  Name = 
REMARK  8 active torsions:
REMARK  status: ('A' for Active; 'I' for Inactive)
REMARK    1  A    between atoms: C_2  and  C_3
REMARK    2  A    between atoms: C_3  and  O_4
REMARK    3  A    between atoms: O_4  and  C_5
REMARK    4  A    between atoms: C_9  and  C_10
REMARK    5  A    between atoms: C_11  and  C_12
REMARK    6  A    between atoms: C_11  and  C_14
REMARK    7  A    between atoms: C_18  and  O_19
REMARK    8  A    between atoms: O_19  and  C_20
REMARK                            x       y       z     vdW  Elec       q    Type
REMARK                         _______ _______ _______ _____ _____    ______ ____
ROOT
ATOM      1  C   UNL     1       3.271   4.481  19.651  0.00  0.00    +0.000 A 
ATOM      2  C   UNL     1       3.233   5.672  18.870  0.00  0.00    +0.000 A 
ATOM      3 BR   UNL     1       2.320   7.231  19.505  0.00  0.00    +0.000 Br
ATOM      4  C   UNL     1       3.830   5.788  17.598  0.00  0.00    +0.000 A 
ATOM      5  C   UNL     1       4.521   4.705  17.052  0.00  0.00    +0.000 A 
ATOM      6  C   UNL     1       4.570   3.538  17.809  0.00  0.00    +0.000 A 
ATOM      7  C   UNL     1       3.962   3.385  19.102  0.00  0.00    +0.000 A 
ENDROOT
BRANCH   5   8
ATOM      8  C   UNL     1       5.185   4.804  15.729  0.00  0.00    +0.000 C 
ATOM      9  C   UNL     1       6.522   4.707  15.500  0.00  0.00    +0.000 C 
BRANCH   9  10
ATOM     10  C   UNL     1       7.060   4.827  14.130  0.00  0.00    +0.000 C 
ATOM     11  N   UNL     1       6.507   4.027  13.173  0.00  0.00    +0.000 N 
ATOM     12  O   UNL     1       7.953   5.613  13.827  0.00  0.00    +0.000 OA
ATOM     13  H   UNL     1       5.777   3.341  13.327  0.00  0.00    +0.000 HD
ATOM     14  H   UNL     1       6.875   4.101  12.230  0.00  0.00    +0.000 HD
ENDBRANCH   9  10
BRANCH   9  15
ATOM     15  C   UNL     1       7.443   4.461  16.683  0.00  0.00    +0.000 C 
ATOM     16  N   UNL     1       8.207   4.256  17.666  0.00  0.00    +0.000 NA
ENDBRANCH   9  15
ENDBRANCH   5   8
BRANCH   7  17
ATOM     17  O   UNL     1       4.183   2.101  19.515  0.00  0.00    +0.000 OA
ATOM     18  C   UNL     1       4.850   1.732  20.692  0.00  0.00    +0.000 C 
ENDBRANCH   7  17
BRANCH   1  19
ATOM     19  O   UNL     1       2.620   4.592  20.854  0.00  0.00    +0.000 OA
BRANCH  19  20
ATOM     20  C   UNL     1       1.531   3.733  21.141  0.00  0.00    +0.000 C 
BRANCH  20  22
ATOM     21  C   UNL     1       0.580   2.419  19.248  0.00  0.00    +0.000 C 
ATOM     22  C   UNL     1       0.604   3.543  19.977  0.00  0.00    +0.000 C 
ENDBRANCH  20  22
ENDBRANCH  19  20
ENDBRANCH   1  19
TORSDOF 7
ENDMDL
MODEL 2
REMARK VINA RESULT:      -6.6      1.249      1.337
REMARK  Name = 
REMARK  8 active torsions:
REMARK  status: ('A' for Active; 'I' for Inactive)
REMARK    1  A    between atoms: C_2  and  C_3
REMARK    2  A    between atoms: C_3  and  O_4
REMARK    3  A    between atoms: O_4  and  C_5
REMARK    4  A    between atoms: C_9  and  C_10
REMARK    5  A    between atoms: C_11  and  C_12
REMARK    6  A    between atoms: C_11  and  C_14
REMARK    7  A    between atoms: C_18  and  O_19
REMARK    8  A    between atoms: O_19  and  C_20
REMARK                            x       y       z     vdW  Elec       q    Type
REMARK                         _______ _______ _______ _____ _____    ______ ____
ROOT
ATOM      1  C   UNL     1       3.339   4.871  19.350  0.00  0.00    +0.000 A 
ATOM      2  C   UNL     1       3.336   5.906  18.372  0.00  0.00    +0.000 A 
ATOM      3 BR   UNL     1       2.442   7.567  18.705  0.00  0.00    +0.000 Br
ATOM      4  C   UNL     1       3.954   5.786  17.110  0.00  0.00    +0.000 A 
ATOM      5  C   UNL     1       4.634   4.613  16.776  0.00  0.00    +0.000 A 
ATOM      6  C   UNL     1       4.649   3.598  17.728  0.00  0.00    +0.000 A 
ATOM      7  C   UNL     1       4.018   3.684  19.016  0.00  0.00    +0.000 A 
ENDROOT
BRANCH   5   8
ATOM      8  C   UNL     1       5.320   4.466  15.470  0.00  0.00    +0.000 C 
ATOM      9  C   UNL     1       6.476   5.081  15.103  0.00  0.00    +0.000 C 
BRANCH   9  10
ATOM     10  C   UNL     1       7.057   4.854  13.765  0.00  0.00    +0.000 C 
ATOM     11  N   UNL     1       8.113   5.639  13.405  0.00  0.00    +0.000 N 
ATOM     12  O   UNL     1       6.646   3.993  12.993  0.00  0.00    +0.000 OA
ATOM     13  H   UNL     1       8.514   6.382  13.966  0.00  0.00    +0.000 HD
ATOM     14  H   UNL     1       8.515   5.493  12.485  0.00  0.00    +0.000 HD
ENDBRANCH   9  10
BRANCH   9  15
ATOM     15  C   UNL     1       7.158   5.996  16.107  0.00  0.00    +0.000 C 
ATOM     16  N   UNL     1       7.723   6.755  16.940  0.00  0.00    +0.000 NA
ENDBRANCH   9  15
ENDBRANCH   5   8
BRANCH   7  17
ATOM     17  O   UNL     1       4.209   2.490  19.653  0.00  0.00    +0.000 OA
ATOM     18  C   UNL     1       3.886   1.231  19.127  0.00  0.00    +0.000 C 
ENDBRANCH   7  17
BRANCH   1  19
ATOM     19  O   UNL     1       2.672   5.203  20.503  0.00  0.00    +0.000 OA
BRANCH  19  20
ATOM     20  C   UNL     1       1.300   4.877  20.635  0.00  0.00    +0.000 C 
BRANCH  20  22
ATOM     21  C   UNL     1       1.395   2.620  21.691  0.00  0.00    +0.000 C 
ATOM     22  C   UNL     1       1.042   3.399  20.659  0.00  0.00    +0.000 C 
ENDBRANCH  20  22
ENDBRANCH  19  20
ENDBRANCH   1  19
TORSDOF 7
ENDMDL
MODEL 3
REMARK VINA RESULT:      -6.5      2.072      2.920
REMARK  Name = 
REMARK  8 active torsions:
REMARK  status: ('A' for Active; 'I' for Inactive)
REMARK    1  A    between atoms: C_2  and  C_3
REMARK    2  A    between atoms: C_3  and  O_4
REMARK    3  A    between atoms: O_4  and  C_5
REMARK    4  A    between atoms: C_9  and  C_10
REMARK    5  A    between atoms: C_11  and  C_12
REMARK    6  A    between atoms: C_11  and  C_14
REMARK    7  A    between atoms: C_18  and  O_19
REMARK    8  A    between atoms: O_19  and  C_20
REMARK                            x       y       z     vdW  Elec       q    Type
REMARK                         _______ _______ _______ _____ _____    ______ ____
ROOT
ATOM      1  C   UNL     1       2.639   4.772  18.609  0.00  0.00    +0.000 A 
ATOM      2  C   UNL     1       2.954   3.605  17.854  0.00  0.00    +0.000 A 
ATOM      3 BR   UNL     1       2.259   1.894  18.360  0.00  0.00    +0.000 Br
ATOM      4  C   UNL     1       3.792   3.615  16.721  0.00  0.00    +0.000 A 
ATOM      5  C   UNL     1       4.345   4.816  16.273  0.00  0.00    +0.000 A 
ATOM      6  C   UNL     1       4.038   5.963  16.999  0.00  0.00    +0.000 A 
ATOM      7  C   UNL     1       3.198   5.985  18.164  0.00  0.00    +0.000 A 
ENDROOT
BRANCH   5   8
ATOM      8  C   UNL     1       5.207   4.865  15.067  0.00  0.00    +0.000 C 
ATOM      9  C   UNL     1       6.564   4.792  15.054  0.00  0.00    +0.000 C 
BRANCH   9  10
ATOM     10  C   UNL     1       7.309   4.856  13.781  0.00  0.00    +0.000 C 
ATOM     11  N   UNL     1       8.402   5.672  13.742  0.00  0.00    +0.000 N 
ATOM     12  O   UNL     1       6.998   4.206  12.788  0.00  0.00    +0.000 OA
ATOM     13  H   UNL     1       8.730   6.256  14.502  0.00  0.00    +0.000 HD
ATOM     14  H   UNL     1       8.917   5.726  12.869  0.00  0.00    +0.000 HD
ENDBRANCH   9  10
BRANCH   9  15
ATOM     15  C   UNL     1       7.292   4.631  16.379  0.00  0.00    +0.000 C 
ATOM     16  N   UNL     1       7.896   4.497  17.478  0.00  0.00    +0.000 NA
ENDBRANCH   9  15
ENDBRANCH   5   8
BRANCH   7  17
ATOM     17  O   UNL     1       3.161   7.270  18.626  0.00  0.00    +0.000 OA
ATOM     18  C   UNL     1       2.397   8.308  18.074  0.00  0.00    +0.000 C 
ENDBRANCH   7  17
BRANCH   1  19
ATOM     19  O   UNL     1       1.809   4.529  19.674  0.00  0.00    +0.000 OA
BRANCH  19  20
ATOM     20  C   UNL     1       2.286   4.733  20.993  0.00  0.00    +0.000 C 
BRANCH  20  22
ATOM     21  C   UNL     1       1.339   2.524  21.656  0.00  0.00    +0.000 C 
ATOM     22  C   UNL     1       2.249   3.492  21.834  0.00  0.00    +0.000 C 
ENDBRANCH  20  22
ENDBRANCH  19  20
ENDBRANCH   1  19
TORSDOF 7
ENDMDL
MODEL 4
REMARK VINA RESULT:      -6.4      2.909      4.017
REMARK  Name = 
REMARK  8 active torsions:
REMARK  status: ('A' for Active; 'I' for Inactive)
REMARK    1  A    between atoms: C_2  and  C_3
REMARK    2  A    between atoms: C_3  and  O_4
REMARK    3  A    between atoms: O_4  and  C_5
REMARK    4  A    between atoms: C_9  and  C_10
REMARK    5  A    between atoms: C_11  and  C_12
REMARK    6  A    between atoms: C_11  and  C_14
REMARK    7  A    between atoms: C_18  and  O_19
REMARK    8  A    between atoms: O_19  and  C_20
REMARK                            x       y       z     vdW  Elec       q    Type
REMARK                         _______ _______ _______ _____ _____    ______ ____
ROOT
ATOM      1  C   UNL     1       2.203   6.719  19.685  0.00  0.00    +0.000 A 
ATOM      2  C   UNL     1       2.714   5.392  19.583  0.00  0.00    +0.000 A 
ATOM      3 BR   UNL     1       2.299   4.077  20.911  0.00  0.00    +0.000 Br
ATOM      4  C   UNL     1       3.557   4.963  18.538  0.00  0.00    +0.000 A 
ATOM      5  C   UNL     1       3.913   5.850  17.520  0.00  0.00    +0.000 A 
ATOM      6  C   UNL     1       3.414   7.146  17.607  0.00  0.00    +0.000 A 
ATOM      7  C   UNL     1       2.564   7.618  18.665  0.00  0.00    +0.000 A 
ENDROOT
BRANCH   5   8
ATOM      8  C   UNL     1       4.774   5.421  16.391  0.00  0.00    +0.000 C 
ATOM      9  C   UNL     1       6.094   5.106  16.470  0.00  0.00    +0.000 C 
BRANCH   9  10
ATOM     10  C   UNL     1       6.843   4.695  15.265  0.00  0.00    +0.000 C 
ATOM     11  N   UNL     1       6.390   3.594  14.599  0.00  0.00    +0.000 N 
ATOM     12  O   UNL     1       7.822   5.303  14.844  0.00  0.00    +0.000 OA
ATOM     13  H   UNL     1       5.601   3.021  14.874  0.00  0.00    +0.000 HD
ATOM     14  H   UNL     1       6.902   3.302  13.773  0.00  0.00    +0.000 HD
ENDBRANCH   9  10
BRANCH   9  15
ATOM     15  C   UNL     1       6.774   5.177  17.828  0.00  0.00    +0.000 C 
ATOM     16  N   UNL     1       7.338   5.236  18.954  0.00  0.00    +0.000 NA
ENDBRANCH   9  15
ENDBRANCH   5   8
BRANCH   7  17
ATOM     17  O   UNL     1       2.312   8.942  18.436  0.00  0.00    +0.000 OA
ATOM     18  C   UNL     1       1.113   9.462  17.928  0.00  0.00    +0.000 C 
ENDBRANCH   7  17
BRANCH   1  19
ATOM     19  O   UNL     1       1.408   6.916  20.786  0.00  0.00    +0.000 OA
BRANCH  19  20
ATOM     20  C   UNL     1       1.369   8.193  21.400  0.00  0.00    +0.000 C 
BRANCH  20  22
ATOM     21  C   UNL     1      -0.301   9.634  22.562  0.00  0.00    +0.000 C 
ATOM     22  C   UNL     1      -0.024   8.683  21.659  0.00  0.00    +0.000 C 
ENDBRANCH  20  22
ENDBRANCH  19  20
ENDBRANCH   1  19
TORSDOF 7
ENDMDL
MODEL 5
REMARK VINA RESULT:      -6.4      1.808      2.731
REMARK  Name = 
REMARK  8 active torsions:
REMARK  status: ('A' for Active; 'I' for Inactive)
REMARK    1  A    between atoms: C_2  and  C_3
REMARK    2  A    between atoms: C_3  and  O_4
REMARK    3  A    between atoms: O_4  and  C_5
REMARK    4  A    between atoms: C_9  and  C_10
REMARK    5  A    between atoms: C_11  and  C_12
REMARK    6  A    between atoms: C_11  and  C_14
REMARK    7  A    between atoms: C_18  and  O_19
REMARK    8  A    between atoms: O_19  and  C_20
REMARK                            x       y       z     vdW  Elec       q    Type
REMARK                         _______ _______ _______ _____ _____    ______ ____
ROOT
ATOM      1  C   UNL     1       3.246   4.634  19.677  0.00  0.00    +0.000 A 
ATOM      2  C   UNL     1       4.076   3.537  19.306  0.00  0.00    +0.000 A 
ATOM      3 BR   UNL     1       4.399   2.097  20.526  0.00  0.00    +0.000 Br
ATOM      4  C   UNL     1       4.723   3.438  18.058  0.00  0.00    +0.000 A 
ATOM      5  C   UNL     1       4.546   4.439  17.100  0.00  0.00    +0.000 A 
ATOM      6  C   UNL     1       3.731   5.511  17.449  0.00  0.00    +0.000 A 
ATOM      7  C   UNL     1       3.069   5.648  18.717  0.00  0.00    +0.000 A 
ENDROOT
BRANCH   5   8
ATOM      8  C   UNL     1       5.188   4.350  15.766  0.00  0.00    +0.000 C 
ATOM      9  C   UNL     1       6.359   4.940  15.404  0.00  0.00    +0.000 C 
BRANCH   9  10
ATOM     10  C   UNL     1       6.892   4.777  14.037  0.00  0.00    +0.000 C 
ATOM     11  N   UNL     1       7.951   5.562  13.686  0.00  0.00    +0.000 N 
ATOM     12  O   UNL     1       6.438   3.969  13.232  0.00  0.00    +0.000 OA
ATOM     13  H   UNL     1       8.385   6.264  14.274  0.00  0.00    +0.000 HD
ATOM     14  H   UNL     1       8.320   5.460  12.746  0.00  0.00    +0.000 HD
ENDBRANCH   9  10
BRANCH   9  15
ATOM     15  C   UNL     1       7.107   5.758  16.443  0.00  0.00    +0.000 C 
ATOM     16  N   UNL     1       7.728   6.437  17.306  0.00  0.00    +0.000 NA
ENDBRANCH   9  15
ENDBRANCH   5   8
BRANCH   7  17
ATOM     17  O   UNL     1       2.397   6.838  18.709  0.00  0.00    +0.000 OA
ATOM     18  C   UNL     1       2.722   7.945  17.912  0.00  0.00    +0.000 C 
ENDBRANCH   7  17
BRANCH   1  19
ATOM     19  O   UNL     1       2.724   4.524  20.941  0.00  0.00    +0.000 OA
BRANCH  19  20
ATOM     20  C   UNL     1       1.593   3.700  21.161  0.00  0.00    +0.000 C 
BRANCH  20  22
ATOM     21  C   UNL     1       0.609   2.507  19.205  0.00  0.00    +0.000 C 
ATOM     22  C   UNL     1       0.688   3.606  19.968  0.00  0.00    +0.000 C 
ENDBRANCH  20  22
ENDBRANCH  19  20
ENDBRANCH   1  19
TORSDOF 7
ENDMDL
MODEL 6
REMARK VINA RESULT:      -6.3      2.860      3.567
REMARK  Name = 
REMARK  8 active torsions:
REMARK  status: ('A' for Active; 'I' for Inactive)
REMARK    1  A    between atoms: C_2  and  C_3
REMARK    2  A    between atoms: C_3  and  O_4
REMARK    3  A    between atoms: O_4  and  C_5
REMARK    4  A    between atoms: C_9  and  C_10
REMARK    5  A    between atoms: C_11  and  C_12
REMARK    6  A    between atoms: C_11  and  C_14
REMARK    7  A    between atoms: C_18  and  O_19
REMARK    8  A    between atoms: O_19  and  C_20
REMARK                            x       y       z     vdW  Elec       q    Type
REMARK                         _______ _______ _______ _____ _____    ______ ____
ROOT
ATOM      1  C   UNL     1       1.848   7.167  19.900  0.00  0.00    +0.000 A 
ATOM      2  C   UNL     1       2.243   7.809  18.691  0.00  0.00    +0.000 A 
ATOM      3 BR   UNL     1       1.584   9.551  18.246  0.00  0.00    +0.000 Br
ATOM      4  C   UNL     1       3.107   7.222  17.745  0.00  0.00    +0.000 A 
ATOM      5  C   UNL     1       3.642   5.954  17.982  0.00  0.00    +0.000 A 
ATOM      6  C   UNL     1       3.268   5.321  19.164  0.00  0.00    +0.000 A 
ATOM      7  C   UNL     1       2.379   5.886  20.141  0.00  0.00    +0.000 A 
ENDROOT
BRANCH   5   8
ATOM      8  C   UNL     1       4.578   5.321  17.022  0.00  0.00    +0.000 C 
ATOM      9  C   UNL     1       5.871   4.983  17.273  0.00  0.00    +0.000 C 
BRANCH   9  10
ATOM     10  C   UNL     1       6.703   4.359  16.225  0.00  0.00    +0.000 C 
ATOM     11  N   UNL     1       6.052   3.823  15.153  0.00  0.00    +0.000 N 
ATOM     12  O   UNL     1       7.928   4.322  16.276  0.00  0.00    +0.000 OA
ATOM     13  H   UNL     1       5.047   3.794  15.027  0.00  0.00    +0.000 HD
ATOM     14  H   UNL     1       6.616   3.388  14.430  0.00  0.00    +0.000 HD
ENDBRANCH   9  10
BRANCH   9  15
ATOM     15  C   UNL     1       6.431   5.253  18.660  0.00  0.00    +0.000 C 
ATOM     16  N   UNL     1       6.896   5.477  19.811  0.00  0.00    +0.000 NA
ENDBRANCH   9  15
ENDBRANCH   5   8
BRANCH   7  17
ATOM     17  O   UNL     1       2.217   4.965  21.137  0.00  0.00    +0.000 OA
ATOM     18  C   UNL     1       2.279   3.574  20.972  0.00  0.00    +0.000 C 
ENDBRANCH   7  17
BRANCH   1  19
ATOM     19  O   UNL     1       0.996   7.920  20.669  0.00  0.00    +0.000 OA
BRANCH  19  20
ATOM     20  C   UNL     1       1.491   8.569  21.828  0.00  0.00    +0.000 C 
BRANCH  20  22
ATOM     21  C   UNL     1      -0.326   9.608  23.182  0.00  0.00    +0.000 C 
ATOM     22  C   UNL     1       0.644   9.727  22.265  0.00  0.00    +0.000 C 
ENDBRANCH  20  22
ENDBRANCH  19  20
ENDBRANCH   1  19
TORSDOF 7
ENDMDL
MODEL 7
REMARK VINA RESULT:      -6.3      1.121      1.326
REMARK  Name = 
REMARK  8 active torsions:
REMARK  status: ('A' for Active; 'I' for Inactive)
REMARK    1  A    between atoms: C_2  and  C_3
REMARK    2  A    between atoms: C_3  and  O_4
REMARK    3  A    between atoms: O_4  and  C_5
REMARK    4  A    between atoms: C_9  and  C_10
REMARK    5  A    between atoms: C_11  and  C_12
REMARK    6  A    between atoms: C_11  and  C_14
REMARK    7  A    between atoms: C_18  and  O_19
REMARK    8  A    between atoms: O_19  and  C_20
REMARK                            x       y       z     vdW  Elec       q    Type
REMARK                         _______ _______ _______ _____ _____    ______ ____
ROOT
ATOM      1  C   UNL     1       2.711   4.490  18.695  0.00  0.00    +0.000 A 
ATOM      2  C   UNL     1       3.153   5.711  18.108  0.00  0.00    +0.000 A 
ATOM      3 BR   UNL     1       2.622   7.399  18.841  0.00  0.00    +0.000 Br
ATOM      4  C   UNL     1       3.975   5.772  16.965  0.00  0.00    +0.000 A 
ATOM      5  C   UNL     1       4.417   4.593  16.361  0.00  0.00    +0.000 A 
ATOM      6  C   UNL     1       3.997   3.394  16.930  0.00  0.00    +0.000 A 
ATOM      7  C   UNL     1       3.149   3.299  18.087  0.00  0.00    +0.000 A 
ENDROOT
BRANCH   5   8
ATOM      8  C   UNL     1       5.307   4.622  15.174  0.00  0.00    +0.000 C 
ATOM      9  C   UNL     1       6.592   5.066  15.153  0.00  0.00    +0.000 C 
BRANCH   9  10
ATOM     10  C   UNL     1       7.374   5.046  13.900  0.00  0.00    +0.000 C 
ATOM     11  N   UNL     1       6.934   4.220  12.907  0.00  0.00    +0.000 N 
ATOM     12  O   UNL     1       8.369   5.740  13.720  0.00  0.00    +0.000 OA
ATOM     13  H   UNL     1       6.133   3.601  12.966  0.00  0.00    +0.000 HD
ATOM     14  H   UNL     1       7.468   4.196  12.045  0.00  0.00    +0.000 HD
ENDBRANCH   9  10
BRANCH   9  15
ATOM     15  C   UNL     1       7.205   5.570  16.449  0.00  0.00    +0.000 C 
ATOM     16  N   UNL     1       7.713   5.988  17.525  0.00  0.00    +0.000 NA
ENDBRANCH   9  15
ENDBRANCH   5   8
BRANCH   7  17
ATOM     17  O   UNL     1       2.920   1.973  18.325  0.00  0.00    +0.000 OA
ATOM     18  C   UNL     1       3.859   1.068  18.840  0.00  0.00    +0.000 C 
ENDBRANCH   7  17
BRANCH   1  19
ATOM     19  O   UNL     1       1.915   4.668  19.798  0.00  0.00    +0.000 OA
BRANCH  19  20
ATOM     20  C   UNL     1       0.864   3.754  20.056  0.00  0.00    +0.000 C 
BRANCH  20  22
ATOM     21  C   UNL     1       2.358   2.762  21.788  0.00  0.00    +0.000 C 
ATOM     22  C   UNL     1       1.165   2.808  21.180  0.00  0.00    +0.000 C 
ENDBRANCH  20  22
ENDBRANCH  19  20
ENDBRANCH   1  19
TORSDOF 7
ENDMDL
MODEL 8
REMARK VINA RESULT:      -6.1      2.646      3.331
REMARK  Name = 
REMARK  8 active torsions:
REMARK  status: ('A' for Active; 'I' for Inactive)
REMARK    1  A    between atoms: C_2  and  C_3
REMARK    2  A    between atoms: C_3  and  O_4
REMARK    3  A    between atoms: O_4  and  C_5
REMARK    4  A    between atoms: C_9  and  C_10
REMARK    5  A    between atoms: C_11  and  C_12
REMARK    6  A    between atoms: C_11  and  C_14
REMARK    7  A    between atoms: C_18  and  O_19
REMARK    8  A    between atoms: O_19  and  C_20
REMARK                            x       y       z     vdW  Elec       q    Type
REMARK                         _______ _______ _______ _____ _____    ______ ____
ROOT
ATOM      1  C   UNL     1       2.149   7.044  19.657  0.00  0.00    +0.000 A 
ATOM      2  C   UNL     1       2.472   7.680  18.424  0.00  0.00    +0.000 A 
ATOM      3 BR   UNL     1       1.776   9.414  18.004  0.00  0.00    +0.000 Br
ATOM      4  C   UNL     1       3.286   7.092  17.435  0.00  0.00    +0.000 A 
ATOM      5  C   UNL     1       3.842   5.829  17.651  0.00  0.00    +0.000 A 
ATOM      6  C   UNL     1       3.540   5.203  18.856  0.00  0.00    +0.000 A 
ATOM      7  C   UNL     1       2.703   5.769  19.877  0.00  0.00    +0.000 A 
ENDROOT
BRANCH   5   8
ATOM      8  C   UNL     1       4.728   5.196  16.644  0.00  0.00    +0.000 C 
ATOM      9  C   UNL     1       5.988   5.595  16.327  0.00  0.00    +0.000 C 
BRANCH   9  10
ATOM     10  C   UNL     1       6.768   4.878  15.298  0.00  0.00    +0.000 C 
ATOM     11  N   UNL     1       6.319   3.645  14.927  0.00  0.00    +0.000 N 
ATOM     12  O   UNL     1       7.770   5.348  14.768  0.00  0.00    +0.000 OA
ATOM     13  H   UNL     1       5.513   3.169  15.314  0.00  0.00    +0.000 HD
ATOM     14  H   UNL     1       6.853   3.143  14.224  0.00  0.00    +0.000 HD
ENDBRANCH   9  10
BRANCH   9  15
ATOM     15  C   UNL     1       6.576   6.787  17.065  0.00  0.00    +0.000 C 
ATOM     16  N   UNL     1       7.063   7.776  17.678  0.00  0.00    +0.000 NA
ENDBRANCH   9  15
ENDBRANCH   5   8
BRANCH   7  17
ATOM     17  O   UNL     1       2.603   4.854  20.888  0.00  0.00    +0.000 OA
ATOM     18  C   UNL     1       1.601   3.880  21.002  0.00  0.00    +0.000 C 
ENDBRANCH   7  17
BRANCH   1  19
ATOM     19  O   UNL     1       1.337   7.798  20.467  0.00  0.00    +0.000 OA
BRANCH  19  20
ATOM     20  C   UNL     1       1.856   8.336  21.671  0.00  0.00    +0.000 C 
BRANCH  20  22
ATOM     21  C   UNL     1      -0.370   9.133  22.462  0.00  0.00    +0.000 C 
ATOM     22  C   UNL     1       0.945   9.341  22.311  0.00  0.00    +0.000 C 
ENDBRANCH  20  22
ENDBRANCH  19  20
ENDBRANCH   1  19
TORSDOF 7
ENDMDL
MODEL 9
REMARK VINA RESULT:      -6.0      2.279      2.779
REMARK  Name = 
REMARK  8 active torsions:
REMARK  status: ('A' for Active; 'I' for Inactive)
REMARK    1  A    between atoms: C_2  and  C_3
REMARK    2  A    between atoms: C_3  and  O_4
REMARK    3  A    between atoms: O_4  and  C_5
REMARK    4  A    between atoms: C_9  and  C_10
REMARK    5  A    between atoms: C_11  and  C_12
REMARK    6  A    between atoms: C_11  and  C_14
REMARK    7  A    between atoms: C_18  and  O_19
REMARK    8  A    between atoms: O_19  and  C_20
REMARK                            x       y       z     vdW  Elec       q    Type
REMARK                         _______ _______ _______ _____ _____    ______ ____
ROOT
ATOM      1  C   UNL     1       3.810   3.843  19.405  0.00  0.00    +0.000 A 
ATOM      2  C   UNL     1       3.182   3.180  18.312  0.00  0.00    +0.000 A 
ATOM      3 BR   UNL     1       1.436   2.416  18.501  0.00  0.00    +0.000 Br
ATOM      4  C   UNL     1       3.786   3.021  17.048  0.00  0.00    +0.000 A 
ATOM      5  C   UNL     1       5.057   3.547  16.812  0.00  0.00    +0.000 A 
ATOM      6  C   UNL     1       5.677   4.203  17.872  0.00  0.00    +0.000 A 
ATOM      7  C   UNL     1       5.094   4.370  19.174  0.00  0.00    +0.000 A 
ENDROOT
BRANCH   5   8
ATOM      8  C   UNL     1       5.708   3.423  15.485  0.00  0.00    +0.000 C 
ATOM      9  C   UNL     1       5.940   4.441  14.613  0.00  0.00    +0.000 C 
BRANCH   9  10
ATOM     10  C   UNL     1       6.596   4.184  13.315  0.00  0.00    +0.000 C 
ATOM     11  N   UNL     1       6.198   3.075  12.628  0.00  0.00    +0.000 N 
ATOM     12  O   UNL     1       7.451   4.924  12.838  0.00  0.00    +0.000 OA
ATOM     13  H   UNL     1       5.512   2.400  12.943  0.00  0.00    +0.000 HD
ATOM     14  H   UNL     1       6.648   2.889  11.737  0.00  0.00    +0.000 HD
ENDBRANCH   9  10
BRANCH   9  15
ATOM     15  C   UNL     1       5.520   5.846  15.013  0.00  0.00    +0.000 C 
ATOM     16  N   UNL     1       5.171   7.011  15.346  0.00  0.00    +0.000 NA
ENDBRANCH   9  15
ENDBRANCH   5   8
BRANCH   7  17
ATOM     17  O   UNL     1       6.006   5.022  19.957  0.00  0.00    +0.000 OA
ATOM     18  C   UNL     1       7.194   5.608  19.498  0.00  0.00    +0.000 C 
ENDBRANCH   7  17
BRANCH   1  19
ATOM     19  O   UNL     1       3.041   3.876  20.542  0.00  0.00    +0.000 OA
BRANCH  19  20
ATOM     20  C   UNL     1       2.538   5.116  21.009  0.00  0.00    +0.000 C 
BRANCH  20  22
ATOM     21  C   UNL     1       2.371   7.107  19.518  0.00  0.00    +0.000 C 
ATOM     22  C   UNL     1       1.882   5.931  19.934  0.00  0.00    +0.000 C 
ENDBRANCH  20  22
ENDBRANCH  19  20
ENDBRANCH   1  19
TORSDOF 7
ENDMDL
