MODEL 1
REMARK VINA RESULT:      -7.4      0.000      0.000
REMARK  Name = 
REMARK  4 active torsions:
REMARK  status: ('A' for Active; 'I' for Inactive)
REMARK    1  A    between atoms: C_2  and  C_3
REMARK    2  A    between atoms: C_3  and  N_4
REMARK    3  A    between atoms: N_20  and  C_21
REMARK    4  A    between atoms: C_24  and  O_25
REMARK                            x       y       z     vdW  Elec       q    Type
REMARK                         _______ _______ _______ _____ _____    ______ ____
ROOT
ATOM      1  N   UNL     1       1.801   7.871  19.973  0.00  0.00    +0.000 N 
ATOM      2  C   UNL     1       2.127   6.543  19.728  0.00  0.00    +0.000 C 
ATOM      3  O   UNL     1       1.738   5.584  20.375  0.00  0.00    +0.000 OA
ATOM      4  C   UNL     1       2.943   6.466  18.506  0.00  0.00    +0.000 C 
ATOM      5  C   UNL     1       3.963   5.613  18.331  0.00  0.00    +0.000 C 
ATOM      6  C   UNL     1       4.493   4.679  19.397  0.00  0.00    +0.000 C 
ATOM      7  O   UNL     1       4.150   4.531  20.561  0.00  0.00    +0.000 OA
ATOM      8  N   UNL     1       5.610   4.090  18.822  0.00  0.00    +0.000 N 
ATOM      9  C   UNL     1       5.871   4.612  17.560  0.00  0.00    +0.000 A 
ATOM     10  C   UNL     1       6.959   4.322  16.758  0.00  0.00    +0.000 A 
ATOM     11  C   UNL     1       7.059   4.996  15.541  0.00  0.00    +0.000 A 
ATOM     12  C   UNL     1       6.074   5.914  15.146  0.00  0.00    +0.000 A 
ATOM     13  C   UNL     1       4.974   6.177  15.966  0.00  0.00    +0.000 A 
ATOM     14  C   UNL     1       4.891   5.535  17.193  0.00  0.00    +0.000 A 
ATOM     15  S   UNL     1       2.509   7.802  17.516  0.00  0.00    +0.000 S 
ATOM     16  C   UNL     1       1.865   8.726  18.891  0.00  0.00    +0.000 C 
ATOM     17  N   UNL     1       1.571   9.949  18.585  0.00  0.00    +0.000 NA
ATOM     18  H   UNL     1       6.209   3.452  19.330  0.00  0.00    +0.000 HD
ENDROOT
BRANCH  17  19
ATOM     19  C   UNL     1       0.877  10.983  19.221  0.00  0.00    +0.000 A 
ATOM     20  C   UNL     1       1.401  11.873  20.135  0.00  0.00    +0.000 A 
ATOM     21  C   UNL     1       0.630  12.685  20.958  0.00  0.00    +0.000 A 
ATOM     22  C   UNL     1      -0.730  12.733  20.758  0.00  0.00    +0.000 A 
ATOM     23  C   UNL     1      -1.296  12.009  19.719  0.00  0.00    +0.000 A 
ATOM     24  C   UNL     1      -0.498  11.119  18.973  0.00  0.00    +0.000 A 
BRANCH  22  25
ATOM     25  O   UNL     1      -1.512  13.488  21.572  0.00  0.00    +0.000 OA
ATOM     26  H   UNL     1      -1.853  14.234  21.046  0.00  0.00    +0.000 HD
ENDBRANCH  22  25
ENDBRANCH  17  19
BRANCH   1  27
ATOM     27  C   UNL     1       1.520   8.126  21.365  0.00  0.00    +0.000 C 
BRANCH  27  29
ATOM     28  C   UNL     1      -0.409   9.287  22.472  0.00  0.00    +0.000 C 
ATOM     29  C   UNL     1       0.066   8.461  21.532  0.00  0.00    +0.000 C 
ENDBRANCH  27  29
ENDBRANCH   1  27
TORSDOF 4
ENDMDL
MODEL 2
REMARK VINA RESULT:      -6.6      2.643      8.607
REMARK  Name = 
REMARK  4 active torsions:
REMARK  status: ('A' for Active; 'I' for Inactive)
REMARK    1  A    between atoms: C_2  and  C_3
REMARK    2  A    between atoms: C_3  and  N_4
REMARK    3  A    between atoms: N_20  and  C_21
REMARK    4  A    between atoms: C_24  and  O_25
REMARK                            x       y       z     vdW  Elec       q    Type
REMARK                         _______ _______ _______ _____ _____    ______ ____
ROOT
ATOM      1  N   UNL     1       0.846  10.171  20.165  0.00  0.00    +0.000 N 
ATOM      2  C   UNL     1       0.129  11.350  20.326  0.00  0.00    +0.000 C 
ATOM      3  O   UNL     1       0.400  12.248  21.108  0.00  0.00    +0.000 OA
ATOM      4  C   UNL     1      -0.960  11.388  19.337  0.00  0.00    +0.000 C 
ATOM      5  C   UNL     1      -2.179  11.893  19.575  0.00  0.00    +0.000 C 
ATOM      6  C   UNL     1      -2.650  12.401  20.921  0.00  0.00    +0.000 C 
ATOM      7  O   UNL     1      -2.076  12.433  21.999  0.00  0.00    +0.000 OA
ATOM      8  N   UNL     1      -3.992  12.702  20.731  0.00  0.00    +0.000 N 
ATOM      9  C   UNL     1      -4.416  12.366  19.450  0.00  0.00    +0.000 A 
ATOM     10  C   UNL     1      -5.707  12.439  18.965  0.00  0.00    +0.000 A 
ATOM     11  C   UNL     1      -5.930  12.003  17.658  0.00  0.00    +0.000 A 
ATOM     12  C   UNL     1      -4.870  11.532  16.870  0.00  0.00    +0.000 A 
ATOM     13  C   UNL     1      -3.569  11.484  17.377  0.00  0.00    +0.000 A 
ATOM     14  C   UNL     1      -3.351  11.882  18.688  0.00  0.00    +0.000 A 
ATOM     15  S   UNL     1      -0.453  10.463  17.982  0.00  0.00    +0.000 S 
ATOM     16  C   UNL     1       0.739   9.553  18.935  0.00  0.00    +0.000 C 
ATOM     17  N   UNL     1       1.260   8.564  18.283  0.00  0.00    +0.000 NA
ATOM     18  H   UNL     1      -4.589  13.014  21.485  0.00  0.00    +0.000 HD
ENDROOT
BRANCH  17  19
ATOM     19  C   UNL     1       2.340   7.703  18.499  0.00  0.00    +0.000 A 
ATOM     20  C   UNL     1       3.447   7.567  17.687  0.00  0.00    +0.000 A 
ATOM     21  C   UNL     1       4.344   6.508  17.768  0.00  0.00    +0.000 A 
ATOM     22  C   UNL     1       4.228   5.618  18.810  0.00  0.00    +0.000 A 
ATOM     23  C   UNL     1       3.253   5.817  19.776  0.00  0.00    +0.000 A 
ATOM     24  C   UNL     1       2.299   6.839  19.605  0.00  0.00    +0.000 A 
BRANCH  22  25
ATOM     25  O   UNL     1       5.067   4.553  18.893  0.00  0.00    +0.000 OA
ATOM     26  H   UNL     1       5.754   4.768  19.548  0.00  0.00    +0.000 HD
ENDBRANCH  22  25
ENDBRANCH  17  19
BRANCH   1  27
ATOM     27  C   UNL     1       1.528   9.767  21.371  0.00  0.00    +0.000 C 
BRANCH  27  29
ATOM     28  C   UNL     1       0.018   9.449  23.349  0.00  0.00    +0.000 C 
ATOM     29  C   UNL     1       0.592   8.974  22.238  0.00  0.00    +0.000 C 
ENDBRANCH  27  29
ENDBRANCH   1  27
TORSDOF 4
ENDMDL
MODEL 3
REMARK VINA RESULT:      -6.5      3.367      5.052
REMARK  Name = 
REMARK  4 active torsions:
REMARK  status: ('A' for Active; 'I' for Inactive)
REMARK    1  A    between atoms: C_2  and  C_3
REMARK    2  A    between atoms: C_3  and  N_4
REMARK    3  A    between atoms: N_20  and  C_21
REMARK    4  A    between atoms: C_24  and  O_25
REMARK                            x       y       z     vdW  Elec       q    Type
REMARK                         _______ _______ _______ _____ _____    ______ ____
ROOT
ATOM      1  N   UNL     1       0.212  11.543  20.537  0.00  0.00    +0.000 N 
ATOM      2  C   UNL     1       1.282  10.982  19.853  0.00  0.00    +0.000 C 
ATOM      3  O   UNL     1       2.017  11.571  19.075  0.00  0.00    +0.000 OA
ATOM      4  C   UNL     1       1.450   9.586  20.283  0.00  0.00    +0.000 C 
ATOM      5  C   UNL     1       1.813   8.583  19.470  0.00  0.00    +0.000 C 
ATOM      6  C   UNL     1       2.002   8.716  17.975  0.00  0.00    +0.000 C 
ATOM      7  O   UNL     1       1.852   9.682  17.242  0.00  0.00    +0.000 OA
ATOM      8  N   UNL     1       2.247   7.422  17.537  0.00  0.00    +0.000 N 
ATOM      9  C   UNL     1       2.152   6.503  18.576  0.00  0.00    +0.000 A 
ATOM     10  C   UNL     1       2.237   5.128  18.470  0.00  0.00    +0.000 A 
ATOM     11  C   UNL     1       2.064   4.380  19.634  0.00  0.00    +0.000 A 
ATOM     12  C   UNL     1       1.835   5.013  20.865  0.00  0.00    +0.000 A 
ATOM     13  C   UNL     1       1.770   6.406  20.950  0.00  0.00    +0.000 A 
ATOM     14  C   UNL     1       1.906   7.151  19.788  0.00  0.00    +0.000 A 
ATOM     15  S   UNL     1       0.856   9.471  21.891  0.00  0.00    +0.000 S 
ATOM     16  C   UNL     1      -0.148  10.928  21.720  0.00  0.00    +0.000 C 
ATOM     17  N   UNL     1      -0.946  11.113  22.721  0.00  0.00    +0.000 NA
ATOM     18  H   UNL     1       2.358   7.193  16.558  0.00  0.00    +0.000 HD
ENDROOT
BRANCH  17  19
ATOM     19  C   UNL     1      -1.759  12.166  23.151  0.00  0.00    +0.000 A 
ATOM     20  C   UNL     1      -1.376  13.483  23.296  0.00  0.00    +0.000 A 
ATOM     21  C   UNL     1      -2.111  14.432  23.997  0.00  0.00    +0.000 A 
ATOM     22  C   UNL     1      -3.367  14.100  24.447  0.00  0.00    +0.000 A 
ATOM     23  C   UNL     1      -3.891  12.849  24.156  0.00  0.00    +0.000 A 
ATOM     24  C   UNL     1      -3.079  11.879  23.535  0.00  0.00    +0.000 A 
BRANCH  22  25
ATOM     25  O   UNL     1      -4.092  14.995  25.167  0.00  0.00    +0.000 OA
ATOM     26  H   UNL     1      -3.499  15.390  25.830  0.00  0.00    +0.000 HD
ENDBRANCH  22  25
ENDBRANCH  17  19
BRANCH   1  27
ATOM     27  C   UNL     1      -0.384  12.649  19.827  0.00  0.00    +0.000 C 
BRANCH  27  29
ATOM     28  C   UNL     1      -2.871  12.355  19.666  0.00  0.00    +0.000 C 
ATOM     29  C   UNL     1      -1.646  12.193  19.152  0.00  0.00    +0.000 C 
ENDBRANCH  27  29
ENDBRANCH   1  27
TORSDOF 4
ENDMDL
MODEL 4
REMARK VINA RESULT:      -6.4      3.370      5.256
REMARK  Name = 
REMARK  4 active torsions:
REMARK  status: ('A' for Active; 'I' for Inactive)
REMARK    1  A    between atoms: C_2  and  C_3
REMARK    2  A    between atoms: C_3  and  N_4
REMARK    3  A    between atoms: N_20  and  C_21
REMARK    4  A    between atoms: C_24  and  O_25
REMARK                            x       y       z     vdW  Elec       q    Type
REMARK                         _______ _______ _______ _____ _____    ______ ____
ROOT
ATOM      1  N   UNL     1       0.008  11.746  20.750  0.00  0.00    +0.000 N 
ATOM      2  C   UNL     1       1.113  11.272  20.056  0.00  0.00    +0.000 C 
ATOM      3  O   UNL     1       1.841  11.938  19.336  0.00  0.00    +0.000 OA
ATOM      4  C   UNL     1       1.325   9.857  20.397  0.00  0.00    +0.000 C 
ATOM      5  C   UNL     1       1.743   8.925  19.529  0.00  0.00    +0.000 C 
ATOM      6  C   UNL     1       1.959   9.164  18.050  0.00  0.00    +0.000 C 
ATOM      7  O   UNL     1       1.787  10.170  17.379  0.00  0.00    +0.000 OA
ATOM      8  N   UNL     1       2.262   7.912  17.533  0.00  0.00    +0.000 N 
ATOM      9  C   UNL     1       2.180   6.923  18.507  0.00  0.00    +0.000 A 
ATOM     10  C   UNL     1       2.320   5.562  18.313  0.00  0.00    +0.000 A 
ATOM     11  C   UNL     1       2.151   4.732  19.421  0.00  0.00    +0.000 A 
ATOM     12  C   UNL     1       1.872   5.273  20.686  0.00  0.00    +0.000 A 
ATOM     13  C   UNL     1       1.753   6.654  20.861  0.00  0.00    +0.000 A 
ATOM     14  C   UNL     1       1.885   7.478  19.753  0.00  0.00    +0.000 A 
ATOM     15  S   UNL     1       0.703   9.614  21.980  0.00  0.00    +0.000 S 
ATOM     16  C   UNL     1      -0.353  11.041  21.881  0.00  0.00    +0.000 C 
ATOM     17  N   UNL     1      -1.178  11.129  22.874  0.00  0.00    +0.000 NA
ATOM     18  H   UNL     1       2.402   7.753  16.544  0.00  0.00    +0.000 HD
ENDROOT
BRANCH  17  19
ATOM     19  C   UNL     1      -2.040  12.120  23.352  0.00  0.00    +0.000 A 
ATOM     20  C   UNL     1      -3.379  11.964  23.641  0.00  0.00    +0.000 A 
ATOM     21  C   UNL     1      -4.261  13.023  23.827  0.00  0.00    +0.000 A 
ATOM     22  C   UNL     1      -3.761  14.302  23.884  0.00  0.00    +0.000 A 
ATOM     23  C   UNL     1      -2.392  14.507  23.800  0.00  0.00    +0.000 A 
ATOM     24  C   UNL     1      -1.541  13.424  23.508  0.00  0.00    +0.000 A 
BRANCH  22  25
ATOM     25  O   UNL     1      -4.605  15.357  24.027  0.00  0.00    +0.000 OA
ATOM     26  H   UNL     1      -4.062  16.150  24.188  0.00  0.00    +0.000 HD
ENDBRANCH  22  25
ENDBRANCH  17  19
BRANCH   1  27
ATOM     27  C   UNL     1      -0.615  12.874  20.100  0.00  0.00    +0.000 C 
BRANCH  27  29
ATOM     28  C   UNL     1      -3.115  12.693  19.994  0.00  0.00    +0.000 C 
ATOM     29  C   UNL     1      -1.908  12.442  19.471  0.00  0.00    +0.000 C 
ENDBRANCH  27  29
ENDBRANCH   1  27
TORSDOF 4
ENDMDL
MODEL 5
REMARK VINA RESULT:      -6.4      7.439     11.742
REMARK  Name = 
REMARK  4 active torsions:
REMARK  status: ('A' for Active; 'I' for Inactive)
REMARK    1  A    between atoms: C_2  and  C_3
REMARK    2  A    between atoms: C_3  and  N_4
REMARK    3  A    between atoms: N_20  and  C_21
REMARK    4  A    between atoms: C_24  and  O_25
REMARK                            x       y       z     vdW  Elec       q    Type
REMARK                         _______ _______ _______ _____ _____    ______ ____
ROOT
ATOM      1  N   UNL     1      -5.554  11.987  20.222  0.00  0.00    +0.000 N 
ATOM      2  C   UNL     1      -6.021  12.265  21.500  0.00  0.00    +0.000 C 
ATOM      3  O   UNL     1      -7.019  11.783  22.013  0.00  0.00    +0.000 OA
ATOM      4  C   UNL     1      -5.072  13.164  22.174  0.00  0.00    +0.000 C 
ATOM      5  C   UNL     1      -5.429  14.151  23.008  0.00  0.00    +0.000 C 
ATOM      6  C   UNL     1      -6.858  14.555  23.299  0.00  0.00    +0.000 C 
ATOM      7  O   UNL     1      -7.909  14.120  22.852  0.00  0.00    +0.000 OA
ATOM      8  N   UNL     1      -6.747  15.682  24.101  0.00  0.00    +0.000 N 
ATOM      9  C   UNL     1      -5.420  16.060  24.272  0.00  0.00    +0.000 A 
ATOM     10  C   UNL     1      -4.963  17.188  24.925  0.00  0.00    +0.000 A 
ATOM     11  C   UNL     1      -3.586  17.411  24.940  0.00  0.00    +0.000 A 
ATOM     12  C   UNL     1      -2.707  16.503  24.330  0.00  0.00    +0.000 A 
ATOM     13  C   UNL     1      -3.192  15.360  23.691  0.00  0.00    +0.000 A 
ATOM     14  C   UNL     1      -4.563  15.155  23.643  0.00  0.00    +0.000 A 
ATOM     15  S   UNL     1      -3.520  12.870  21.497  0.00  0.00    +0.000 S 
ATOM     16  C   UNL     1      -4.202  12.172  20.011  0.00  0.00    +0.000 C 
ATOM     17  N   UNL     1      -3.311  11.960  19.097  0.00  0.00    +0.000 NA
ATOM     18  H   UNL     1      -7.553  16.209  24.409  0.00  0.00    +0.000 HD
ENDROOT
BRANCH  17  19
ATOM     19  C   UNL     1      -3.293  11.273  17.880  0.00  0.00    +0.000 A 
ATOM     20  C   UNL     1      -2.457  10.228  17.548  0.00  0.00    +0.000 A 
ATOM     21  C   UNL     1      -2.264   9.771  16.249  0.00  0.00    +0.000 A 
ATOM     22  C   UNL     1      -3.057  10.273  15.244  0.00  0.00    +0.000 A 
ATOM     23  C   UNL     1      -4.056  11.185  15.549  0.00  0.00    +0.000 A 
ATOM     24  C   UNL     1      -4.154  11.701  16.856  0.00  0.00    +0.000 A 
BRANCH  22  25
ATOM     25  O   UNL     1      -2.864   9.872  13.960  0.00  0.00    +0.000 OA
ATOM     26  H   UNL     1      -2.192  10.456  13.566  0.00  0.00    +0.000 HD
ENDBRANCH  22  25
ENDBRANCH  17  19
BRANCH   1  27
ATOM     27  C   UNL     1      -6.610  11.616  19.311  0.00  0.00    +0.000 C 
BRANCH  27  29
ATOM     28  C   UNL     1      -7.144   9.195  19.693  0.00  0.00    +0.000 C 
ATOM     29  C   UNL     1      -6.515  10.151  18.998  0.00  0.00    +0.000 C 
ENDBRANCH  27  29
ENDBRANCH   1  27
TORSDOF 4
ENDMDL
MODEL 6
REMARK VINA RESULT:      -6.2      2.809      4.207
REMARK  Name = 
REMARK  4 active torsions:
REMARK  status: ('A' for Active; 'I' for Inactive)
REMARK    1  A    between atoms: C_2  and  C_3
REMARK    2  A    between atoms: C_3  and  N_4
REMARK    3  A    between atoms: N_20  and  C_21
REMARK    4  A    between atoms: C_24  and  O_25
REMARK                            x       y       z     vdW  Elec       q    Type
REMARK                         _______ _______ _______ _____ _____    ______ ____
ROOT
ATOM      1  N   UNL     1       0.760  11.528  20.023  0.00  0.00    +0.000 N 
ATOM      2  C   UNL     1       0.389  10.190  20.052  0.00  0.00    +0.000 C 
ATOM      3  O   UNL     1      -0.586   9.734  20.629  0.00  0.00    +0.000 OA
ATOM      4  C   UNL     1       1.306   9.419  19.199  0.00  0.00    +0.000 C 
ATOM      5  C   UNL     1       1.735   8.179  19.478  0.00  0.00    +0.000 C 
ATOM      6  C   UNL     1       1.426   7.432  20.758  0.00  0.00    +0.000 C 
ATOM      7  O   UNL     1       0.791   7.779  21.742  0.00  0.00    +0.000 OA
ATOM      8  N   UNL     1       2.168   6.263  20.668  0.00  0.00    +0.000 N 
ATOM      9  C   UNL     1       2.954   6.242  19.521  0.00  0.00    +0.000 A 
ATOM     10  C   UNL     1       3.883   5.279  19.177  0.00  0.00    +0.000 A 
ATOM     11  C   UNL     1       4.607   5.474  18.001  0.00  0.00    +0.000 A 
ATOM     12  C   UNL     1       4.376   6.598  17.195  0.00  0.00    +0.000 A 
ATOM     13  C   UNL     1       3.419   7.550  17.555  0.00  0.00    +0.000 A 
ATOM     14  C   UNL     1       2.723   7.377  18.742  0.00  0.00    +0.000 A 
ATOM     15  S   UNL     1       1.886  10.481  17.980  0.00  0.00    +0.000 S 
ATOM     16  C   UNL     1       1.517  11.930  18.940  0.00  0.00    +0.000 C 
ATOM     17  N   UNL     1       1.989  13.016  18.419  0.00  0.00    +0.000 NA
ATOM     18  H   UNL     1       2.203   5.584  21.417  0.00  0.00    +0.000 HD
ENDROOT
BRANCH  17  19
ATOM     19  C   UNL     1       1.813  14.381  18.661  0.00  0.00    +0.000 A 
ATOM     20  C   UNL     1       0.608  15.053  18.696  0.00  0.00    +0.000 A 
ATOM     21  C   UNL     1       0.490  16.437  18.643  0.00  0.00    +0.000 A 
ATOM     22  C   UNL     1       1.628  17.205  18.717  0.00  0.00    +0.000 A 
ATOM     23  C   UNL     1       2.860  16.590  18.885  0.00  0.00    +0.000 A 
ATOM     24  C   UNL     1       2.952  15.185  18.830  0.00  0.00    +0.000 A 
BRANCH  22  25
ATOM     25  O   UNL     1       1.545  18.558  18.629  0.00  0.00    +0.000 OA
ATOM     26  H   UNL     1       0.634  18.814  18.862  0.00  0.00    +0.000 HD
ENDBRANCH  22  25
ENDBRANCH  17  19
BRANCH   1  27
ATOM     27  C   UNL     1       0.332  12.249  21.197  0.00  0.00    +0.000 C 
BRANCH  27  29
ATOM     28  C   UNL     1      -2.078  12.770  21.660  0.00  0.00    +0.000 C 
ATOM     29  C   UNL     1      -0.974  12.935  20.920  0.00  0.00    +0.000 C 
ENDBRANCH  27  29
ENDBRANCH   1  27
TORSDOF 4
ENDMDL
MODEL 7
REMARK VINA RESULT:      -6.2      2.389      8.114
REMARK  Name = 
REMARK  4 active torsions:
REMARK  status: ('A' for Active; 'I' for Inactive)
REMARK    1  A    between atoms: C_2  and  C_3
REMARK    2  A    between atoms: C_3  and  N_4
REMARK    3  A    between atoms: N_20  and  C_21
REMARK    4  A    between atoms: C_24  and  O_25
REMARK                            x       y       z     vdW  Elec       q    Type
REMARK                         _______ _______ _______ _____ _____    ______ ____
ROOT
ATOM      1  N   UNL     1       1.403   9.142  19.867  0.00  0.00    +0.000 N 
ATOM      2  C   UNL     1       0.804  10.394  19.812  0.00  0.00    +0.000 C 
ATOM      3  O   UNL     1       1.045  11.332  20.556  0.00  0.00    +0.000 OA
ATOM      4  C   UNL     1      -0.102  10.442  18.654  0.00  0.00    +0.000 C 
ATOM      5  C   UNL     1      -1.280  11.082  18.643  0.00  0.00    +0.000 C 
ATOM      6  C   UNL     1      -1.901  11.759  19.846  0.00  0.00    +0.000 C 
ATOM      7  O   UNL     1      -1.506  11.838  20.999  0.00  0.00    +0.000 OA
ATOM      8  N   UNL     1      -3.153  12.168  19.410  0.00  0.00    +0.000 N 
ATOM      9  C   UNL     1      -3.402  11.754  18.106  0.00  0.00    +0.000 A 
ATOM     10  C   UNL     1      -4.583  11.905  17.406  0.00  0.00    +0.000 A 
ATOM     11  C   UNL     1      -4.642  11.369  16.118  0.00  0.00    +0.000 A 
ATOM     12  C   UNL     1      -3.528  10.725  15.559  0.00  0.00    +0.000 A 
ATOM     13  C   UNL     1      -2.338  10.601  16.281  0.00  0.00    +0.000 A 
ATOM     14  C   UNL     1      -2.290  11.100  17.574  0.00  0.00    +0.000 A 
ATOM     15  S   UNL     1       0.509   9.347  17.480  0.00  0.00    +0.000 S 
ATOM     16  C   UNL     1       1.426   8.422  18.689  0.00  0.00    +0.000 C 
ATOM     17  N   UNL     1       1.932   7.330  18.214  0.00  0.00    +0.000 NA
ATOM     18  H   UNL     1      -3.825  12.607  20.026  0.00  0.00    +0.000 HD
ENDROOT
BRANCH  17  19
ATOM     19  C   UNL     1       2.862   6.394  18.674  0.00  0.00    +0.000 A 
ATOM     20  C   UNL     1       4.166   6.262  18.244  0.00  0.00    +0.000 A 
ATOM     21  C   UNL     1       4.960   5.151  18.502  0.00  0.00    +0.000 A 
ATOM     22  C   UNL     1       4.492   4.186  19.362  0.00  0.00    +0.000 A 
ATOM     23  C   UNL     1       3.266   4.359  19.986  0.00  0.00    +0.000 A 
ATOM     24  C   UNL     1       2.445   5.445  19.622  0.00  0.00    +0.000 A 
BRANCH  22  25
ATOM     25  O   UNL     1       5.231   3.071  19.602  0.00  0.00    +0.000 OA
ATOM     26  H   UNL     1       5.879   2.984  18.881  0.00  0.00    +0.000 HD
ENDBRANCH  22  25
ENDBRANCH  17  19
BRANCH   1  27
ATOM     27  C   UNL     1       1.835   8.791  21.198  0.00  0.00    +0.000 C 
BRANCH  27  29
ATOM     28  C   UNL     1       0.247   9.300  23.073  0.00  0.00    +0.000 C 
ATOM     29  C   UNL     1       0.637   8.515  22.061  0.00  0.00    +0.000 C 
ENDBRANCH  27  29
ENDBRANCH   1  27
TORSDOF 4
ENDMDL
MODEL 8
REMARK VINA RESULT:      -6.2      3.404      5.484
REMARK  Name = 
REMARK  4 active torsions:
REMARK  status: ('A' for Active; 'I' for Inactive)
REMARK    1  A    between atoms: C_2  and  C_3
REMARK    2  A    between atoms: C_3  and  N_4
REMARK    3  A    between atoms: N_20  and  C_21
REMARK    4  A    between atoms: C_24  and  O_25
REMARK                            x       y       z     vdW  Elec       q    Type
REMARK                         _______ _______ _______ _____ _____    ______ ____
ROOT
ATOM      1  N   UNL     1      -0.232  12.033  20.532  0.00  0.00    +0.000 N 
ATOM      2  C   UNL     1       0.959  11.574  19.986  0.00  0.00    +0.000 C 
ATOM      3  O   UNL     1       1.766  12.250  19.367  0.00  0.00    +0.000 OA
ATOM      4  C   UNL     1       1.141  10.160  20.349  0.00  0.00    +0.000 C 
ATOM      5  C   UNL     1       1.679   9.235  19.541  0.00  0.00    +0.000 C 
ATOM      6  C   UNL     1       2.081   9.482  18.103  0.00  0.00    +0.000 C 
ATOM      7  O   UNL     1       1.986  10.488  17.417  0.00  0.00    +0.000 OA
ATOM      8  N   UNL     1       2.462   8.234  17.627  0.00  0.00    +0.000 N 
ATOM      9  C   UNL     1       2.267   7.241  18.581  0.00  0.00    +0.000 A 
ATOM     10  C   UNL     1       2.446   5.883  18.404  0.00  0.00    +0.000 A 
ATOM     11  C   UNL     1       2.145   5.047  19.480  0.00  0.00    +0.000 A 
ATOM     12  C   UNL     1       1.699   5.581  20.698  0.00  0.00    +0.000 A 
ATOM     13  C   UNL     1       1.542   6.960  20.859  0.00  0.00    +0.000 A 
ATOM     14  C   UNL     1       1.806   7.790  19.779  0.00  0.00    +0.000 A 
ATOM     15  S   UNL     1       0.322   9.905  21.838  0.00  0.00    +0.000 S 
ATOM     16  C   UNL     1      -0.728  11.320  21.606  0.00  0.00    +0.000 C 
ATOM     17  N   UNL     1      -1.676  11.396  22.484  0.00  0.00    +0.000 NA
ATOM     18  H   UNL     1       2.731   8.080  16.665  0.00  0.00    +0.000 HD
ENDROOT
BRANCH  17  19
ATOM     19  C   UNL     1      -2.603  12.376  22.848  0.00  0.00    +0.000 A 
ATOM     20  C   UNL     1      -2.516  13.212  23.942  0.00  0.00    +0.000 A 
ATOM     21  C   UNL     1      -3.581  13.957  24.436  0.00  0.00    +0.000 A 
ATOM     22  C   UNL     1      -4.752  13.998  23.718  0.00  0.00    +0.000 A 
ATOM     23  C   UNL     1      -4.835  13.336  22.502  0.00  0.00    +0.000 A 
ATOM     24  C   UNL     1      -3.774  12.508  22.085  0.00  0.00    +0.000 A 
BRANCH  22  25
ATOM     25  O   UNL     1      -5.821  14.688  24.196  0.00  0.00    +0.000 OA
ATOM     26  H   UNL     1      -5.643  15.636  24.066  0.00  0.00    +0.000 HD
ENDBRANCH  22  25
ENDBRANCH  17  19
BRANCH   1  27
ATOM     27  C   UNL     1      -0.779  13.156  19.810  0.00  0.00    +0.000 C 
BRANCH  27  29
ATOM     28  C   UNL     1      -1.597  15.322  20.776  0.00  0.00    +0.000 C 
ATOM     29  C   UNL     1      -0.634  14.404  20.633  0.00  0.00    +0.000 C 
ENDBRANCH  27  29
ENDBRANCH   1  27
TORSDOF 4
ENDMDL
MODEL 9
REMARK VINA RESULT:      -6.2      2.483      8.407
REMARK  Name = 
REMARK  4 active torsions:
REMARK  status: ('A' for Active; 'I' for Inactive)
REMARK    1  A    between atoms: C_2  and  C_3
REMARK    2  A    between atoms: C_3  and  N_4
REMARK    3  A    between atoms: N_20  and  C_21
REMARK    4  A    between atoms: C_24  and  O_25
REMARK                            x       y       z     vdW  Elec       q    Type
REMARK                         _______ _______ _______ _____ _____    ______ ____
ROOT
ATOM      1  N   UNL     1       1.097   9.721  20.046  0.00  0.00    +0.000 N 
ATOM      2  C   UNL     1       0.458  10.946  20.194  0.00  0.00    +0.000 C 
ATOM      3  O   UNL     1       0.774  11.824  20.982  0.00  0.00    +0.000 OA
ATOM      4  C   UNL     1      -0.607  11.056  19.185  0.00  0.00    +0.000 C 
ATOM      5  C   UNL     1      -1.794  11.642  19.400  0.00  0.00    +0.000 C 
ATOM      6  C   UNL     1      -2.255  12.181  20.737  0.00  0.00    +0.000 C 
ATOM      7  O   UNL     1      -1.701  12.175  21.826  0.00  0.00    +0.000 OA
ATOM      8  N   UNL     1      -3.570  12.571  20.522  0.00  0.00    +0.000 N 
ATOM      9  C   UNL     1      -3.991  12.263  19.233  0.00  0.00    +0.000 A 
ATOM     10  C   UNL     1      -5.265  12.423  18.723  0.00  0.00    +0.000 A 
ATOM     11  C   UNL     1      -5.492  12.002  17.413  0.00  0.00    +0.000 A 
ATOM     12  C   UNL     1      -4.451  11.460  16.644  0.00  0.00    +0.000 A 
ATOM     13  C   UNL     1      -3.166  11.325  17.176  0.00  0.00    +0.000 A 
ATOM     14  C   UNL     1      -2.947  11.709  18.491  0.00  0.00    +0.000 A 
ATOM     15  S   UNL     1      -0.138  10.098  17.839  0.00  0.00    +0.000 S 
ATOM     16  C   UNL     1       0.973   9.111  18.815  0.00  0.00    +0.000 C 
ATOM     17  N   UNL     1       1.438   8.088  18.172  0.00  0.00    +0.000 NA
ATOM     18  H   UNL     1      -4.159  12.923  21.265  0.00  0.00    +0.000 HD
ENDROOT
BRANCH  17  19
ATOM     19  C   UNL     1       2.454   7.158  18.407  0.00  0.00    +0.000 A 
ATOM     20  C   UNL     1       2.476   6.214  19.413  0.00  0.00    +0.000 A 
ATOM     21  C   UNL     1       3.615   5.515  19.796  0.00  0.00    +0.000 A 
ATOM     22  C   UNL     1       4.758   5.641  19.041  0.00  0.00    +0.000 A 
ATOM     23  C   UNL     1       4.740   6.424  17.896  0.00  0.00    +0.000 A 
ATOM     24  C   UNL     1       3.601   7.198  17.598  0.00  0.00    +0.000 A 
BRANCH  22  25
ATOM     25  O   UNL     1       5.895   4.999  19.414  0.00  0.00    +0.000 OA
ATOM     26  H   UNL     1       6.640   5.424  18.952  0.00  0.00    +0.000 HD
ENDBRANCH  22  25
ENDBRANCH  17  19
BRANCH   1  27
ATOM     27  C   UNL     1       1.727   9.273  21.265  0.00  0.00    +0.000 C 
BRANCH  27  29
ATOM     28  C   UNL     1       0.137   9.350  23.203  0.00  0.00    +0.000 C 
ATOM     29  C   UNL     1       0.692   8.687  22.182  0.00  0.00    +0.000 C 
ENDBRANCH  27  29
ENDBRANCH   1  27
TORSDOF 4
ENDMDL
