MODEL 1
REMARK VINA RESULT:      -7.5      0.000      0.000
REMARK  Name = 
REMARK  6 active torsions:
REMARK  status: ('A' for Active; 'I' for Inactive)
REMARK    1  A    between atoms: C_1  and  C_2
REMARK    2  A    between atoms: C_2  and  C_3
REMARK    3  A    between atoms: C_6  and  O_7
REMARK    4  A    between atoms: O_7  and  C_8
REMARK    5  A    between atoms: C_14  and  C_15
REMARK    6  A    between atoms: C_18  and  N_19
REMARK                            x       y       z     vdW  Elec       q    Type
REMARK                         _______ _______ _______ _____ _____    ______ ____
ROOT
ATOM      1  C   UNL     1       4.881   5.764  17.893  0.00  0.00    +0.000 A 
ATOM      2  C   UNL     1       4.640   7.038  17.359  0.00  0.00    +0.000 A 
ATOM      3  C   UNL     1       3.459   7.677  17.668  0.00  0.00    +0.000 A 
ATOM      4  N   UNL     1       2.519   7.202  18.500  0.00  0.00    +0.000 NA
ATOM      5  C   UNL     1       2.826   6.018  19.071  0.00  0.00    +0.000 A 
ATOM      6  S   UNL     1       1.745   5.318  20.178  0.00  0.00    +0.000 S 
ATOM      7  C   UNL     1       2.761   3.964  20.432  0.00  0.00    +0.000 A 
ATOM      8  C   UNL     1       3.920   4.069  19.679  0.00  0.00    +0.000 A 
ATOM      9  C   UNL     1       3.965   5.249  18.849  0.00  0.00    +0.000 A 
ENDROOT
BRANCH   7  10
ATOM     10  C   UNL     1       2.367   2.889  21.332  0.00  0.00    +0.000 C 
ATOM     11  N   UNL     1       1.024   2.651  21.476  0.00  0.00    +0.000 N 
ATOM     12  O   UNL     1       3.157   2.179  21.959  0.00  0.00    +0.000 OA
ATOM     13  H   UNL     1       0.331   3.186  20.964  0.00  0.00    +0.000 HD
ATOM     14  H   UNL     1       0.742   1.888  22.072  0.00  0.00    +0.000 HD
ENDBRANCH   7  10
BRANCH   8  15
ATOM     15  N   UNL     1       4.905   3.145  19.728  0.00  0.00    +0.000 N 
ATOM     16  H   UNL     1       4.842   2.273  19.197  0.00  0.00    +0.000 HD
ATOM     17  H   UNL     1       5.776   3.280  20.231  0.00  0.00    +0.000 HD
ENDBRANCH   8  15
BRANCH   1  18
ATOM     18  O   UNL     1       6.005   5.035  17.533  0.00  0.00    +0.000 OA
BRANCH  18  22
ATOM     19  C   UNL     1       6.362   3.979  13.489  0.00  0.00    +0.000 A 
ATOM     20  C   UNL     1       5.287   3.541  14.274  0.00  0.00    +0.000 A 
ATOM     21  C   UNL     1       5.200   3.902  15.622  0.00  0.00    +0.000 A 
ATOM     22  C   UNL     1       6.185   4.702  16.202  0.00  0.00    +0.000 A 
ATOM     23  C   UNL     1       7.249   5.158  15.415  0.00  0.00    +0.000 A 
ATOM     24  C   UNL     1       7.353   4.772  14.077  0.00  0.00    +0.000 A 
BRANCH  19  26
ATOM     25  C   UNL     1       5.562   2.468  11.682  0.00  0.00    +0.000 C 
ATOM     26  C   UNL     1       6.402   3.697  12.009  0.00  0.00    +0.000 C 
ENDBRANCH  19  26
ENDBRANCH  18  22
ENDBRANCH   1  18
TORSDOF 5
ENDMDL
MODEL 2
REMARK VINA RESULT:      -7.5      0.344      1.084
REMARK  Name = 
REMARK  6 active torsions:
REMARK  status: ('A' for Active; 'I' for Inactive)
REMARK    1  A    between atoms: C_1  and  C_2
REMARK    2  A    between atoms: C_2  and  C_3
REMARK    3  A    between atoms: C_6  and  O_7
REMARK    4  A    between atoms: O_7  and  C_8
REMARK    5  A    between atoms: C_14  and  C_15
REMARK    6  A    between atoms: C_18  and  N_19
REMARK                            x       y       z     vdW  Elec       q    Type
REMARK                         _______ _______ _______ _____ _____    ______ ____
ROOT
ATOM      1  C   UNL     1       4.652   5.996  18.039  0.00  0.00    +0.000 A 
ATOM      2  C   UNL     1       4.321   7.268  17.552  0.00  0.00    +0.000 A 
ATOM      3  C   UNL     1       3.117   7.830  17.919  0.00  0.00    +0.000 A 
ATOM      4  N   UNL     1       2.237   7.279  18.768  0.00  0.00    +0.000 NA
ATOM      5  C   UNL     1       2.630   6.099  19.294  0.00  0.00    +0.000 A 
ATOM      6  S   UNL     1       1.631   5.309  20.416  0.00  0.00    +0.000 S 
ATOM      7  C   UNL     1       2.730   4.008  20.595  0.00  0.00    +0.000 A 
ATOM      8  C   UNL     1       3.854   4.201  19.807  0.00  0.00    +0.000 A 
ATOM      9  C   UNL     1       3.802   5.403  19.010  0.00  0.00    +0.000 A 
ENDROOT
BRANCH   7  10
ATOM     10  C   UNL     1       2.429   2.889  21.477  0.00  0.00    +0.000 C 
ATOM     11  N   UNL     1       1.116   2.691  21.817  0.00  0.00    +0.000 N 
ATOM     12  O   UNL     1       3.272   2.107  21.923  0.00  0.00    +0.000 OA
ATOM     13  H   UNL     1       0.379   3.288  21.456  0.00  0.00    +0.000 HD
ATOM     14  H   UNL     1       0.893   1.900  22.400  0.00  0.00    +0.000 HD
ENDBRANCH   7  10
BRANCH   8  15
ATOM     15  N   UNL     1       4.890   3.334  19.795  0.00  0.00    +0.000 N 
ATOM     16  H   UNL     1       5.810   3.600  20.157  0.00  0.00    +0.000 HD
ATOM     17  H   UNL     1       4.810   2.368  19.492  0.00  0.00    +0.000 HD
ENDBRANCH   8  15
BRANCH   1  18
ATOM     18  O   UNL     1       5.802   5.343  17.620  0.00  0.00    +0.000 OA
BRANCH  18  22
ATOM     19  C   UNL     1       6.212   4.022  13.659  0.00  0.00    +0.000 A 
ATOM     20  C   UNL     1       7.178   4.833  14.270  0.00  0.00    +0.000 A 
ATOM     21  C   UNL     1       7.009   5.265  15.589  0.00  0.00    +0.000 A 
ATOM     22  C   UNL     1       5.875   4.895  16.313  0.00  0.00    +0.000 A 
ATOM     23  C   UNL     1       4.918   4.068  15.712  0.00  0.00    +0.000 A 
ATOM     24  C   UNL     1       5.071   3.662  14.384  0.00  0.00    +0.000 A 
BRANCH  19  26
ATOM     25  C   UNL     1       5.114   3.076  11.638  0.00  0.00    +0.000 C 
ATOM     26  C   UNL     1       6.441   3.453  12.282  0.00  0.00    +0.000 C 
ENDBRANCH  19  26
ENDBRANCH  18  22
ENDBRANCH   1  18
TORSDOF 5
ENDMDL
MODEL 3
REMARK VINA RESULT:      -7.5      3.200      6.832
REMARK  Name = 
REMARK  6 active torsions:
REMARK  status: ('A' for Active; 'I' for Inactive)
REMARK    1  A    between atoms: C_1  and  C_2
REMARK    2  A    between atoms: C_2  and  C_3
REMARK    3  A    between atoms: C_6  and  O_7
REMARK    4  A    between atoms: O_7  and  C_8
REMARK    5  A    between atoms: C_14  and  C_15
REMARK    6  A    between atoms: C_18  and  N_19
REMARK                            x       y       z     vdW  Elec       q    Type
REMARK                         _______ _______ _______ _____ _____    ______ ____
ROOT
ATOM      1  C   UNL     1       2.739   5.103  19.065  0.00  0.00    +0.000 A 
ATOM      2  C   UNL     1       1.534   4.391  18.999  0.00  0.00    +0.000 A 
ATOM      3  C   UNL     1       1.376   3.436  18.019  0.00  0.00    +0.000 A 
ATOM      4  N   UNL     1       2.318   3.078  17.132  0.00  0.00    +0.000 NA
ATOM      5  C   UNL     1       3.498   3.715  17.284  0.00  0.00    +0.000 A 
ATOM      6  S   UNL     1       4.794   3.331  16.256  0.00  0.00    +0.000 S 
ATOM      7  C   UNL     1       5.834   4.457  17.019  0.00  0.00    +0.000 A 
ATOM      8  C   UNL     1       5.184   5.102  18.059  0.00  0.00    +0.000 A 
ATOM      9  C   UNL     1       3.804   4.707  18.212  0.00  0.00    +0.000 A 
ENDROOT
BRANCH   7  10
ATOM     10  C   UNL     1       7.202   4.646  16.557  0.00  0.00    +0.000 C 
ATOM     11  N   UNL     1       7.379   5.314  15.373  0.00  0.00    +0.000 N 
ATOM     12  O   UNL     1       8.203   4.257  17.164  0.00  0.00    +0.000 OA
ATOM     13  H   UNL     1       6.593   5.679  14.846  0.00  0.00    +0.000 HD
ATOM     14  H   UNL     1       8.324   5.478  15.061  0.00  0.00    +0.000 HD
ENDBRANCH   7  10
BRANCH   8  15
ATOM     15  N   UNL     1       5.797   6.014  18.845  0.00  0.00    +0.000 N 
ATOM     16  H   UNL     1       6.421   6.722  18.450  0.00  0.00    +0.000 HD
ATOM     17  H   UNL     1       5.633   6.094  19.844  0.00  0.00    +0.000 HD
ENDBRANCH   8  15
BRANCH   1  18
ATOM     18  O   UNL     1       2.911   6.144  19.966  0.00  0.00    +0.000 OA
BRANCH  18  22
ATOM     19  C   UNL     1       0.911   9.726  19.091  0.00  0.00    +0.000 A 
ATOM     20  C   UNL     1       1.675   9.053  18.128  0.00  0.00    +0.000 A 
ATOM     21  C   UNL     1       2.338   7.865  18.452  0.00  0.00    +0.000 A 
ATOM     22  C   UNL     1       2.248   7.337  19.740  0.00  0.00    +0.000 A 
ATOM     23  C   UNL     1       1.468   7.996  20.698  0.00  0.00    +0.000 A 
ATOM     24  C   UNL     1       0.831   9.198  20.384  0.00  0.00    +0.000 A 
BRANCH  19  26
ATOM     25  C   UNL     1      -1.268  10.517  18.189  0.00  0.00    +0.000 C 
ATOM     26  C   UNL     1       0.096  10.939  18.720  0.00  0.00    +0.000 C 
ENDBRANCH  19  26
ENDBRANCH  18  22
ENDBRANCH   1  18
TORSDOF 5
ENDMDL
MODEL 4
REMARK VINA RESULT:      -7.3      3.191      6.862
REMARK  Name = 
REMARK  6 active torsions:
REMARK  status: ('A' for Active; 'I' for Inactive)
REMARK    1  A    between atoms: C_1  and  C_2
REMARK    2  A    between atoms: C_2  and  C_3
REMARK    3  A    between atoms: C_6  and  O_7
REMARK    4  A    between atoms: O_7  and  C_8
REMARK    5  A    between atoms: C_14  and  C_15
REMARK    6  A    between atoms: C_18  and  N_19
REMARK                            x       y       z     vdW  Elec       q    Type
REMARK                         _______ _______ _______ _____ _____    ______ ____
ROOT
ATOM      1  C   UNL     1       2.712   4.970  19.184  0.00  0.00    +0.000 A 
ATOM      2  C   UNL     1       1.558   4.175  19.149  0.00  0.00    +0.000 A 
ATOM      3  C   UNL     1       1.462   3.182  18.200  0.00  0.00    +0.000 A 
ATOM      4  N   UNL     1       2.421   2.862  17.318  0.00  0.00    +0.000 NA
ATOM      5  C   UNL     1       3.556   3.583  17.442  0.00  0.00    +0.000 A 
ATOM      6  S   UNL     1       4.870   3.257  16.417  0.00  0.00    +0.000 S 
ATOM      7  C   UNL     1       5.834   4.475  17.137  0.00  0.00    +0.000 A 
ATOM      8  C   UNL     1       5.145   5.106  18.161  0.00  0.00    +0.000 A 
ATOM      9  C   UNL     1       3.797   4.622  18.336  0.00  0.00    +0.000 A 
ENDROOT
BRANCH   7  10
ATOM     10  C   UNL     1       7.183   4.743  16.659  0.00  0.00    +0.000 C 
ATOM     11  N   UNL     1       7.312   5.563  15.569  0.00  0.00    +0.000 N 
ATOM     12  O   UNL     1       8.208   4.292  17.176  0.00  0.00    +0.000 OA
ATOM     13  H   UNL     1       6.504   5.983  15.121  0.00  0.00    +0.000 HD
ATOM     14  H   UNL     1       8.244   5.782  15.250  0.00  0.00    +0.000 HD
ENDBRANCH   7  10
BRANCH   8  15
ATOM     15  N   UNL     1       5.698   6.082  18.914  0.00  0.00    +0.000 N 
ATOM     16  H   UNL     1       6.492   5.892  19.531  0.00  0.00    +0.000 HD
ATOM     17  H   UNL     1       5.410   7.054  18.871  0.00  0.00    +0.000 HD
ENDBRANCH   8  15
BRANCH   1  18
ATOM     18  O   UNL     1       2.816   6.048  20.052  0.00  0.00    +0.000 OA
BRANCH  18  22
ATOM     19  C   UNL     1       0.913   9.693  19.219  0.00  0.00    +0.000 A 
ATOM     20  C   UNL     1       0.823   9.084  20.478  0.00  0.00    +0.000 A 
ATOM     21  C   UNL     1       1.461   7.864  20.723  0.00  0.00    +0.000 A 
ATOM     22  C   UNL     1       2.194   7.237  19.715  0.00  0.00    +0.000 A 
ATOM     23  C   UNL     1       2.304   7.854  18.463  0.00  0.00    +0.000 A 
ATOM     24  C   UNL     1       1.641   9.057  18.208  0.00  0.00    +0.000 A 
BRANCH  19  26
ATOM     25  C   UNL     1      -1.138  10.954  18.597  0.00  0.00    +0.000 C 
ATOM     26  C   UNL     1       0.332  11.063  18.981  0.00  0.00    +0.000 C 
ENDBRANCH  19  26
ENDBRANCH  18  22
ENDBRANCH   1  18
TORSDOF 5
ENDMDL
MODEL 5
REMARK VINA RESULT:      -7.2      3.251      6.993
REMARK  Name = 
REMARK  6 active torsions:
REMARK  status: ('A' for Active; 'I' for Inactive)
REMARK    1  A    between atoms: C_1  and  C_2
REMARK    2  A    between atoms: C_2  and  C_3
REMARK    3  A    between atoms: C_6  and  O_7
REMARK    4  A    between atoms: O_7  and  C_8
REMARK    5  A    between atoms: C_14  and  C_15
REMARK    6  A    between atoms: C_18  and  N_19
REMARK                            x       y       z     vdW  Elec       q    Type
REMARK                         _______ _______ _______ _____ _____    ______ ____
ROOT
ATOM      1  C   UNL     1       2.408   5.850  19.796  0.00  0.00    +0.000 A 
ATOM      2  C   UNL     1       1.471   5.193  20.606  0.00  0.00    +0.000 A 
ATOM      3  C   UNL     1       1.087   3.912  20.276  0.00  0.00    +0.000 A 
ATOM      4  N   UNL     1       1.582   3.197  19.254  0.00  0.00    +0.000 NA
ATOM      5  C   UNL     1       2.551   3.823  18.553  0.00  0.00    +0.000 A 
ATOM      6  S   UNL     1       3.298   3.018  17.258  0.00  0.00    +0.000 S 
ATOM      7  C   UNL     1       4.320   4.350  16.919  0.00  0.00    +0.000 A 
ATOM      8  C   UNL     1       4.089   5.387  17.809  0.00  0.00    +0.000 A 
ATOM      9  C   UNL     1       3.034   5.113  18.755  0.00  0.00    +0.000 A 
ENDROOT
BRANCH   7  10
ATOM     10  C   UNL     1       5.268   4.305  15.814  0.00  0.00    +0.000 C 
ATOM     11  N   UNL     1       6.020   3.168  15.677  0.00  0.00    +0.000 N 
ATOM     12  O   UNL     1       5.427   5.213  14.995  0.00  0.00    +0.000 OA
ATOM     13  H   UNL     1       5.911   2.379  16.306  0.00  0.00    +0.000 HD
ATOM     14  H   UNL     1       6.656   3.114  14.896  0.00  0.00    +0.000 HD
ENDBRANCH   7  10
BRANCH   8  15
ATOM     15  N   UNL     1       4.792   6.540  17.779  0.00  0.00    +0.000 N 
ATOM     16  H   UNL     1       4.409   7.386  17.348  0.00  0.00    +0.000 HD
ATOM     17  H   UNL     1       5.696   6.657  18.226  0.00  0.00    +0.000 HD
ENDBRANCH   8  15
BRANCH   1  18
ATOM     18  O   UNL     1       2.753   7.174  20.024  0.00  0.00    +0.000 OA
BRANCH  18  22
ATOM     19  C   UNL     1       0.010  10.122  18.844  0.00  0.00    +0.000 A 
ATOM     20  C   UNL     1       0.877   9.511  17.928  0.00  0.00    +0.000 A 
ATOM     21  C   UNL     1       1.786   8.538  18.353  0.00  0.00    +0.000 A 
ATOM     22  C   UNL     1       1.844   8.164  19.696  0.00  0.00    +0.000 A 
ATOM     23  C   UNL     1       0.965   8.758  20.610  0.00  0.00    +0.000 A 
ATOM     24  C   UNL     1       0.077   9.753  20.192  0.00  0.00    +0.000 A 
BRANCH  19  26
ATOM     25  C   UNL     1      -1.978  10.401  17.375  0.00  0.00    +0.000 C 
ATOM     26  C   UNL     1      -1.054  11.082  18.377  0.00  0.00    +0.000 C 
ENDBRANCH  19  26
ENDBRANCH  18  22
ENDBRANCH   1  18
TORSDOF 5
ENDMDL
MODEL 6
REMARK VINA RESULT:      -7.0      3.303      7.044
REMARK  Name = 
REMARK  6 active torsions:
REMARK  status: ('A' for Active; 'I' for Inactive)
REMARK    1  A    between atoms: C_1  and  C_2
REMARK    2  A    between atoms: C_2  and  C_3
REMARK    3  A    between atoms: C_6  and  O_7
REMARK    4  A    between atoms: O_7  and  C_8
REMARK    5  A    between atoms: C_14  and  C_15
REMARK    6  A    between atoms: C_18  and  N_19
REMARK                            x       y       z     vdW  Elec       q    Type
REMARK                         _______ _______ _______ _____ _____    ______ ____
ROOT
ATOM      1  C   UNL     1       2.387   5.891  19.757  0.00  0.00    +0.000 A 
ATOM      2  C   UNL     1       1.469   5.226  20.581  0.00  0.00    +0.000 A 
ATOM      3  C   UNL     1       1.118   3.929  20.276  0.00  0.00    +0.000 A 
ATOM      4  N   UNL     1       1.629   3.208  19.266  0.00  0.00    +0.000 NA
ATOM      5  C   UNL     1       2.580   3.846  18.551  0.00  0.00    +0.000 A 
ATOM      6  S   UNL     1       3.344   3.038  17.268  0.00  0.00    +0.000 S 
ATOM      7  C   UNL     1       4.330   4.389  16.902  0.00  0.00    +0.000 A 
ATOM      8  C   UNL     1       4.074   5.436  17.773  0.00  0.00    +0.000 A 
ATOM      9  C   UNL     1       3.029   5.152  18.727  0.00  0.00    +0.000 A 
ENDROOT
BRANCH   7  10
ATOM     10  C   UNL     1       5.275   4.349  15.795  0.00  0.00    +0.000 C 
ATOM     11  N   UNL     1       6.042   3.220  15.664  0.00  0.00    +0.000 N 
ATOM     12  O   UNL     1       5.420   5.253  14.969  0.00  0.00    +0.000 OA
ATOM     13  H   UNL     1       5.944   2.435  16.299  0.00  0.00    +0.000 HD
ATOM     14  H   UNL     1       6.677   3.169  14.882  0.00  0.00    +0.000 HD
ENDBRANCH   7  10
BRANCH   8  15
ATOM     15  N   UNL     1       4.746   6.606  17.720  0.00  0.00    +0.000 N 
ATOM     16  H   UNL     1       5.396   6.880  18.462  0.00  0.00    +0.000 HD
ATOM     17  H   UNL     1       4.701   7.244  16.932  0.00  0.00    +0.000 HD
ENDBRANCH   8  15
BRANCH   1  18
ATOM     18  O   UNL     1       2.697   7.228  19.959  0.00  0.00    +0.000 OA
BRANCH  18  22
ATOM     19  C   UNL     1      -0.049  10.212  18.888  0.00  0.00    +0.000 A 
ATOM     20  C   UNL     1       0.106   9.796  20.216  0.00  0.00    +0.000 A 
ATOM     21  C   UNL     1       1.024   8.792  20.542  0.00  0.00    +0.000 A 
ATOM     22  C   UNL     1       1.795   8.192  19.545  0.00  0.00    +0.000 A 
ATOM     23  C   UNL     1       1.656   8.620  18.220  0.00  0.00    +0.000 A 
ATOM     24  C   UNL     1       0.717   9.601  17.890  0.00  0.00    +0.000 A 
BRANCH  19  26
ATOM     25  C   UNL     1      -1.980  10.955  17.506  0.00  0.00    +0.000 C 
ATOM     26  C   UNL     1      -0.946  11.374  18.543  0.00  0.00    +0.000 C 
ENDBRANCH  19  26
ENDBRANCH  18  22
ENDBRANCH   1  18
TORSDOF 5
ENDMDL
MODEL 7
REMARK VINA RESULT:      -6.8      1.548      1.904
REMARK  Name = 
REMARK  6 active torsions:
REMARK  status: ('A' for Active; 'I' for Inactive)
REMARK    1  A    between atoms: C_1  and  C_2
REMARK    2  A    between atoms: C_2  and  C_3
REMARK    3  A    between atoms: C_6  and  O_7
REMARK    4  A    between atoms: O_7  and  C_8
REMARK    5  A    between atoms: C_14  and  C_15
REMARK    6  A    between atoms: C_18  and  N_19
REMARK                            x       y       z     vdW  Elec       q    Type
REMARK                         _______ _______ _______ _____ _____    ______ ____
ROOT
ATOM      1  C   UNL     1       4.649   6.362  17.632  0.00  0.00    +0.000 A 
ATOM      2  C   UNL     1       3.737   7.426  17.596  0.00  0.00    +0.000 A 
ATOM      3  C   UNL     1       2.532   7.292  18.250  0.00  0.00    +0.000 A 
ATOM      4  N   UNL     1       2.166   6.231  18.984  0.00  0.00    +0.000 NA
ATOM      5  C   UNL     1       3.106   5.266  19.077  0.00  0.00    +0.000 A 
ATOM      6  S   UNL     1       2.794   3.882  20.010  0.00  0.00    +0.000 S 
ATOM      7  C   UNL     1       4.327   3.205  19.660  0.00  0.00    +0.000 A 
ATOM      8  C   UNL     1       5.065   4.052  18.846  0.00  0.00    +0.000 A 
ATOM      9  C   UNL     1       4.356   5.250  18.465  0.00  0.00    +0.000 A 
ENDROOT
BRANCH   7  10
ATOM     10  C   UNL     1       4.710   1.903  20.186  0.00  0.00    +0.000 C 
ATOM     11  N   UNL     1       4.628   0.832  19.333  0.00  0.00    +0.000 N 
ATOM     12  O   UNL     1       5.110   1.705  21.336  0.00  0.00    +0.000 OA
ATOM     13  H   UNL     1       4.332   0.942  18.369  0.00  0.00    +0.000 HD
ATOM     14  H   UNL     1       4.922  -0.069  19.678  0.00  0.00    +0.000 HD
ENDBRANCH   7  10
BRANCH   8  15
ATOM     15  N   UNL     1       6.325   3.766  18.454  0.00  0.00    +0.000 N 
ATOM     16  H   UNL     1       6.694   4.102  17.560  0.00  0.00    +0.000 HD
ATOM     17  H   UNL     1       6.993   3.266  19.033  0.00  0.00    +0.000 HD
ENDBRANCH   8  15
BRANCH   1  18
ATOM     18  O   UNL     1       5.832   6.405  16.907  0.00  0.00    +0.000 OA
BRANCH  18  22
ATOM     19  C   UNL     1       6.322   4.134  13.414  0.00  0.00    +0.000 A 
ATOM     20  C   UNL     1       7.371   4.887  13.957  0.00  0.00    +0.000 A 
ATOM     21  C   UNL     1       7.175   5.641  15.118  0.00  0.00    +0.000 A 
ATOM     22  C   UNL     1       5.930   5.655  15.749  0.00  0.00    +0.000 A 
ATOM     23  C   UNL     1       4.885   4.887  15.219  0.00  0.00    +0.000 A 
ATOM     24  C   UNL     1       5.072   4.158  14.042  0.00  0.00    +0.000 A 
BRANCH  19  26
ATOM     25  C   UNL     1       5.225   2.774  11.644  0.00  0.00    +0.000 C 
ATOM     26  C   UNL     1       6.555   3.225  12.234  0.00  0.00    +0.000 C 
ENDBRANCH  19  26
ENDBRANCH  18  22
ENDBRANCH   1  18
TORSDOF 5
ENDMDL
MODEL 8
REMARK VINA RESULT:      -6.8      1.546      1.594
REMARK  Name = 
REMARK  6 active torsions:
REMARK  status: ('A' for Active; 'I' for Inactive)
REMARK    1  A    between atoms: C_1  and  C_2
REMARK    2  A    between atoms: C_2  and  C_3
REMARK    3  A    between atoms: C_6  and  O_7
REMARK    4  A    between atoms: O_7  and  C_8
REMARK    5  A    between atoms: C_14  and  C_15
REMARK    6  A    between atoms: C_18  and  N_19
REMARK                            x       y       z     vdW  Elec       q    Type
REMARK                         _______ _______ _______ _____ _____    ______ ____
ROOT
ATOM      1  C   UNL     1       4.731   6.463  17.665  0.00  0.00    +0.000 A 
ATOM      2  C   UNL     1       3.844   7.547  17.625  0.00  0.00    +0.000 A 
ATOM      3  C   UNL     1       2.622   7.432  18.251  0.00  0.00    +0.000 A 
ATOM      4  N   UNL     1       2.216   6.368  18.961  0.00  0.00    +0.000 NA
ATOM      5  C   UNL     1       3.131   5.380  19.059  0.00  0.00    +0.000 A 
ATOM      6  S   UNL     1       2.768   3.990  19.963  0.00  0.00    +0.000 S 
ATOM      7  C   UNL     1       4.292   3.283  19.635  0.00  0.00    +0.000 A 
ATOM      8  C   UNL     1       5.066   4.125  18.851  0.00  0.00    +0.000 A 
ATOM      9  C   UNL     1       4.394   5.345  18.474  0.00  0.00    +0.000 A 
ENDROOT
BRANCH   7  10
ATOM     10  C   UNL     1       4.633   1.964  20.149  0.00  0.00    +0.000 C 
ATOM     11  N   UNL     1       4.576   0.913  19.270  0.00  0.00    +0.000 N 
ATOM     12  O   UNL     1       4.979   1.736  21.311  0.00  0.00    +0.000 OA
ATOM     13  H   UNL     1       4.325   1.048  18.296  0.00  0.00    +0.000 HD
ATOM     14  H   UNL     1       4.842   0.001  19.608  0.00  0.00    +0.000 HD
ENDBRANCH   7  10
BRANCH   8  15
ATOM     15  N   UNL     1       6.329   3.816  18.482  0.00  0.00    +0.000 N 
ATOM     16  H   UNL     1       7.122   3.984  19.106  0.00  0.00    +0.000 HD
ATOM     17  H   UNL     1       6.560   3.351  17.610  0.00  0.00    +0.000 HD
ENDBRANCH   8  15
BRANCH   1  18
ATOM     18  O   UNL     1       5.929   6.489  16.966  0.00  0.00    +0.000 OA
BRANCH  18  22
ATOM     19  C   UNL     1       6.144   4.065  13.548  0.00  0.00    +0.000 A 
ATOM     20  C   UNL     1       4.956   4.210  14.277  0.00  0.00    +0.000 A 
ATOM     21  C   UNL     1       4.918   5.018  15.417  0.00  0.00    +0.000 A 
ATOM     22  C   UNL     1       6.064   5.689  15.845  0.00  0.00    +0.000 A 
ATOM     23  C   UNL     1       7.247   5.563  15.107  0.00  0.00    +0.000 A 
ATOM     24  C   UNL     1       7.294   4.731  13.986  0.00  0.00    +0.000 A 
BRANCH  19  26
ATOM     25  C   UNL     1       4.766   3.221  11.658  0.00  0.00    +0.000 C 
ATOM     26  C   UNL     1       6.166   3.296  12.253  0.00  0.00    +0.000 C 
ENDBRANCH  19  26
ENDBRANCH  18  22
ENDBRANCH   1  18
TORSDOF 5
ENDMDL
MODEL 9
REMARK VINA RESULT:      -6.6      3.489      7.461
REMARK  Name = 
REMARK  6 active torsions:
REMARK  status: ('A' for Active; 'I' for Inactive)
REMARK    1  A    between atoms: C_1  and  C_2
REMARK    2  A    between atoms: C_2  and  C_3
REMARK    3  A    between atoms: C_6  and  O_7
REMARK    4  A    between atoms: O_7  and  C_8
REMARK    5  A    between atoms: C_14  and  C_15
REMARK    6  A    between atoms: C_18  and  N_19
REMARK                            x       y       z     vdW  Elec       q    Type
REMARK                         _______ _______ _______ _____ _____    ______ ____
ROOT
ATOM      1  C   UNL     1       2.586   6.173  17.852  0.00  0.00    +0.000 A 
ATOM      2  C   UNL     1       1.423   5.462  18.179  0.00  0.00    +0.000 A 
ATOM      3  C   UNL     1       1.407   4.095  18.009  0.00  0.00    +0.000 A 
ATOM      4  N   UNL     1       2.450   3.357  17.600  0.00  0.00    +0.000 NA
ATOM      5  C   UNL     1       3.582   4.060  17.385  0.00  0.00    +0.000 A 
ATOM      6  S   UNL     1       4.993   3.247  16.904  0.00  0.00    +0.000 S 
ATOM      7  C   UNL     1       5.902   4.697  16.848  0.00  0.00    +0.000 A 
ATOM      8  C   UNL     1       5.121   5.782  17.212  0.00  0.00    +0.000 A 
ATOM      9  C   UNL     1       3.749   5.437  17.499  0.00  0.00    +0.000 A 
ENDROOT
BRANCH   7  10
ATOM     10  C   UNL     1       7.303   4.688  16.449  0.00  0.00    +0.000 C 
ATOM     11  N   UNL     1       7.616   5.257  15.242  0.00  0.00    +0.000 N 
ATOM     12  O   UNL     1       8.218   4.217  17.128  0.00  0.00    +0.000 OA
ATOM     13  H   UNL     1       6.906   5.685  14.656  0.00  0.00    +0.000 HD
ATOM     14  H   UNL     1       8.587   5.286  14.971  0.00  0.00    +0.000 HD
ENDBRANCH   7  10
BRANCH   8  15
ATOM     15  N   UNL     1       5.612   7.039  17.284  0.00  0.00    +0.000 N 
ATOM     16  H   UNL     1       5.010   7.832  17.519  0.00  0.00    +0.000 HD
ATOM     17  H   UNL     1       6.595   7.264  17.176  0.00  0.00    +0.000 HD
ENDBRANCH   8  15
BRANCH   1  18
ATOM     18  O   UNL     1       2.621   7.559  17.907  0.00  0.00    +0.000 OA
BRANCH  18  22
ATOM     19  C   UNL     1       0.544   9.596  20.929  0.00  0.00    +0.000 A 
ATOM     20  C   UNL     1       0.546  10.047  19.603  0.00  0.00    +0.000 A 
ATOM     21  C   UNL     1       1.256   9.352  18.619  0.00  0.00    +0.000 A 
ATOM     22  C   UNL     1       1.972   8.200  18.947  0.00  0.00    +0.000 A 
ATOM     23  C   UNL     1       1.954   7.735  20.268  0.00  0.00    +0.000 A 
ATOM     24  C   UNL     1       1.271   8.447  21.257  0.00  0.00    +0.000 A 
BRANCH  19  26
ATOM     25  C   UNL     1      -0.250   9.499  23.285  0.00  0.00    +0.000 C 
ATOM     26  C   UNL     1      -0.314  10.268  21.971  0.00  0.00    +0.000 C 
ENDBRANCH  19  26
ENDBRANCH  18  22
ENDBRANCH   1  18
TORSDOF 5
ENDMDL
