MODEL 1
REMARK VINA RESULT:      -6.7      0.000      0.000
REMARK  Name = 
REMARK  6 active torsions:
REMARK  status: ('A' for Active; 'I' for Inactive)
REMARK    1  A    between atoms: C_1  and  C_2
REMARK    2  A    between atoms: C_2  and  N_3
REMARK    3  A    between atoms: C_5  and  C_6
REMARK    4  A    between atoms: C_6  and  O_7
REMARK    5  A    between atoms: C_8  and  C_9
REMARK    6  A    between atoms: C_11  and  C_12
REMARK                            x       y       z     vdW  Elec       q    Type
REMARK                         _______ _______ _______ _____ _____    ______ ____
ROOT
ATOM      1  N   UNL     1       6.252   5.568  15.339  0.00  0.00    +0.000 NA
ATOM      2  C   UNL     1       7.185   6.110  16.353  0.00  0.00    +0.000 C 
ATOM      3  C   UNL     1       6.832   5.387  17.648  0.00  0.00    +0.000 C 
ATOM      4  C   UNL     1       5.313   5.341  17.555  0.00  0.00    +0.000 C 
ATOM      5  C   UNL     1       5.119   4.963  16.083  0.00  0.00    +0.000 C 
ENDROOT
BRANCH   4   6
ATOM      6  C   UNL     1       4.693   4.363  18.473  0.00  0.00    +0.000 A 
ATOM      7  N   UNL     1       3.431   4.177  18.781  0.00  0.00    +0.000 NA
ATOM      8  C   UNL     1       3.503   3.157  19.694  0.00  0.00    +0.000 A 
ATOM      9  N   UNL     1       4.739   2.702  19.933  0.00  0.00    +0.000 NA
ATOM     10  O   UNL     1       5.538   3.504  19.115  0.00  0.00    +0.000 OA
BRANCH   8  11
ATOM     11  C   UNL     1       2.283   2.607  20.414  0.00  0.00    +0.000 C 
ATOM     12  C   UNL     1       1.924   3.215  21.757  0.00  0.00    +0.000 C 
ATOM     13  C   UNL     1       1.057   3.482  20.576  0.00  0.00    +0.000 C 
ENDBRANCH   8  11
ENDBRANCH   4   6
BRANCH   1  15
ATOM     14  C   UNL     1       6.036   3.893  13.479  0.00  0.00    +0.000 C 
ATOM     15  C   UNL     1       6.948   4.607  14.469  0.00  0.00    +0.000 C 
ENDBRANCH   1  15
BRANCH   3  16
ATOM     16  C   UNL     1       7.372   6.078  18.888  0.00  0.00    +0.000 C 
BRANCH  16  17
ATOM     17  O   UNL     1       7.863   5.109  19.805  0.00  0.00    +0.000 OA
ATOM     18  H   UNL     1       7.319   4.307  19.706  0.00  0.00    +0.000 HD
ENDBRANCH  16  17
ENDBRANCH   3  16
TORSDOF 5
ENDMDL
MODEL 2
REMARK VINA RESULT:      -6.5      2.345      5.901
REMARK  Name = 
REMARK  6 active torsions:
REMARK  status: ('A' for Active; 'I' for Inactive)
REMARK    1  A    between atoms: C_1  and  C_2
REMARK    2  A    between atoms: C_2  and  N_3
REMARK    3  A    between atoms: C_5  and  C_6
REMARK    4  A    between atoms: C_6  and  O_7
REMARK    5  A    between atoms: C_8  and  C_9
REMARK    6  A    between atoms: C_11  and  C_12
REMARK                            x       y       z     vdW  Elec       q    Type
REMARK                         _______ _______ _______ _____ _____    ______ ____
ROOT
ATOM      1  N   UNL     1       4.304   4.481  18.656  0.00  0.00    +0.000 NA
ATOM      2  C   UNL     1       5.313   5.488  19.057  0.00  0.00    +0.000 C 
ATOM      3  C   UNL     1       6.054   5.846  17.774  0.00  0.00    +0.000 C 
ATOM      4  C   UNL     1       6.158   4.482  17.104  0.00  0.00    +0.000 C 
ATOM      5  C   UNL     1       4.754   3.922  17.357  0.00  0.00    +0.000 C 
ENDROOT
BRANCH   4   6
ATOM      6  C   UNL     1       6.484   4.553  15.664  0.00  0.00    +0.000 A 
ATOM      7  N   UNL     1       5.904   3.975  14.639  0.00  0.00    +0.000 NA
ATOM      8  C   UNL     1       6.677   4.402  13.590  0.00  0.00    +0.000 A 
ATOM      9  N   UNL     1       7.676   5.227  13.928  0.00  0.00    +0.000 NA
ATOM     10  O   UNL     1       7.549   5.333  15.314  0.00  0.00    +0.000 OA
BRANCH   8  11
ATOM     11  C   UNL     1       6.449   3.948  12.158  0.00  0.00    +0.000 C 
ATOM     12  C   UNL     1       6.512   2.460  11.873  0.00  0.00    +0.000 C 
ATOM     13  C   UNL     1       5.200   3.161  11.818  0.00  0.00    +0.000 C 
ENDBRANCH   8  11
ENDBRANCH   4   6
BRANCH   1  15
ATOM     14  C   UNL     1       2.675   6.067  19.724  0.00  0.00    +0.000 C 
ATOM     15  C   UNL     1       2.970   5.098  18.586  0.00  0.00    +0.000 C 
ENDBRANCH   1  15
BRANCH   3  16
ATOM     16  C   UNL     1       7.384   6.536  18.020  0.00  0.00    +0.000 C 
BRANCH  16  17
ATOM     17  O   UNL     1       7.571   7.577  17.070  0.00  0.00    +0.000 OA
ATOM     18  H   UNL     1       7.020   7.370  16.294  0.00  0.00    +0.000 HD
ENDBRANCH  16  17
ENDBRANCH   3  16
TORSDOF 5
ENDMDL
MODEL 3
REMARK VINA RESULT:      -6.4      2.003      5.723
REMARK  Name = 
REMARK  6 active torsions:
REMARK  status: ('A' for Active; 'I' for Inactive)
REMARK    1  A    between atoms: C_1  and  C_2
REMARK    2  A    between atoms: C_2  and  N_3
REMARK    3  A    between atoms: C_5  and  C_6
REMARK    4  A    between atoms: C_6  and  O_7
REMARK    5  A    between atoms: C_8  and  C_9
REMARK    6  A    between atoms: C_11  and  C_12
REMARK                            x       y       z     vdW  Elec       q    Type
REMARK                         _______ _______ _______ _____ _____    ______ ____
ROOT
ATOM      1  N   UNL     1       4.145   4.430  18.706  0.00  0.00    +0.000 NA
ATOM      2  C   UNL     1       5.231   5.307  19.200  0.00  0.00    +0.000 C 
ATOM      3  C   UNL     1       6.040   5.678  17.963  0.00  0.00    +0.000 C 
ATOM      4  C   UNL     1       6.037   4.359  17.202  0.00  0.00    +0.000 C 
ATOM      5  C   UNL     1       4.580   3.919  17.382  0.00  0.00    +0.000 C 
ENDROOT
BRANCH   4   6
ATOM      6  C   UNL     1       6.411   4.495  15.779  0.00  0.00    +0.000 A 
ATOM      7  N   UNL     1       5.887   3.939  14.712  0.00  0.00    +0.000 NA
ATOM      8  C   UNL     1       6.683   4.431  13.709  0.00  0.00    +0.000 A 
ATOM      9  N   UNL     1       7.641   5.273  14.114  0.00  0.00    +0.000 NA
ATOM     10  O   UNL     1       7.462   5.321  15.497  0.00  0.00    +0.000 OA
BRANCH   8  11
ATOM     11  C   UNL     1       6.521   4.025  12.254  0.00  0.00    +0.000 C 
ATOM     12  C   UNL     1       6.549   2.544  11.928  0.00  0.00    +0.000 C 
ATOM     13  C   UNL     1       5.267   3.292  11.821  0.00  0.00    +0.000 C 
ENDBRANCH   8  11
ENDBRANCH   4   6
BRANCH   1  15
ATOM     14  C   UNL     1       1.782   4.472  17.854  0.00  0.00    +0.000 C 
ATOM     15  C   UNL     1       2.877   5.174  18.647  0.00  0.00    +0.000 C 
ENDBRANCH   1  15
BRANCH   3  16
ATOM     16  C   UNL     1       7.422   6.220  18.288  0.00  0.00    +0.000 C 
BRANCH  16  17
ATOM     17  O   UNL     1       8.066   5.366  19.225  0.00  0.00    +0.000 OA
ATOM     18  H   UNL     1       7.973   4.452  18.903  0.00  0.00    +0.000 HD
ENDBRANCH  16  17
ENDBRANCH   3  16
TORSDOF 5
ENDMDL
MODEL 4
REMARK VINA RESULT:      -6.4      1.641      2.948
REMARK  Name = 
REMARK  6 active torsions:
REMARK  status: ('A' for Active; 'I' for Inactive)
REMARK    1  A    between atoms: C_1  and  C_2
REMARK    2  A    between atoms: C_2  and  N_3
REMARK    3  A    between atoms: C_5  and  C_6
REMARK    4  A    between atoms: C_6  and  O_7
REMARK    5  A    between atoms: C_8  and  C_9
REMARK    6  A    between atoms: C_11  and  C_12
REMARK                            x       y       z     vdW  Elec       q    Type
REMARK                         _______ _______ _______ _____ _____    ______ ____
ROOT
ATOM      1  N   UNL     1       7.543   6.365  17.426  0.00  0.00    +0.000 NA
ATOM      2  C   UNL     1       6.983   5.754  16.198  0.00  0.00    +0.000 C 
ATOM      3  C   UNL     1       5.719   5.033  16.650  0.00  0.00    +0.000 C 
ATOM      4  C   UNL     1       6.172   4.453  17.984  0.00  0.00    +0.000 C 
ATOM      5  C   UNL     1       6.943   5.639  18.573  0.00  0.00    +0.000 C 
ENDROOT
BRANCH   4   6
ATOM      6  C   UNL     1       5.056   4.022  18.851  0.00  0.00    +0.000 A 
ATOM      7  N   UNL     1       3.888   4.582  19.065  0.00  0.00    +0.000 NA
ATOM      8  C   UNL     1       3.322   3.732  19.979  0.00  0.00    +0.000 A 
ATOM      9  N   UNL     1       4.076   2.676  20.307  0.00  0.00    +0.000 NA
ATOM     10  O   UNL     1       5.236   2.864  19.553  0.00  0.00    +0.000 OA
BRANCH   8  11
ATOM     11  C   UNL     1       1.961   3.982  20.606  0.00  0.00    +0.000 C 
ATOM     12  C   UNL     1       0.775   3.224  20.040  0.00  0.00    +0.000 C 
ATOM     13  C   UNL     1       1.289   2.875  21.392  0.00  0.00    +0.000 C 
ENDBRANCH   8  11
ENDBRANCH   4   6
BRANCH   1  15
ATOM     14  C   UNL     1       8.358   8.643  18.101  0.00  0.00    +0.000 C 
ATOM     15  C   UNL     1       7.262   7.809  17.449  0.00  0.00    +0.000 C 
ENDBRANCH   1  15
BRANCH   3  16
ATOM     16  C   UNL     1       5.222   4.006  15.647  0.00  0.00    +0.000 C 
BRANCH  16  17
ATOM     17  O   UNL     1       6.320   3.477  14.914  0.00  0.00    +0.000 OA
ATOM     18  H   UNL     1       6.883   2.987  15.540  0.00  0.00    +0.000 HD
ENDBRANCH  16  17
ENDBRANCH   3  16
TORSDOF 5
ENDMDL
MODEL 5
REMARK VINA RESULT:      -6.4      1.686      2.044
REMARK  Name = 
REMARK  6 active torsions:
REMARK  status: ('A' for Active; 'I' for Inactive)
REMARK    1  A    between atoms: C_1  and  C_2
REMARK    2  A    between atoms: C_2  and  N_3
REMARK    3  A    between atoms: C_5  and  C_6
REMARK    4  A    between atoms: C_6  and  O_7
REMARK    5  A    between atoms: C_8  and  C_9
REMARK    6  A    between atoms: C_11  and  C_12
REMARK                            x       y       z     vdW  Elec       q    Type
REMARK                         _______ _______ _______ _____ _____    ______ ____
ROOT
ATOM      1  N   UNL     1       6.224   5.330  15.292  0.00  0.00    +0.000 NA
ATOM      2  C   UNL     1       7.284   5.457  16.319  0.00  0.00    +0.000 C 
ATOM      3  C   UNL     1       6.547   5.483  17.653  0.00  0.00    +0.000 C 
ATOM      4  C   UNL     1       5.335   6.335  17.303  0.00  0.00    +0.000 C 
ATOM      5  C   UNL     1       4.957   5.761  15.933  0.00  0.00    +0.000 C 
ENDROOT
BRANCH   4   6
ATOM      6  C   UNL     1       4.232   6.226  18.281  0.00  0.00    +0.000 A 
ATOM      7  N   UNL     1       3.991   5.302  19.182  0.00  0.00    +0.000 NA
ATOM      8  C   UNL     1       2.823   5.745  19.746  0.00  0.00    +0.000 A 
ATOM      9  N   UNL     1       2.362   6.900  19.251  0.00  0.00    +0.000 NA
ATOM     10  O   UNL     1       3.303   7.227  18.272  0.00  0.00    +0.000 OA
BRANCH   8  11
ATOM     11  C   UNL     1       2.082   4.971  20.823  0.00  0.00    +0.000 C 
ATOM     12  C   UNL     1       1.071   3.933  20.376  0.00  0.00    +0.000 C 
ATOM     13  C   UNL     1       2.352   3.490  20.993  0.00  0.00    +0.000 C 
ENDBRANCH   8  11
ENDBRANCH   4   6
BRANCH   1  15
ATOM     14  C   UNL     1       6.374   3.839  13.277  0.00  0.00    +0.000 C 
ATOM     15  C   UNL     1       6.172   3.951  14.783  0.00  0.00    +0.000 C 
ENDBRANCH   1  15
BRANCH   3  16
ATOM     16  C   UNL     1       7.392   6.020  18.796  0.00  0.00    +0.000 C 
BRANCH  16  17
ATOM     17  O   UNL     1       7.077   5.326  19.996  0.00  0.00    +0.000 OA
ATOM     18  H   UNL     1       6.233   4.861  19.854  0.00  0.00    +0.000 HD
ENDBRANCH  16  17
ENDBRANCH   3  16
TORSDOF 5
ENDMDL
MODEL 6
REMARK VINA RESULT:      -6.2      1.113      1.353
REMARK  Name = 
REMARK  6 active torsions:
REMARK  status: ('A' for Active; 'I' for Inactive)
REMARK    1  A    between atoms: C_1  and  C_2
REMARK    2  A    between atoms: C_2  and  N_3
REMARK    3  A    between atoms: C_5  and  C_6
REMARK    4  A    between atoms: C_6  and  O_7
REMARK    5  A    between atoms: C_8  and  C_9
REMARK    6  A    between atoms: C_11  and  C_12
REMARK                            x       y       z     vdW  Elec       q    Type
REMARK                         _______ _______ _______ _____ _____    ______ ____
ROOT
ATOM      1  N   UNL     1       6.332   5.567  15.270  0.00  0.00    +0.000 NA
ATOM      2  C   UNL     1       7.293   5.829  16.365  0.00  0.00    +0.000 C 
ATOM      3  C   UNL     1       6.580   5.384  17.637  0.00  0.00    +0.000 C 
ATOM      4  C   UNL     1       5.162   5.866  17.364  0.00  0.00    +0.000 C 
ATOM      5  C   UNL     1       4.991   5.459  15.896  0.00  0.00    +0.000 C 
ENDROOT
BRANCH   4   6
ATOM      6  C   UNL     1       4.147   5.245  18.240  0.00  0.00    +0.000 A 
ATOM      7  N   UNL     1       4.120   4.053  18.789  0.00  0.00    +0.000 NA
ATOM      8  C   UNL     1       2.921   4.066  19.453  0.00  0.00    +0.000 A 
ATOM      9  N   UNL     1       2.236   5.212  19.354  0.00  0.00    +0.000 NA
ATOM     10  O   UNL     1       3.053   6.005  18.547  0.00  0.00    +0.000 OA
BRANCH   8  11
ATOM     11  C   UNL     1       2.385   2.863  20.212  0.00  0.00    +0.000 C 
ATOM     12  C   UNL     1       2.369   2.936  21.726  0.00  0.00    +0.000 C 
ATOM     13  C   UNL     1       1.083   2.987  20.977  0.00  0.00    +0.000 C 
ENDBRANCH   8  11
ENDBRANCH   4   6
BRANCH   1  15
ATOM     14  C   UNL     1       5.715   3.926  13.470  0.00  0.00    +0.000 C 
ATOM     15  C   UNL     1       6.721   4.355  14.531  0.00  0.00    +0.000 C 
ENDBRANCH   1  15
BRANCH   3  16
ATOM     16  C   UNL     1       7.207   5.942  18.904  0.00  0.00    +0.000 C 
BRANCH  16  17
ATOM     17  O   UNL     1       7.011   5.033  19.980  0.00  0.00    +0.000 OA
ATOM     18  H   UNL     1       6.455   4.304  19.651  0.00  0.00    +0.000 HD
ENDBRANCH  16  17
ENDBRANCH   3  16
TORSDOF 5
ENDMDL
MODEL 7
REMARK VINA RESULT:      -6.2      2.196      5.601
REMARK  Name = 
REMARK  6 active torsions:
REMARK  status: ('A' for Active; 'I' for Inactive)
REMARK    1  A    between atoms: C_1  and  C_2
REMARK    2  A    between atoms: C_2  and  N_3
REMARK    3  A    between atoms: C_5  and  C_6
REMARK    4  A    between atoms: C_6  and  O_7
REMARK    5  A    between atoms: C_8  and  C_9
REMARK    6  A    between atoms: C_11  and  C_12
REMARK                            x       y       z     vdW  Elec       q    Type
REMARK                         _______ _______ _______ _____ _____    ______ ____
ROOT
ATOM      1  N   UNL     1       1.829   3.549  20.604  0.00  0.00    +0.000 NA
ATOM      2  C   UNL     1       1.475   4.966  20.362  0.00  0.00    +0.000 C 
ATOM      3  C   UNL     1       2.512   5.473  19.367  0.00  0.00    +0.000 C 
ATOM      4  C   UNL     1       3.773   4.793  19.883  0.00  0.00    +0.000 C 
ATOM      5  C   UNL     1       3.245   3.387  20.187  0.00  0.00    +0.000 C 
ENDROOT
BRANCH   4   6
ATOM      6  C   UNL     1       4.880   4.777  18.904  0.00  0.00    +0.000 A 
ATOM      7  N   UNL     1       4.860   4.953  17.604  0.00  0.00    +0.000 NA
ATOM      8  C   UNL     1       6.179   4.793  17.269  0.00  0.00    +0.000 A 
ATOM      9  N   UNL     1       6.996   4.555  18.301  0.00  0.00    +0.000 NA
ATOM     10  O   UNL     1       6.133   4.546  19.398  0.00  0.00    +0.000 OA
BRANCH   8  11
ATOM     11  C   UNL     1       6.678   4.840  15.834  0.00  0.00    +0.000 C 
ATOM     12  C   UNL     1       6.070   3.864  14.845  0.00  0.00    +0.000 C 
ATOM     13  C   UNL     1       5.744   5.312  14.738  0.00  0.00    +0.000 C 
ENDBRANCH   8  11
ENDBRANCH   4   6
BRANCH   1  15
ATOM     14  C   UNL     1       1.478   2.120  18.568  0.00  0.00    +0.000 C 
ATOM     15  C   UNL     1       0.910   2.663  19.874  0.00  0.00    +0.000 C 
ENDBRANCH   1  15
BRANCH   3  16
ATOM     16  C   UNL     1       2.591   6.989  19.300  0.00  0.00    +0.000 C 
BRANCH  16  17
ATOM     17  O   UNL     1       2.892   7.399  17.973  0.00  0.00    +0.000 OA
ATOM     18  H   UNL     1       2.743   8.360  17.920  0.00  0.00    +0.000 HD
ENDBRANCH  16  17
ENDBRANCH   3  16
TORSDOF 5
ENDMDL
MODEL 8
REMARK VINA RESULT:      -6.2      1.459      1.629
REMARK  Name = 
REMARK  6 active torsions:
REMARK  status: ('A' for Active; 'I' for Inactive)
REMARK    1  A    between atoms: C_1  and  C_2
REMARK    2  A    between atoms: C_2  and  N_3
REMARK    3  A    between atoms: C_5  and  C_6
REMARK    4  A    between atoms: C_6  and  O_7
REMARK    5  A    between atoms: C_8  and  C_9
REMARK    6  A    between atoms: C_11  and  C_12
REMARK                            x       y       z     vdW  Elec       q    Type
REMARK                         _______ _______ _______ _____ _____    ______ ____
ROOT
ATOM      1  N   UNL     1       6.238   4.982  14.474  0.00  0.00    +0.000 NA
ATOM      2  C   UNL     1       7.362   4.862  15.431  0.00  0.00    +0.000 C 
ATOM      3  C   UNL     1       6.710   4.586  16.781  0.00  0.00    +0.000 C 
ATOM      4  C   UNL     1       5.497   5.505  16.715  0.00  0.00    +0.000 C 
ATOM      5  C   UNL     1       5.023   5.264  15.278  0.00  0.00    +0.000 C 
ENDROOT
BRANCH   4   6
ATOM      6  C   UNL     1       4.456   5.183  17.712  0.00  0.00    +0.000 A 
ATOM      7  N   UNL     1       3.320   4.541  17.569  0.00  0.00    +0.000 NA
ATOM      8  C   UNL     1       2.795   4.594  18.834  0.00  0.00    +0.000 A 
ATOM      9  N   UNL     1       3.567   5.211  19.737  0.00  0.00    +0.000 NA
ATOM     10  O   UNL     1       4.680   5.604  18.992  0.00  0.00    +0.000 OA
BRANCH   8  11
ATOM     11  C   UNL     1       1.427   4.033  19.184  0.00  0.00    +0.000 C 
ATOM     12  C   UNL     1       1.355   2.592  19.652  0.00  0.00    +0.000 C 
ATOM     13  C   UNL     1       1.110   3.691  20.626  0.00  0.00    +0.000 C 
ENDBRANCH   8  11
ENDBRANCH   4   6
BRANCH   1  15
ATOM     14  C   UNL     1       6.714   3.879  12.268  0.00  0.00    +0.000 C 
ATOM     15  C   UNL     1       6.123   3.758  13.667  0.00  0.00    +0.000 C 
ENDBRANCH   1  15
BRANCH   3  16
ATOM     16  C   UNL     1       7.636   4.840  17.958  0.00  0.00    +0.000 C 
BRANCH  16  17
ATOM     17  O   UNL     1       7.645   6.227  18.274  0.00  0.00    +0.000 OA
ATOM     18  H   UNL     1       8.031   6.324  19.163  0.00  0.00    +0.000 HD
ENDBRANCH  16  17
ENDBRANCH   3  16
TORSDOF 5
ENDMDL
MODEL 9
REMARK VINA RESULT:      -6.2      2.221      5.812
REMARK  Name = 
REMARK  6 active torsions:
REMARK  status: ('A' for Active; 'I' for Inactive)
REMARK    1  A    between atoms: C_1  and  C_2
REMARK    2  A    between atoms: C_2  and  N_3
REMARK    3  A    between atoms: C_5  and  C_6
REMARK    4  A    between atoms: C_6  and  O_7
REMARK    5  A    between atoms: C_8  and  C_9
REMARK    6  A    between atoms: C_11  and  C_12
REMARK                            x       y       z     vdW  Elec       q    Type
REMARK                         _______ _______ _______ _____ _____    ______ ____
ROOT
ATOM      1  N   UNL     1       1.330   3.656  19.369  0.00  0.00    +0.000 NA
ATOM      2  C   UNL     1       2.111   2.493  19.849  0.00  0.00    +0.000 C 
ATOM      3  C   UNL     1       3.538   2.747  19.377  0.00  0.00    +0.000 C 
ATOM      4  C   UNL     1       3.290   3.330  17.992  0.00  0.00    +0.000 C 
ATOM      5  C   UNL     1       2.119   4.277  18.276  0.00  0.00    +0.000 C 
ENDROOT
BRANCH   4   6
ATOM      6  C   UNL     1       4.460   4.037  17.429  0.00  0.00    +0.000 A 
ATOM      7  N   UNL     1       5.443   4.659  18.037  0.00  0.00    +0.000 NA
ATOM      8  C   UNL     1       6.186   5.125  16.984  0.00  0.00    +0.000 A 
ATOM      9  N   UNL     1       5.717   4.795  15.775  0.00  0.00    +0.000 NA
ATOM     10  O   UNL     1       4.564   4.064  16.067  0.00  0.00    +0.000 OA
BRANCH   8  11
ATOM     11  C   UNL     1       7.426   5.984  17.166  0.00  0.00    +0.000 C 
ATOM     12  C   UNL     1       7.225   7.444  17.525  0.00  0.00    +0.000 C 
ATOM     13  C   UNL     1       7.773   6.507  18.545  0.00  0.00    +0.000 C 
ENDBRANCH   8  11
ENDBRANCH   4   6
BRANCH   1  15
ATOM     14  C   UNL     1       1.902   5.849  20.451  0.00  0.00    +0.000 C 
ATOM     15  C   UNL     1       1.058   4.580  20.480  0.00  0.00    +0.000 C 
ENDBRANCH   1  15
BRANCH   3  16
ATOM     16  C   UNL     1       4.408   1.502  19.395  0.00  0.00    +0.000 C 
BRANCH  16  17
ATOM     17  O   UNL     1       4.030   0.635  18.333  0.00  0.00    +0.000 OA
ATOM     18  H   UNL     1       4.526  -0.197  18.441  0.00  0.00    +0.000 HD
ENDBRANCH  16  17
ENDBRANCH   3  16
TORSDOF 5
ENDMDL
