MODEL 1
REMARK VINA RESULT:      -7.9      0.000      0.000
REMARK  Name = 
REMARK  5 active torsions:
REMARK  status: ('A' for Active; 'I' for Inactive)
REMARK    1  A    between atoms: C_1  and  N_2
REMARK    2  A    between atoms: C_5  and  C_6
REMARK    3  A    between atoms: C_11  and  C_12
REMARK    4  A    between atoms: C_11  and  N_13
REMARK    5  A    between atoms: C_17  and  C_18
REMARK                            x       y       z     vdW  Elec       q    Type
REMARK                         _______ _______ _______ _____ _____    ______ ____
ROOT
ATOM      1  N   UNL     1      -3.924  11.223  18.144  0.00  0.00    +0.000 N 
ATOM      2  C   UNL     1      -3.699  10.029  17.335  0.00  0.00    +0.000 C 
ATOM      3  C   UNL     1      -2.231   9.633  17.476  0.00  0.00    +0.000 C 
ATOM      4  C   UNL     1      -1.760  10.564  18.531  0.00  0.00    +0.000 A 
ATOM      5  C   UNL     1      -0.550  10.660  19.165  0.00  0.00    +0.000 A 
ATOM      6  N   UNL     1      -0.388  11.572  20.144  0.00  0.00    +0.000 NA
ATOM      7  C   UNL     1      -1.421  12.370  20.496  0.00  0.00    +0.000 A 
ATOM      8  N   UNL     1      -1.213  13.245  21.532  0.00  0.00    +0.000 N 
ATOM      9  C   UNL     1      -2.279  14.092  22.060  0.00  0.00    +0.000 C 
ATOM     10  C   UNL     1      -1.950  15.575  21.827  0.00  0.00    +0.000 C 
ATOM     11  O   UNL     1      -0.644  15.918  22.324  0.00  0.00    +0.000 OA
ATOM     12  C   UNL     1       0.361  15.126  21.669  0.00  0.00    +0.000 C 
ATOM     13  C   UNL     1       0.145  13.625  21.926  0.00  0.00    +0.000 C 
ATOM     14  N   UNL     1      -2.629  12.311  19.901  0.00  0.00    +0.000 NA
ATOM     15  C   UNL     1      -2.773  11.420  18.916  0.00  0.00    +0.000 A 
ENDROOT
BRANCH   5  16
ATOM     16  C   UNL     1       0.601   9.790  18.898  0.00  0.00    +0.000 A 
ATOM     17  C   UNL     1       1.353   9.826  17.737  0.00  0.00    +0.000 A 
ATOM     18  N   UNL     1       2.347   8.967  17.421  0.00  0.00    +0.000 NA
ATOM     19  C   UNL     1       2.630   8.034  18.326  0.00  0.00    +0.000 A 
ATOM     20  N   UNL     1       3.611   7.124  18.005  0.00  0.00    +0.000 N 
ATOM     21  N   UNL     1       2.050   7.945  19.526  0.00  0.00    +0.000 NA
ATOM     22  C   UNL     1       1.049   8.826  19.781  0.00  0.00    +0.000 A 
ATOM     23  H   UNL     1       4.206   7.506  17.283  0.00  0.00    +0.000 HD
ATOM     24  H   UNL     1       4.052   6.779  18.844  0.00  0.00    +0.000 HD
ENDBRANCH   5  16
BRANCH   1  30
ATOM     25  C   UNL     1      -6.599  12.597  21.722  0.00  0.00    +0.000 C 
ATOM     26  O   UNL     1      -7.235  11.777  22.394  0.00  0.00    +0.000 OA
ATOM     27  N   UNL     1      -6.474  12.409  20.349  0.00  0.00    +0.000 N 
ATOM     28  C   UNL     1      -7.283  11.448  19.634  0.00  0.00    +0.000 C 
ATOM     29  C   UNL     1      -6.310  10.761  18.704  0.00  0.00    +0.000 C 
ATOM     30  C   UNL     1      -5.241  11.836  18.357  0.00  0.00    +0.000 C 
ATOM     31  C   UNL     1      -5.676  12.576  17.082  0.00  0.00    +0.000 C 
ATOM     32  C   UNL     1      -5.279  12.776  19.591  0.00  0.00    +0.000 C 
BRANCH  25  37
ATOM     33  C   UNL     1      -7.916  15.173  21.532  0.00  0.00    +0.000 C 
ATOM     34  N   UNL     1      -6.722  15.175  22.366  0.00  0.00    +0.000 NA
ATOM     35  C   UNL     1      -7.056  14.859  23.773  0.00  0.00    +0.000 C 
ATOM     36  C   UNL     1      -5.768  14.019  23.833  0.00  0.00    +0.000 C 
ATOM     37  C   UNL     1      -5.908  13.912  22.295  0.00  0.00    +0.000 C 
ENDBRANCH  25  37
ENDBRANCH   1  30
TORSDOF 3
ENDMDL
MODEL 2
REMARK VINA RESULT:      -7.6      4.181      8.246
REMARK  Name = 
REMARK  5 active torsions:
REMARK  status: ('A' for Active; 'I' for Inactive)
REMARK    1  A    between atoms: C_1  and  N_2
REMARK    2  A    between atoms: C_5  and  C_6
REMARK    3  A    between atoms: C_11  and  C_12
REMARK    4  A    between atoms: C_11  and  N_13
REMARK    5  A    between atoms: C_17  and  C_18
REMARK                            x       y       z     vdW  Elec       q    Type
REMARK                         _______ _______ _______ _____ _____    ______ ____
ROOT
ATOM      1  N   UNL     1       2.147   8.464  18.939  0.00  0.00    +0.000 N 
ATOM      2  C   UNL     1       2.805   9.274  17.918  0.00  0.00    +0.000 C 
ATOM      3  C   UNL     1       3.852   8.403  17.228  0.00  0.00    +0.000 C 
ATOM      4  C   UNL     1       3.575   7.067  17.811  0.00  0.00    +0.000 A 
ATOM      5  C   UNL     1       4.122   5.841  17.540  0.00  0.00    +0.000 A 
ATOM      6  N   UNL     1       3.653   4.753  18.181  0.00  0.00    +0.000 NA
ATOM      7  C   UNL     1       2.644   4.880  19.072  0.00  0.00    +0.000 A 
ATOM      8  N   UNL     1       2.174   3.731  19.657  0.00  0.00    +0.000 N 
ATOM      9  C   UNL     1       1.030   3.733  20.564  0.00  0.00    +0.000 C 
ATOM     10  C   UNL     1       1.462   3.294  21.972  0.00  0.00    +0.000 C 
ATOM     11  O   UNL     1       2.175   2.044  21.948  0.00  0.00    +0.000 OA
ATOM     12  C   UNL     1       3.352   2.159  21.131  0.00  0.00    +0.000 C 
ATOM     13  C   UNL     1       2.993   2.518  19.679  0.00  0.00    +0.000 C 
ATOM     14  N   UNL     1       2.076   6.066  19.370  0.00  0.00    +0.000 NA
ATOM     15  C   UNL     1       2.563   7.142  18.747  0.00  0.00    +0.000 A 
ENDROOT
BRANCH   5  16
ATOM     16  C   UNL     1       5.168   5.599  16.540  0.00  0.00    +0.000 A 
ATOM     17  C   UNL     1       6.468   6.063  16.644  0.00  0.00    +0.000 A 
ATOM     18  N   UNL     1       7.420   5.946  15.691  0.00  0.00    +0.000 NA
ATOM     19  C   UNL     1       7.065   5.306  14.580  0.00  0.00    +0.000 A 
ATOM     20  N   UNL     1       8.007   5.214  13.580  0.00  0.00    +0.000 N 
ATOM     21  N   UNL     1       5.877   4.726  14.388  0.00  0.00    +0.000 NA
ATOM     22  C   UNL     1       4.959   4.888  15.374  0.00  0.00    +0.000 A 
ATOM     23  H   UNL     1       8.930   5.341  13.971  0.00  0.00    +0.000 HD
ATOM     24  H   UNL     1       7.841   4.390  13.022  0.00  0.00    +0.000 HD
ENDBRANCH   5  16
BRANCH   1  30
ATOM     25  C   UNL     1      -1.744  10.984  18.340  0.00  0.00    +0.000 C 
ATOM     26  O   UNL     1      -1.703  12.219  18.296  0.00  0.00    +0.000 OA
ATOM     27  N   UNL     1      -0.906  10.301  19.215  0.00  0.00    +0.000 N 
ATOM     28  C   UNL     1      -0.188  10.980  20.270  0.00  0.00    +0.000 C 
ATOM     29  C   UNL     1       1.199  10.382  20.221  0.00  0.00    +0.000 C 
ATOM     30  C   UNL     1       1.000   8.918  19.735  0.00  0.00    +0.000 C 
ATOM     31  C   UNL     1       0.832   8.006  20.961  0.00  0.00    +0.000 C 
ATOM     32  C   UNL     1      -0.314   8.999  18.914  0.00  0.00    +0.000 C 
BRANCH  25  37
ATOM     33  C   UNL     1      -4.617  11.361  18.447  0.00  0.00    +0.000 C 
ATOM     34  N   UNL     1      -4.175  10.445  17.403  0.00  0.00    +0.000 NA
ATOM     35  C   UNL     1      -3.904  11.170  16.142  0.00  0.00    +0.000 C 
ATOM     36  C   UNL     1      -2.684  10.254  15.940  0.00  0.00    +0.000 C 
ATOM     37  C   UNL     1      -2.721  10.069  17.478  0.00  0.00    +0.000 C 
ENDBRANCH  25  37
ENDBRANCH   1  30
TORSDOF 3
ENDMDL
MODEL 3
REMARK VINA RESULT:      -7.4      6.747      9.097
REMARK  Name = 
REMARK  5 active torsions:
REMARK  status: ('A' for Active; 'I' for Inactive)
REMARK    1  A    between atoms: C_1  and  N_2
REMARK    2  A    between atoms: C_5  and  C_6
REMARK    3  A    between atoms: C_11  and  C_12
REMARK    4  A    between atoms: C_11  and  N_13
REMARK    5  A    between atoms: C_17  and  C_18
REMARK                            x       y       z     vdW  Elec       q    Type
REMARK                         _______ _______ _______ _____ _____    ______ ____
ROOT
ATOM      1  N   UNL     1       4.394  15.209  19.360  0.00  0.00    +0.000 N 
ATOM      2  C   UNL     1       4.531  15.026  17.919  0.00  0.00    +0.000 C 
ATOM      3  C   UNL     1       6.009  14.802  17.610  0.00  0.00    +0.000 C 
ATOM      4  C   UNL     1       6.596  14.697  18.969  0.00  0.00    +0.000 A 
ATOM      5  C   UNL     1       7.874  14.415  19.373  0.00  0.00    +0.000 A 
ATOM      6  N   UNL     1       8.145  14.323  20.690  0.00  0.00    +0.000 NA
ATOM      7  C   UNL     1       7.155  14.497  21.593  0.00  0.00    +0.000 A 
ATOM      8  N   UNL     1       7.479  14.343  22.917  0.00  0.00    +0.000 N 
ATOM      9  C   UNL     1       6.476  14.417  23.977  0.00  0.00    +0.000 C 
ATOM     10  C   UNL     1       6.757  15.615  24.897  0.00  0.00    +0.000 C 
ATOM     11  O   UNL     1       8.110  15.609  25.386  0.00  0.00    +0.000 OA
ATOM     12  C   UNL     1       9.035  15.658  24.287  0.00  0.00    +0.000 C 
ATOM     13  C   UNL     1       8.870  14.442  23.361  0.00  0.00    +0.000 C 
ATOM     14  N   UNL     1       5.883  14.775  21.242  0.00  0.00    +0.000 NA
ATOM     15  C   UNL     1       5.629  14.888  19.935  0.00  0.00    +0.000 A 
ENDROOT
BRANCH   5  16
ATOM     16  C   UNL     1       8.993  14.141  18.464  0.00  0.00    +0.000 A 
ATOM     17  C   UNL     1       9.331  12.881  18.001  0.00  0.00    +0.000 A 
ATOM     18  N   UNL     1      10.417  12.588  17.252  0.00  0.00    +0.000 NA
ATOM     19  C   UNL     1      11.199  13.613  16.921  0.00  0.00    +0.000 A 
ATOM     20  N   UNL     1      12.333  13.328  16.195  0.00  0.00    +0.000 N 
ATOM     21  N   UNL     1      10.939  14.889  17.219  0.00  0.00    +0.000 NA
ATOM     22  C   UNL     1       9.842  15.120  17.983  0.00  0.00    +0.000 A 
ATOM     23  H   UNL     1      12.223  12.440  15.728  0.00  0.00    +0.000 HD
ATOM     24  H   UNL     1      12.594  14.126  15.634  0.00  0.00    +0.000 HD
ENDBRANCH   5  16
BRANCH   1  30
ATOM     25  C   UNL     1       0.532  12.665  20.040  0.00  0.00    +0.000 C 
ATOM     26  O   UNL     1      -0.326  12.562  19.156  0.00  0.00    +0.000 OA
ATOM     27  N   UNL     1       1.190  13.878  20.218  0.00  0.00    +0.000 N 
ATOM     28  C   UNL     1       0.722  15.098  19.599  0.00  0.00    +0.000 C 
ATOM     29  C   UNL     1       1.977  15.754  19.072  0.00  0.00    +0.000 C 
ATOM     30  C   UNL     1       3.107  15.333  20.055  0.00  0.00    +0.000 C 
ATOM     31  C   UNL     1       3.220  16.392  21.164  0.00  0.00    +0.000 C 
ATOM     32  C   UNL     1       2.591  13.984  20.621  0.00  0.00    +0.000 C 
BRANCH  25  37
ATOM     33  C   UNL     1      -0.900  12.272  22.529  0.00  0.00    +0.000 C 
ATOM     34  N   UNL     1       0.047  11.212  22.214  0.00  0.00    +0.000 NA
ATOM     35  C   UNL     1      -0.599  10.144  21.417  0.00  0.00    +0.000 C 
ATOM     36  C   UNL     1       0.698  10.050  20.593  0.00  0.00    +0.000 C 
ATOM     37  C   UNL     1       0.952  11.508  21.049  0.00  0.00    +0.000 C 
ENDBRANCH  25  37
ENDBRANCH   1  30
TORSDOF 3
ENDMDL
MODEL 4
REMARK VINA RESULT:      -7.4      6.423      8.760
REMARK  Name = 
REMARK  5 active torsions:
REMARK  status: ('A' for Active; 'I' for Inactive)
REMARK    1  A    between atoms: C_1  and  N_2
REMARK    2  A    between atoms: C_5  and  C_6
REMARK    3  A    between atoms: C_11  and  C_12
REMARK    4  A    between atoms: C_11  and  N_13
REMARK    5  A    between atoms: C_17  and  C_18
REMARK                            x       y       z     vdW  Elec       q    Type
REMARK                         _______ _______ _______ _____ _____    ______ ____
ROOT
ATOM      1  N   UNL     1       3.609  14.961  19.516  0.00  0.00    +0.000 N 
ATOM      2  C   UNL     1       3.843  14.965  18.076  0.00  0.00    +0.000 C 
ATOM      3  C   UNL     1       5.350  15.036  17.843  0.00  0.00    +0.000 C 
ATOM      4  C   UNL     1       5.883  14.882  19.219  0.00  0.00    +0.000 A 
ATOM      5  C   UNL     1       7.170  14.781  19.675  0.00  0.00    +0.000 A 
ATOM      6  N   UNL     1       7.392  14.592  20.990  0.00  0.00    +0.000 NA
ATOM      7  C   UNL     1       6.347  14.490  21.840  0.00  0.00    +0.000 A 
ATOM      8  N   UNL     1       6.631  14.248  23.161  0.00  0.00    +0.000 N 
ATOM      9  C   UNL     1       5.584  14.029  24.154  0.00  0.00    +0.000 C 
ATOM     10  C   UNL     1       5.604  15.147  25.208  0.00  0.00    +0.000 C 
ATOM     11  O   UNL     1       6.912  15.321  25.780  0.00  0.00    +0.000 OA
ATOM     12  C   UNL     1       7.863  15.651  24.755  0.00  0.00    +0.000 C 
ATOM     13  C   UNL     1       7.961  14.535  23.701  0.00  0.00    +0.000 C 
ATOM     14  N   UNL     1       5.063  14.583  21.437  0.00  0.00    +0.000 NA
ATOM     15  C   UNL     1       4.854  14.795  20.135  0.00  0.00    +0.000 A 
ENDROOT
BRANCH   5  16
ATOM     16  C   UNL     1       8.361  14.808  18.818  0.00  0.00    +0.000 A 
ATOM     17  C   UNL     1       9.125  13.696  18.509  0.00  0.00    +0.000 A 
ATOM     18  N   UNL     1      10.283  13.710  17.813  0.00  0.00    +0.000 NA
ATOM     19  C   UNL     1      10.692  14.897  17.374  0.00  0.00    +0.000 A 
ATOM     20  N   UNL     1      11.892  14.938  16.700  0.00  0.00    +0.000 N 
ATOM     21  N   UNL     1      10.006  16.034  17.517  0.00  0.00    +0.000 NA
ATOM     22  C   UNL     1       8.857  15.960  18.236  0.00  0.00    +0.000 A 
ATOM     23  H   UNL     1      12.110  14.020  16.338  0.00  0.00    +0.000 HD
ATOM     24  H   UNL     1      11.899  15.712  16.052  0.00  0.00    +0.000 HD
ENDBRANCH   5  16
BRANCH   1  30
ATOM     25  C   UNL     1       0.458  11.559  20.105  0.00  0.00    +0.000 C 
ATOM     26  O   UNL     1      -0.291  11.218  19.182  0.00  0.00    +0.000 OA
ATOM     27  N   UNL     1       0.784  12.902  20.261  0.00  0.00    +0.000 N 
ATOM     28  C   UNL     1       0.070  13.947  19.563  0.00  0.00    +0.000 C 
ATOM     29  C   UNL     1       1.156  14.878  19.074  0.00  0.00    +0.000 C 
ATOM     30  C   UNL     1       2.290  14.782  20.135  0.00  0.00    +0.000 C 
ATOM     31  C   UNL     1       2.069  15.870  21.198  0.00  0.00    +0.000 C 
ATOM     32  C   UNL     1       2.088  13.365  20.734  0.00  0.00    +0.000 C 
BRANCH  25  37
ATOM     33  C   UNL     1      -0.792  11.211  22.698  0.00  0.00    +0.000 C 
ATOM     34  N   UNL     1       0.284  10.268  22.424  0.00  0.00    +0.000 NA
ATOM     35  C   UNL     1      -0.234   9.049  21.763  0.00  0.00    +0.000 C 
ATOM     36  C   UNL     1       1.025   9.059  20.878  0.00  0.00    +0.000 C 
ATOM     37  C   UNL     1       1.084  10.575  21.188  0.00  0.00    +0.000 C 
ENDBRANCH  25  37
ENDBRANCH   1  30
TORSDOF 3
ENDMDL
MODEL 5
REMARK VINA RESULT:      -7.1      6.797      9.371
REMARK  Name = 
REMARK  5 active torsions:
REMARK  status: ('A' for Active; 'I' for Inactive)
REMARK    1  A    between atoms: C_1  and  N_2
REMARK    2  A    between atoms: C_5  and  C_6
REMARK    3  A    between atoms: C_11  and  C_12
REMARK    4  A    between atoms: C_11  and  N_13
REMARK    5  A    between atoms: C_17  and  C_18
REMARK                            x       y       z     vdW  Elec       q    Type
REMARK                         _______ _______ _______ _____ _____    ______ ____
ROOT
ATOM      1  N   UNL     1       5.035  15.777  20.047  0.00  0.00    +0.000 N 
ATOM      2  C   UNL     1       5.349  16.121  18.664  0.00  0.00    +0.000 C 
ATOM      3  C   UNL     1       6.756  15.614  18.360  0.00  0.00    +0.000 C 
ATOM      4  C   UNL     1       7.076  14.837  19.583  0.00  0.00    +0.000 A 
ATOM      5  C   UNL     1       8.164  14.067  19.896  0.00  0.00    +0.000 A 
ATOM      6  N   UNL     1       8.192  13.410  21.072  0.00  0.00    +0.000 NA
ATOM      7  C   UNL     1       7.145  13.507  21.921  0.00  0.00    +0.000 A 
ATOM      8  N   UNL     1       7.207  12.777  23.081  0.00  0.00    +0.000 N 
ATOM      9  C   UNL     1       6.098  12.731  24.031  0.00  0.00    +0.000 C 
ATOM     10  C   UNL     1       6.516  13.356  25.371  0.00  0.00    +0.000 C 
ATOM     11  O   UNL     1       7.731  12.775  25.877  0.00  0.00    +0.000 OA
ATOM     12  C   UNL     1       8.802  12.966  24.938  0.00  0.00    +0.000 C 
ATOM     13  C   UNL     1       8.491  12.294  23.590  0.00  0.00    +0.000 C 
ATOM     14  N   UNL     1       6.053  14.253  21.655  0.00  0.00    +0.000 NA
ATOM     15  C   UNL     1       6.045  14.920  20.498  0.00  0.00    +0.000 A 
ENDROOT
BRANCH   5  16
ATOM     16  C   UNL     1       9.311  13.847  19.007  0.00  0.00    +0.000 A 
ATOM     17  C   UNL     1      10.257  14.810  18.702  0.00  0.00    +0.000 A 
ATOM     18  N   UNL     1      11.258  14.667  17.806  0.00  0.00    +0.000 NA
ATOM     19  C   UNL     1      11.342  13.486  17.199  0.00  0.00    +0.000 A 
ATOM     20  N   UNL     1      12.330  13.335  16.253  0.00  0.00    +0.000 N 
ATOM     21  N   UNL     1      10.557  12.440  17.469  0.00  0.00    +0.000 NA
ATOM     22  C   UNL     1       9.561  12.647  18.368  0.00  0.00    +0.000 A 
ATOM     23  H   UNL     1      13.057  14.020  16.407  0.00  0.00    +0.000 HD
ATOM     24  H   UNL     1      12.604  12.366  16.188  0.00  0.00    +0.000 HD
ENDBRANCH   5  16
BRANCH   1  30
ATOM     25  C   UNL     1       0.802  13.794  20.071  0.00  0.00    +0.000 C 
ATOM     26  O   UNL     1       0.016  13.958  19.130  0.00  0.00    +0.000 OA
ATOM     27  N   UNL     1       1.611  14.850  20.481  0.00  0.00    +0.000 N 
ATOM     28  C   UNL     1       1.378  16.205  20.037  0.00  0.00    +0.000 C 
ATOM     29  C   UNL     1       2.756  16.728  19.700  0.00  0.00    +0.000 C 
ATOM     30  C   UNL     1       3.724  15.995  20.672  0.00  0.00    +0.000 C 
ATOM     31  C   UNL     1       3.895  16.847  21.940  0.00  0.00    +0.000 C 
ATOM     32  C   UNL     1       2.973  14.674  20.982  0.00  0.00    +0.000 C 
BRANCH  25  37
ATOM     33  C   UNL     1      -0.805  13.312  22.436  0.00  0.00    +0.000 C 
ATOM     34  N   UNL     1      -0.040  12.155  21.990  0.00  0.00    +0.000 NA
ATOM     35  C   UNL     1      -0.817  11.345  21.025  0.00  0.00    +0.000 C 
ATOM     36  C   UNL     1       0.485  11.140  20.231  0.00  0.00    +0.000 C 
ATOM     37  C   UNL     1       0.962  12.449  20.907  0.00  0.00    +0.000 C 
ENDBRANCH  25  37
ENDBRANCH   1  30
TORSDOF 3
ENDMDL
MODEL 6
REMARK VINA RESULT:      -6.8      6.797      9.328
REMARK  Name = 
REMARK  5 active torsions:
REMARK  status: ('A' for Active; 'I' for Inactive)
REMARK    1  A    between atoms: C_1  and  N_2
REMARK    2  A    between atoms: C_5  and  C_6
REMARK    3  A    between atoms: C_11  and  C_12
REMARK    4  A    between atoms: C_11  and  N_13
REMARK    5  A    between atoms: C_17  and  C_18
REMARK                            x       y       z     vdW  Elec       q    Type
REMARK                         _______ _______ _______ _____ _____    ______ ____
ROOT
ATOM      1  N   UNL     1       4.424  15.535  19.990  0.00  0.00    +0.000 N 
ATOM      2  C   UNL     1       4.729  15.930  18.619  0.00  0.00    +0.000 C 
ATOM      3  C   UNL     1       6.236  15.793  18.414  0.00  0.00    +0.000 C 
ATOM      4  C   UNL     1       6.661  15.138  19.675  0.00  0.00    +0.000 A 
ATOM      5  C   UNL     1       7.886  14.674  20.073  0.00  0.00    +0.000 A 
ATOM      6  N   UNL     1       8.004  14.060  21.267  0.00  0.00    +0.000 NA
ATOM      7  C   UNL     1       6.913  13.899  22.050  0.00  0.00    +0.000 A 
ATOM      8  N   UNL     1       7.083  13.223  23.232  0.00  0.00    +0.000 N 
ATOM      9  C   UNL     1       5.963  12.910  24.115  0.00  0.00    +0.000 C 
ATOM     10  C   UNL     1       6.122  13.637  25.460  0.00  0.00    +0.000 C 
ATOM     11  O   UNL     1       7.409  13.390  26.053  0.00  0.00    +0.000 OA
ATOM     12  C   UNL     1       8.455  13.835  25.174  0.00  0.00    +0.000 C 
ATOM     13  C   UNL     1       8.412  13.089  23.830  0.00  0.00    +0.000 C 
ATOM     14  N   UNL     1       5.688  14.340  21.699  0.00  0.00    +0.000 NA
ATOM     15  C   UNL     1       5.586  14.968  20.524  0.00  0.00    +0.000 A 
ENDROOT
BRANCH   5  16
ATOM     16  C   UNL     1       9.107  14.740  19.261  0.00  0.00    +0.000 A 
ATOM     17  C   UNL     1       9.880  15.878  19.108  0.00  0.00    +0.000 A 
ATOM     18  N   UNL     1      10.944  15.997  18.284  0.00  0.00    +0.000 NA
ATOM     19  C   UNL     1      11.277  14.910  17.591  0.00  0.00    +0.000 A 
ATOM     20  N   UNL     1      12.332  15.023  16.715  0.00  0.00    +0.000 N 
ATOM     21  N   UNL     1      10.678  13.723  17.715  0.00  0.00    +0.000 NA
ATOM     22  C   UNL     1       9.608  13.668  18.547  0.00  0.00    +0.000 A 
ATOM     23  H   UNL     1      12.912  15.806  16.980  0.00  0.00    +0.000 HD
ATOM     24  H   UNL     1      12.779  14.126  16.593  0.00  0.00    +0.000 HD
ENDBRANCH   5  16
BRANCH   1  30
ATOM     25  C   UNL     1       0.566  13.006  19.235  0.00  0.00    +0.000 C 
ATOM     26  O   UNL     1      -0.184  13.256  18.283  0.00  0.00    +0.000 OA
ATOM     27  N   UNL     1       1.173  14.052  19.923  0.00  0.00    +0.000 N 
ATOM     28  C   UNL     1       0.752  15.424  19.750  0.00  0.00    +0.000 C 
ATOM     29  C   UNL     1       2.044  16.201  19.650  0.00  0.00    +0.000 C 
ATOM     30  C   UNL     1       3.063  15.421  20.530  0.00  0.00    +0.000 C 
ATOM     31  C   UNL     1       3.026  15.992  21.957  0.00  0.00    +0.000 C 
ATOM     32  C   UNL     1       2.516  13.970  20.493  0.00  0.00    +0.000 C 
BRANCH  25  37
ATOM     33  C   UNL     1      -1.123  11.759  21.234  0.00  0.00    +0.000 C 
ATOM     34  N   UNL     1      -0.129  10.866  20.653  0.00  0.00    +0.000 NA
ATOM     35  C   UNL     1      -0.665  10.184  19.454  0.00  0.00    +0.000 C 
ATOM     36  C   UNL     1       0.716  10.368  18.799  0.00  0.00    +0.000 C 
ATOM     37  C   UNL     1       0.892  11.549  19.785  0.00  0.00    +0.000 C 
ENDBRANCH  25  37
ENDBRANCH   1  30
TORSDOF 3
ENDMDL
MODEL 7
REMARK VINA RESULT:      -6.8      0.778      1.123
REMARK  Name = 
REMARK  5 active torsions:
REMARK  status: ('A' for Active; 'I' for Inactive)
REMARK    1  A    between atoms: C_1  and  N_2
REMARK    2  A    between atoms: C_5  and  C_6
REMARK    3  A    between atoms: C_11  and  C_12
REMARK    4  A    between atoms: C_11  and  N_13
REMARK    5  A    between atoms: C_17  and  C_18
REMARK                            x       y       z     vdW  Elec       q    Type
REMARK                         _______ _______ _______ _____ _____    ______ ____
ROOT
ATOM      1  N   UNL     1      -4.193  11.641  18.485  0.00  0.00    +0.000 N 
ATOM      2  C   UNL     1      -4.125  10.382  17.750  0.00  0.00    +0.000 C 
ATOM      3  C   UNL     1      -2.683   9.885  17.798  0.00  0.00    +0.000 C 
ATOM      4  C   UNL     1      -2.056  10.845  18.740  0.00  0.00    +0.000 A 
ATOM      5  C   UNL     1      -0.792  10.889  19.264  0.00  0.00    +0.000 A 
ATOM      6  N   UNL     1      -0.480  11.850  20.156  0.00  0.00    +0.000 NA
ATOM      7  C   UNL     1      -1.418  12.747  20.533  0.00  0.00    +0.000 A 
ATOM      8  N   UNL     1      -1.059  13.671  21.482  0.00  0.00    +0.000 N 
ATOM      9  C   UNL     1      -2.012  14.631  22.033  0.00  0.00    +0.000 C 
ATOM     10  C   UNL     1      -1.600  16.065  21.665  0.00  0.00    +0.000 C 
ATOM     11  O   UNL     1      -0.234  16.339  22.026  0.00  0.00    +0.000 OA
ATOM     12  C   UNL     1       0.650  15.429  21.351  0.00  0.00    +0.000 C 
ATOM     13  C   UNL     1       0.352  13.970  21.734  0.00  0.00    +0.000 C 
ATOM     14  N   UNL     1      -2.675  12.741  20.045  0.00  0.00    +0.000 NA
ATOM     15  C   UNL     1      -2.968  11.800  19.143  0.00  0.00    +0.000 A 
ENDROOT
BRANCH   5  16
ATOM     16  C   UNL     1       0.267   9.917  18.968  0.00  0.00    +0.000 A 
ATOM     17  C   UNL     1       0.800   9.039  19.895  0.00  0.00    +0.000 A 
ATOM     18  N   UNL     1       1.845   8.211  19.678  0.00  0.00    +0.000 NA
ATOM     19  C   UNL     1       2.375   8.237  18.457  0.00  0.00    +0.000 A 
ATOM     20  N   UNL     1       3.467   7.432  18.229  0.00  0.00    +0.000 N 
ATOM     21  N   UNL     1       1.899   8.965  17.443  0.00  0.00    +0.000 NA
ATOM     22  C   UNL     1       0.856   9.786  17.725  0.00  0.00    +0.000 A 
ATOM     23  H   UNL     1       3.490   6.689  18.912  0.00  0.00    +0.000 HD
ATOM     24  H   UNL     1       3.511   7.176  17.254  0.00  0.00    +0.000 HD
ENDBRANCH   5  16
BRANCH   1  30
ATOM     25  C   UNL     1      -6.301  13.714  22.105  0.00  0.00    +0.000 C 
ATOM     26  O   UNL     1      -6.881  13.049  22.971  0.00  0.00    +0.000 OA
ATOM     27  N   UNL     1      -6.368  13.314  20.774  0.00  0.00    +0.000 N 
ATOM     28  C   UNL     1      -7.310  12.314  20.325  0.00  0.00    +0.000 C 
ATOM     29  C   UNL     1      -6.503  11.431  19.402  0.00  0.00    +0.000 C 
ATOM     30  C   UNL     1      -5.439  12.367  18.761  0.00  0.00    +0.000 C 
ATOM     31  C   UNL     1      -6.004  12.936  17.449  0.00  0.00    +0.000 C 
ATOM     32  C   UNL     1      -5.269  13.482  19.826  0.00  0.00    +0.000 C 
BRANCH  25  37
ATOM     33  C   UNL     1      -7.537  16.315  21.767  0.00  0.00    +0.000 C 
ATOM     34  N   UNL     1      -6.223  16.357  22.395  0.00  0.00    +0.000 NA
ATOM     35  C   UNL     1      -6.335  16.249  23.867  0.00  0.00    +0.000 C 
ATOM     36  C   UNL     1      -5.086  15.351  23.842  0.00  0.00    +0.000 C 
ATOM     37  C   UNL     1      -5.479  15.050  22.374  0.00  0.00    +0.000 C 
ENDBRANCH  25  37
ENDBRANCH   1  30
TORSDOF 3
ENDMDL
MODEL 8
REMARK VINA RESULT:      -6.8      3.526      9.131
REMARK  Name = 
REMARK  5 active torsions:
REMARK  status: ('A' for Active; 'I' for Inactive)
REMARK    1  A    between atoms: C_1  and  N_2
REMARK    2  A    between atoms: C_5  and  C_6
REMARK    3  A    between atoms: C_11  and  C_12
REMARK    4  A    between atoms: C_11  and  N_13
REMARK    5  A    between atoms: C_17  and  C_18
REMARK                            x       y       z     vdW  Elec       q    Type
REMARK                         _______ _______ _______ _____ _____    ______ ____
ROOT
ATOM      1  N   UNL     1       0.027  13.721  20.715  0.00  0.00    +0.000 N 
ATOM      2  C   UNL     1      -0.065  14.383  22.013  0.00  0.00    +0.000 C 
ATOM      3  C   UNL     1      -1.535  14.415  22.422  0.00  0.00    +0.000 C 
ATOM      4  C   UNL     1      -2.167  13.582  21.370  0.00  0.00    +0.000 A 
ATOM      5  C   UNL     1      -3.461  13.160  21.220  0.00  0.00    +0.000 A 
ATOM      6  N   UNL     1      -3.777  12.352  20.188  0.00  0.00    +0.000 NA
ATOM      7  C   UNL     1      -2.815  11.959  19.324  0.00  0.00    +0.000 A 
ATOM      8  N   UNL     1      -3.184  11.098  18.322  0.00  0.00    +0.000 N 
ATOM      9  C   UNL     1      -2.216  10.534  17.385  0.00  0.00    +0.000 C 
ATOM     10  C   UNL     1      -2.512  11.016  15.957  0.00  0.00    +0.000 C 
ATOM     11  O   UNL     1      -3.880  10.777  15.582  0.00  0.00    +0.000 OA
ATOM     12  C   UNL     1      -4.768  11.462  16.481  0.00  0.00    +0.000 C 
ATOM     13  C   UNL     1      -4.589  10.972  17.928  0.00  0.00    +0.000 C 
ATOM     14  N   UNL     1      -1.529  12.349  19.433  0.00  0.00    +0.000 NA
ATOM     15  C   UNL     1      -1.230  13.169  20.444  0.00  0.00    +0.000 A 
ENDROOT
BRANCH   5  16
ATOM     16  C   UNL     1      -4.554  13.478  22.147  0.00  0.00    +0.000 A 
ATOM     17  C   UNL     1      -4.787  12.808  23.336  0.00  0.00    +0.000 A 
ATOM     18  N   UNL     1      -5.844  13.008  24.153  0.00  0.00    +0.000 NA
ATOM     19  C   UNL     1      -6.707  13.950  23.779  0.00  0.00    +0.000 A 
ATOM     20  N   UNL     1      -7.814  14.139  24.576  0.00  0.00    +0.000 N 
ATOM     21  N   UNL     1      -6.554  14.734  22.710  0.00  0.00    +0.000 NA
ATOM     22  C   UNL     1      -5.480  14.478  21.920  0.00  0.00    +0.000 A 
ATOM     23  H   UNL     1      -7.631  13.780  25.502  0.00  0.00    +0.000 HD
ATOM     24  H   UNL     1      -8.139  15.091  24.497  0.00  0.00    +0.000 HD
ENDBRANCH   5  16
BRANCH   1  30
ATOM     25  C   UNL     1       3.834  15.946  19.164  0.00  0.00    +0.000 C 
ATOM     26  O   UNL     1       3.813  16.579  18.102  0.00  0.00    +0.000 OA
ATOM     27  N   UNL     1       3.126  14.752  19.264  0.00  0.00    +0.000 N 
ATOM     28  C   UNL     1       2.593  14.082  18.100  0.00  0.00    +0.000 C 
ATOM     29  C   UNL     1       1.203  13.661  18.516  0.00  0.00    +0.000 C 
ATOM     30  C   UNL     1       1.292  13.395  20.046  0.00  0.00    +0.000 C 
ATOM     31  C   UNL     1       1.627  11.912  20.273  0.00  0.00    +0.000 C 
ATOM     32  C   UNL     1       2.466  14.307  20.490  0.00  0.00    +0.000 C 
BRANCH  25  37
ATOM     33  C   UNL     1       6.613  15.190  19.494  0.00  0.00    +0.000 C 
ATOM     34  N   UNL     1       6.132  16.139  20.489  0.00  0.00    +0.000 NA
ATOM     35  C   UNL     1       6.335  17.533  20.033  0.00  0.00    +0.000 C 
ATOM     36  C   UNL     1       4.963  17.874  20.641  0.00  0.00    +0.000 C 
ATOM     37  C   UNL     1       4.646  16.368  20.467  0.00  0.00    +0.000 C 
ENDBRANCH  25  37
ENDBRANCH   1  30
TORSDOF 3
ENDMDL
MODEL 9
REMARK VINA RESULT:      -6.8      2.709      4.509
REMARK  Name = 
REMARK  5 active torsions:
REMARK  status: ('A' for Active; 'I' for Inactive)
REMARK    1  A    between atoms: C_1  and  N_2
REMARK    2  A    between atoms: C_5  and  C_6
REMARK    3  A    between atoms: C_11  and  C_12
REMARK    4  A    between atoms: C_11  and  N_13
REMARK    5  A    between atoms: C_17  and  C_18
REMARK                            x       y       z     vdW  Elec       q    Type
REMARK                         _______ _______ _______ _____ _____    ______ ____
ROOT
ATOM      1  N   UNL     1      -5.791  13.325  20.437  0.00  0.00    +0.000 N 
ATOM      2  C   UNL     1      -6.742  12.887  19.420  0.00  0.00    +0.000 C 
ATOM      3  C   UNL     1      -5.949  12.288  18.261  0.00  0.00    +0.000 C 
ATOM      4  C   UNL     1      -4.570  12.271  18.805  0.00  0.00    +0.000 A 
ATOM      5  C   UNL     1      -3.406  11.775  18.280  0.00  0.00    +0.000 A 
ATOM      6  N   UNL     1      -2.274  11.836  19.009  0.00  0.00    +0.000 NA
ATOM      7  C   UNL     1      -2.302  12.372  20.249  0.00  0.00    +0.000 A 
ATOM      8  N   UNL     1      -1.131  12.363  20.964  0.00  0.00    +0.000 N 
ATOM      9  C   UNL     1      -1.059  12.831  22.346  0.00  0.00    +0.000 C 
ATOM     10  C   UNL     1      -0.150  14.066  22.446  0.00  0.00    +0.000 C 
ATOM     11  O   UNL     1       1.139  13.832  21.851  0.00  0.00    +0.000 OA
ATOM     12  C   UNL     1       0.991  13.494  20.462  0.00  0.00    +0.000 C 
ATOM     13  C   UNL     1       0.157  12.214  20.283  0.00  0.00    +0.000 C 
ATOM     14  N   UNL     1      -3.423  12.872  20.807  0.00  0.00    +0.000 NA
ATOM     15  C   UNL     1      -4.535  12.828  20.068  0.00  0.00    +0.000 A 
ENDROOT
BRANCH   5  16
ATOM     16  C   UNL     1      -3.297  11.114  16.975  0.00  0.00    +0.000 A 
ATOM     17  C   UNL     1      -2.439  10.062  16.704  0.00  0.00    +0.000 A 
ATOM     18  N   UNL     1      -2.241   9.507  15.488  0.00  0.00    +0.000 NA
ATOM     19  C   UNL     1      -2.961  10.008  14.487  0.00  0.00    +0.000 A 
ATOM     20  N   UNL     1      -2.742   9.485  13.233  0.00  0.00    +0.000 N 
ATOM     21  N   UNL     1      -3.892  10.955  14.626  0.00  0.00    +0.000 NA
ATOM     22  C   UNL     1      -4.037  11.484  15.868  0.00  0.00    +0.000 A 
ATOM     23  H   UNL     1      -2.326   8.568  13.315  0.00  0.00    +0.000 HD
ATOM     24  H   UNL     1      -3.576   9.574  12.670  0.00  0.00    +0.000 HD
ENDBRANCH   5  16
BRANCH   1  30
ATOM     25  C   UNL     1      -3.732  15.187  24.198  0.00  0.00    +0.000 C 
ATOM     26  O   UNL     1      -3.139  14.475  25.017  0.00  0.00    +0.000 OA
ATOM     27  N   UNL     1      -4.901  14.720  23.605  0.00  0.00    +0.000 N 
ATOM     28  C   UNL     1      -5.599  13.558  24.106  0.00  0.00    +0.000 C 
ATOM     29  C   UNL     1      -5.965  12.778  22.864  0.00  0.00    +0.000 C 
ATOM     30  C   UNL     1      -6.177  13.847  21.754  0.00  0.00    +0.000 C 
ATOM     31  C   UNL     1      -7.659  14.253  21.732  0.00  0.00    +0.000 C 
ATOM     32  C   UNL     1      -5.282  15.022  22.226  0.00  0.00    +0.000 C 
BRANCH  25  37
ATOM     33  C   UNL     1      -5.029  17.530  25.309  0.00  0.00    +0.000 C 
ATOM     34  N   UNL     1      -3.837  17.824  24.525  0.00  0.00    +0.000 NA
ATOM     35  C   UNL     1      -2.627  17.817  25.377  0.00  0.00    +0.000 C 
ATOM     36  C   UNL     1      -1.884  17.124  24.221  0.00  0.00    +0.000 C 
ATOM     37  C   UNL     1      -3.285  16.651  23.763  0.00  0.00    +0.000 C 
ENDBRANCH  25  37
ENDBRANCH   1  30
TORSDOF 3
ENDMDL
