MODEL 1
REMARK VINA RESULT:      -7.8      0.000      0.000
REMARK  Name = 
REMARK  5 active torsions:
REMARK  status: ('A' for Active; 'I' for Inactive)
REMARK    1  A    between atoms: C_1  and  C_2
REMARK    2  A    between atoms: N_8  and  C_9
REMARK    3  A    between atoms: C_21  and  C_22
REMARK    4  A    between atoms: C_22  and  C_23
REMARK    5  A    between atoms: N_25  and  C_26
REMARK                            x       y       z     vdW  Elec       q    Type
REMARK                         _______ _______ _______ _____ _____    ______ ____
ROOT
ATOM      1  C   UNL     1       2.390  11.941  18.002  0.00  0.00    +0.000 C 
ATOM      2  C   UNL     1       2.373  13.087  19.002  0.00  0.00    +0.000 A 
ATOM      3  C   UNL     1       1.381  13.066  20.057  0.00  0.00    +0.000 A 
ATOM      4  C   UNL     1       0.951  14.307  20.528  0.00  0.00    +0.000 A 
ATOM      5  C   UNL     1       1.089  15.440  19.719  0.00  0.00    +0.000 A 
ATOM      6  C   UNL     1       1.924  15.386  18.630  0.00  0.00    +0.000 A 
ATOM      7  C   UNL     1       2.843  14.347  18.527  0.00  0.00    +0.000 A 
ATOM      8  N   UNL     1       4.153  14.990  18.754  0.00  0.00    +0.000 N 
ATOM      9  C   UNL     1       5.352  14.675  18.030  0.00  0.00    +0.000 C 
ATOM     10  C   UNL     1       3.977  16.395  18.803  0.00  0.00    +0.000 C 
ATOM     11  O   UNL     1       4.723  17.283  19.150  0.00  0.00    +0.000 OA
ATOM     12  C   UNL     1       2.586  16.613  18.260  0.00  0.00    +0.000 C 
ATOM     13  O   UNL     1       2.218  17.445  17.467  0.00  0.00    +0.000 OA
ATOM     14  C   UNL     1       0.245  14.416  21.782  0.00  0.00    +0.000 A 
ATOM     15  C   UNL     1       0.321  15.560  22.600  0.00  0.00    +0.000 A 
ATOM     16  C   UNL     1      -0.514  15.689  23.701  0.00  0.00    +0.000 A 
ATOM     17  C   UNL     1      -1.403  14.668  24.010  0.00  0.00    +0.000 A 
ATOM     18  C   UNL     1      -1.418  13.496  23.249  0.00  0.00    +0.000 A 
ATOM     19  C   UNL     1      -0.574  13.364  22.147  0.00  0.00    +0.000 A 
ATOM     20  O   UNL     1      -0.651  12.229  21.400  0.00  0.00    +0.000 OA
ATOM     21  C   UNL     1       0.479  11.878  20.524  0.00  0.00    +0.000 C 
ENDROOT
BRANCH  21  22
ATOM     22  C   UNL     1       1.103  10.640  21.187  0.00  0.00    +0.000 C 
BRANCH  22  23
ATOM     23  C   UNL     1       1.065   9.405  20.239  0.00  0.00    +0.000 C 
ATOM     24  O   UNL     1       0.302   9.427  19.278  0.00  0.00    +0.000 OA
ATOM     25  N   UNL     1       1.918   8.371  20.581  0.00  0.00    +0.000 N 
ATOM     26  H   UNL     1       2.410   8.459  21.447  0.00  0.00    +0.000 HD
BRANCH  25  27
ATOM     27  C   UNL     1       2.037   7.092  19.937  0.00  0.00    +0.000 A 
ATOM     28  C   UNL     1       2.528   6.908  18.653  0.00  0.00    +0.000 A 
ATOM     29  C   UNL     1       2.567   5.641  18.061  0.00  0.00    +0.000 A 
ATOM     30  C   UNL     1       2.108   4.528  18.759  0.00  0.00    +0.000 A 
ATOM     31  C   UNL     1       1.628   4.682  20.057  0.00  0.00    +0.000 A 
ATOM     32  C   UNL     1       1.598   5.961  20.643  0.00  0.00    +0.000 A 
ENDBRANCH  25  27
ENDBRANCH  22  23
ENDBRANCH  21  22
TORSDOF 3
ENDMDL
MODEL 2
REMARK VINA RESULT:      -7.6      2.863      5.303
REMARK  Name = 
REMARK  5 active torsions:
REMARK  status: ('A' for Active; 'I' for Inactive)
REMARK    1  A    between atoms: C_1  and  C_2
REMARK    2  A    between atoms: N_8  and  C_9
REMARK    3  A    between atoms: C_21  and  C_22
REMARK    4  A    between atoms: C_22  and  C_23
REMARK    5  A    between atoms: N_25  and  C_26
REMARK                            x       y       z     vdW  Elec       q    Type
REMARK                         _______ _______ _______ _____ _____    ______ ____
ROOT
ATOM      1  C   UNL     1      -0.079  15.823  22.624  0.00  0.00    +0.000 C 
ATOM      2  C   UNL     1       0.387  15.271  21.285  0.00  0.00    +0.000 A 
ATOM      3  C   UNL     1       0.421  13.834  21.108  0.00  0.00    +0.000 A 
ATOM      4  C   UNL     1       1.384  13.341  20.227  0.00  0.00    +0.000 A 
ATOM      5  C   UNL     1       2.519  14.109  19.941  0.00  0.00    +0.000 A 
ATOM      6  C   UNL     1       2.519  15.444  20.260  0.00  0.00    +0.000 A 
ATOM      7  C   UNL     1       1.315  16.074  20.560  0.00  0.00    +0.000 A 
ATOM      8  N   UNL     1       1.065  16.958  19.403  0.00  0.00    +0.000 N 
ATOM      9  C   UNL     1       0.535  18.289  19.496  0.00  0.00    +0.000 C 
ATOM     10  C   UNL     1       2.204  16.952  18.561  0.00  0.00    +0.000 C 
ATOM     11  O   UNL     1       2.370  17.370  17.436  0.00  0.00    +0.000 OA
ATOM     12  C   UNL     1       3.283  16.316  19.401  0.00  0.00    +0.000 C 
ATOM     13  O   UNL     1       4.431  16.667  19.532  0.00  0.00    +0.000 OA
ATOM     14  C   UNL     1       1.293  11.996  19.710  0.00  0.00    +0.000 A 
ATOM     15  C   UNL     1       1.788  11.634  18.443  0.00  0.00    +0.000 A 
ATOM     16  C   UNL     1       1.840  10.298  18.068  0.00  0.00    +0.000 A 
ATOM     17  C   UNL     1       1.370   9.324  18.939  0.00  0.00    +0.000 A 
ATOM     18  C   UNL     1       0.800   9.691  20.161  0.00  0.00    +0.000 A 
ATOM     19  C   UNL     1       0.742  11.032  20.534  0.00  0.00    +0.000 A 
ATOM     20  O   UNL     1       0.225  11.348  21.752  0.00  0.00    +0.000 OA
ATOM     21  C   UNL     1      -0.235  12.726  21.993  0.00  0.00    +0.000 C 
ENDROOT
BRANCH  21  22
ATOM     22  C   UNL     1      -1.765  12.605  22.083  0.00  0.00    +0.000 C 
BRANCH  22  23
ATOM     23  C   UNL     1      -2.433  12.749  20.684  0.00  0.00    +0.000 C 
ATOM     24  O   UNL     1      -3.040  13.785  20.428  0.00  0.00    +0.000 OA
ATOM     25  N   UNL     1      -2.276  11.665  19.839  0.00  0.00    +0.000 N 
ATOM     26  H   UNL     1      -1.837  10.853  20.224  0.00  0.00    +0.000 HD
BRANCH  25  27
ATOM     27  C   UNL     1      -2.844  11.492  18.531  0.00  0.00    +0.000 A 
ATOM     28  C   UNL     1      -4.179  11.706  18.226  0.00  0.00    +0.000 A 
ATOM     29  C   UNL     1      -4.683  11.467  16.943  0.00  0.00    +0.000 A 
ATOM     30  C   UNL     1      -3.840  11.005  15.935  0.00  0.00    +0.000 A 
ATOM     31  C   UNL     1      -2.491  10.800  16.210  0.00  0.00    +0.000 A 
ATOM     32  C   UNL     1      -1.996  11.048  17.503  0.00  0.00    +0.000 A 
ENDBRANCH  25  27
ENDBRANCH  22  23
ENDBRANCH  21  22
TORSDOF 3
ENDMDL
MODEL 3
REMARK VINA RESULT:      -7.6      3.826      6.225
REMARK  Name = 
REMARK  5 active torsions:
REMARK  status: ('A' for Active; 'I' for Inactive)
REMARK    1  A    between atoms: C_1  and  C_2
REMARK    2  A    between atoms: N_8  and  C_9
REMARK    3  A    between atoms: C_21  and  C_22
REMARK    4  A    between atoms: C_22  and  C_23
REMARK    5  A    between atoms: N_25  and  C_26
REMARK                            x       y       z     vdW  Elec       q    Type
REMARK                         _______ _______ _______ _____ _____    ______ ____
ROOT
ATOM      1  C   UNL     1      -1.320  13.508  23.508  0.00  0.00    +0.000 C 
ATOM      2  C   UNL     1      -2.262  12.955  22.449  0.00  0.00    +0.000 A 
ATOM      3  C   UNL     1      -1.699  12.185  21.360  0.00  0.00    +0.000 A 
ATOM      4  C   UNL     1      -2.382  12.240  20.144  0.00  0.00    +0.000 A 
ATOM      5  C   UNL     1      -3.228  13.321  19.874  0.00  0.00    +0.000 A 
ATOM      6  C   UNL     1      -3.628  14.131  20.908  0.00  0.00    +0.000 A 
ATOM      7  C   UNL     1      -3.458  13.698  22.218  0.00  0.00    +0.000 A 
ATOM      8  N   UNL     1      -4.827  13.417  22.694  0.00  0.00    +0.000 N 
ATOM      9  C   UNL     1      -5.313  13.730  24.008  0.00  0.00    +0.000 C 
ATOM     10  C   UNL     1      -5.756  13.859  21.721  0.00  0.00    +0.000 C 
ATOM     11  O   UNL     1      -6.946  13.666  21.603  0.00  0.00    +0.000 OA
ATOM     12  C   UNL     1      -4.938  14.725  20.795  0.00  0.00    +0.000 C 
ATOM     13  O   UNL     1      -5.227  15.803  20.333  0.00  0.00    +0.000 OA
ATOM     14  C   UNL     1      -2.126  11.267  19.109  0.00  0.00    +0.000 A 
ATOM     15  C   UNL     1      -3.109  10.862  18.186  0.00  0.00    +0.000 A 
ATOM     16  C   UNL     1      -2.766  10.064  17.103  0.00  0.00    +0.000 A 
ATOM     17  C   UNL     1      -1.452   9.640  16.954  0.00  0.00    +0.000 A 
ATOM     18  C   UNL     1      -0.494   9.970  17.918  0.00  0.00    +0.000 A 
ATOM     19  C   UNL     1      -0.841  10.766  19.008  0.00  0.00    +0.000 A 
ATOM     20  O   UNL     1       0.129  11.108  19.899  0.00  0.00    +0.000 OA
ATOM     21  C   UNL     1      -0.270  11.565  21.241  0.00  0.00    +0.000 C 
ENDROOT
BRANCH  21  22
ATOM     22  C   UNL     1       0.164  10.423  22.175  0.00  0.00    +0.000 C 
BRANCH  22  23
ATOM     23  C   UNL     1       0.240   9.065  21.419  0.00  0.00    +0.000 C 
ATOM     24  O   UNL     1      -0.751   8.340  21.414  0.00  0.00    +0.000 OA
ATOM     25  N   UNL     1       1.451   8.795  20.808  0.00  0.00    +0.000 N 
ATOM     26  H   UNL     1       2.197   9.438  20.980  0.00  0.00    +0.000 HD
BRANCH  25  27
ATOM     27  C   UNL     1       1.827   7.595  20.112  0.00  0.00    +0.000 A 
ATOM     28  C   UNL     1       1.765   6.323  20.662  0.00  0.00    +0.000 A 
ATOM     29  C   UNL     1       2.197   5.198  19.950  0.00  0.00    +0.000 A 
ATOM     30  C   UNL     1       2.703   5.338  18.661  0.00  0.00    +0.000 A 
ATOM     31  C   UNL     1       2.758   6.601  18.079  0.00  0.00    +0.000 A 
ATOM     32  C   UNL     1       2.317   7.724  18.803  0.00  0.00    +0.000 A 
ENDBRANCH  25  27
ENDBRANCH  22  23
ENDBRANCH  21  22
TORSDOF 3
ENDMDL
MODEL 4
REMARK VINA RESULT:      -7.5      2.414      5.376
REMARK  Name = 
REMARK  5 active torsions:
REMARK  status: ('A' for Active; 'I' for Inactive)
REMARK    1  A    between atoms: C_1  and  C_2
REMARK    2  A    between atoms: N_8  and  C_9
REMARK    3  A    between atoms: C_21  and  C_22
REMARK    4  A    between atoms: C_22  and  C_23
REMARK    5  A    between atoms: N_25  and  C_26
REMARK                            x       y       z     vdW  Elec       q    Type
REMARK                         _______ _______ _______ _____ _____    ______ ____
ROOT
ATOM      1  C   UNL     1      -1.025  10.566  23.123  0.00  0.00    +0.000 C 
ATOM      2  C   UNL     1      -1.226  11.961  22.552  0.00  0.00    +0.000 A 
ATOM      3  C   UNL     1      -0.283  12.444  21.565  0.00  0.00    +0.000 A 
ATOM      4  C   UNL     1      -0.070  13.822  21.532  0.00  0.00    +0.000 A 
ATOM      5  C   UNL     1      -0.355  14.594  22.665  0.00  0.00    +0.000 A 
ATOM      6  C   UNL     1      -1.130  14.055  23.662  0.00  0.00    +0.000 A 
ATOM      7  C   UNL     1      -1.870  12.906  23.405  0.00  0.00    +0.000 A 
ATOM      8  N   UNL     1      -3.271  13.369  23.380  0.00  0.00    +0.000 N 
ATOM      9  C   UNL     1      -4.378  12.648  23.942  0.00  0.00    +0.000 C 
ATOM     10  C   UNL     1      -3.320  14.722  23.795  0.00  0.00    +0.000 C 
ATOM     11  O   UNL     1      -4.209  15.543  23.746  0.00  0.00    +0.000 OA
ATOM     12  C   UNL     1      -1.962  14.972  24.402  0.00  0.00    +0.000 C 
ATOM     13  O   UNL     1      -1.699  15.549  25.430  0.00  0.00    +0.000 OA
ATOM     14  C   UNL     1       0.562  14.446  20.394  0.00  0.00    +0.000 A 
ATOM     15  C   UNL     1       0.277  15.765  19.994  0.00  0.00    +0.000 A 
ATOM     16  C   UNL     1       1.040  16.378  19.009  0.00  0.00    +0.000 A 
ATOM     17  C   UNL     1       2.066  15.669  18.398  0.00  0.00    +0.000 A 
ATOM     18  C   UNL     1       2.292  14.331  18.734  0.00  0.00    +0.000 A 
ATOM     19  C   UNL     1       1.522  13.715  19.718  0.00  0.00    +0.000 A 
ATOM     20  O   UNL     1       1.803  12.427  20.055  0.00  0.00    +0.000 OA
ATOM     21  C   UNL     1       0.776  11.634  20.750  0.00  0.00    +0.000 C 
ENDROOT
BRANCH  21  22
ATOM     22  C   UNL     1       0.330  10.595  19.708  0.00  0.00    +0.000 C 
BRANCH  22  23
ATOM     23  C   UNL     1       1.071   9.240  19.900  0.00  0.00    +0.000 C 
ATOM     24  O   UNL     1       1.059   8.717  21.011  0.00  0.00    +0.000 OA
ATOM     25  N   UNL     1       1.692   8.740  18.769  0.00  0.00    +0.000 N 
ATOM     26  H   UNL     1       1.695   9.327  17.959  0.00  0.00    +0.000 HD
BRANCH  25  27
ATOM     27  C   UNL     1       2.505   7.559  18.673  0.00  0.00    +0.000 A 
ATOM     28  C   UNL     1       2.475   6.516  19.585  0.00  0.00    +0.000 A 
ATOM     29  C   UNL     1       3.332   5.416  19.465  0.00  0.00    +0.000 A 
ATOM     30  C   UNL     1       4.242   5.349  18.413  0.00  0.00    +0.000 A 
ATOM     31  C   UNL     1       4.279   6.375  17.473  0.00  0.00    +0.000 A 
ATOM     32  C   UNL     1       3.409   7.473  17.602  0.00  0.00    +0.000 A 
ENDBRANCH  25  27
ENDBRANCH  22  23
ENDBRANCH  21  22
TORSDOF 3
ENDMDL
MODEL 5
REMARK VINA RESULT:      -7.5      2.425      5.225
REMARK  Name = 
REMARK  5 active torsions:
REMARK  status: ('A' for Active; 'I' for Inactive)
REMARK    1  A    between atoms: C_1  and  C_2
REMARK    2  A    between atoms: N_8  and  C_9
REMARK    3  A    between atoms: C_21  and  C_22
REMARK    4  A    between atoms: C_22  and  C_23
REMARK    5  A    between atoms: N_25  and  C_26
REMARK                            x       y       z     vdW  Elec       q    Type
REMARK                         _______ _______ _______ _____ _____    ______ ____
ROOT
ATOM      1  C   UNL     1      -0.837  10.341  22.789  0.00  0.00    +0.000 C 
ATOM      2  C   UNL     1      -0.988  11.745  22.223  0.00  0.00    +0.000 A 
ATOM      3  C   UNL     1      -0.028  12.196  21.237  0.00  0.00    +0.000 A 
ATOM      4  C   UNL     1       0.234  13.566  21.209  0.00  0.00    +0.000 A 
ATOM      5  C   UNL     1      -0.023  14.343  22.345  0.00  0.00    +0.000 A 
ATOM      6  C   UNL     1      -0.817  13.830  23.340  0.00  0.00    +0.000 A 
ATOM      7  C   UNL     1      -1.597  12.708  23.079  0.00  0.00    +0.000 A 
ATOM      8  N   UNL     1      -2.981  13.222  23.055  0.00  0.00    +0.000 N 
ATOM      9  C   UNL     1      -4.114  12.539  23.615  0.00  0.00    +0.000 C 
ATOM     10  C   UNL     1      -2.982  14.574  23.475  0.00  0.00    +0.000 C 
ATOM     11  O   UNL     1      -3.841  15.427  23.428  0.00  0.00    +0.000 OA
ATOM     12  C   UNL     1      -1.616  14.774  24.083  0.00  0.00    +0.000 C 
ATOM     13  O   UNL     1      -1.333  15.337  25.112  0.00  0.00    +0.000 OA
ATOM     14  C   UNL     1       0.889  14.170  20.073  0.00  0.00    +0.000 A 
ATOM     15  C   UNL     1       0.651  15.500  19.677  0.00  0.00    +0.000 A 
ATOM     16  C   UNL     1       1.435  16.088  18.694  0.00  0.00    +0.000 A 
ATOM     17  C   UNL     1       2.435  15.345  18.081  0.00  0.00    +0.000 A 
ATOM     18  C   UNL     1       2.614  13.999  18.413  0.00  0.00    +0.000 A 
ATOM     19  C   UNL     1       1.821  13.407  19.395  0.00  0.00    +0.000 A 
ATOM     20  O   UNL     1       2.057  12.109  19.727  0.00  0.00    +0.000 OA
ATOM     21  C   UNL     1       1.001  11.351  20.420  0.00  0.00    +0.000 C 
ENDROOT
BRANCH  21  22
ATOM     22  C   UNL     1       0.519  10.332  19.375  0.00  0.00    +0.000 C 
BRANCH  22  23
ATOM     23  C   UNL     1       1.335   9.009  19.449  0.00  0.00    +0.000 C 
ATOM     24  O   UNL     1       1.533   8.502  20.550  0.00  0.00    +0.000 OA
ATOM     25  N   UNL     1       1.774   8.516  18.233  0.00  0.00    +0.000 N 
ATOM     26  H   UNL     1       1.616   9.091  17.430  0.00  0.00    +0.000 HD
BRANCH  25  27
ATOM     27  C   UNL     1       2.605   7.365  18.009  0.00  0.00    +0.000 A 
ATOM     28  C   UNL     1       3.912   7.425  17.550  0.00  0.00    +0.000 A 
ATOM     29  C   UNL     1       4.651   6.264  17.300  0.00  0.00    +0.000 A 
ATOM     30  C   UNL     1       4.080   5.011  17.510  0.00  0.00    +0.000 A 
ATOM     31  C   UNL     1       2.776   4.924  17.988  0.00  0.00    +0.000 A 
ATOM     32  C   UNL     1       2.044   6.099  18.240  0.00  0.00    +0.000 A 
ENDBRANCH  25  27
ENDBRANCH  22  23
ENDBRANCH  21  22
TORSDOF 3
ENDMDL
MODEL 6
REMARK VINA RESULT:      -7.4      4.098      6.348
REMARK  Name = 
REMARK  5 active torsions:
REMARK  status: ('A' for Active; 'I' for Inactive)
REMARK    1  A    between atoms: C_1  and  C_2
REMARK    2  A    between atoms: N_8  and  C_9
REMARK    3  A    between atoms: C_21  and  C_22
REMARK    4  A    between atoms: C_22  and  C_23
REMARK    5  A    between atoms: N_25  and  C_26
REMARK                            x       y       z     vdW  Elec       q    Type
REMARK                         _______ _______ _______ _____ _____    ______ ____
ROOT
ATOM      1  C   UNL     1      -2.771  11.074  18.556  0.00  0.00    +0.000 C 
ATOM      2  C   UNL     1      -3.486  12.159  19.347  0.00  0.00    +0.000 A 
ATOM      3  C   UNL     1      -2.845  12.680  20.537  0.00  0.00    +0.000 A 
ATOM      4  C   UNL     1      -3.692  13.136  21.547  0.00  0.00    +0.000 A 
ATOM      5  C   UNL     1      -5.011  12.672  21.608  0.00  0.00    +0.000 A 
ATOM      6  C   UNL     1      -5.548  12.042  20.513  0.00  0.00    +0.000 A 
ATOM      7  C   UNL     1      -4.910  12.153  19.281  0.00  0.00    +0.000 A 
ATOM      8  N   UNL     1      -5.803  13.017  18.483  0.00  0.00    +0.000 N 
ATOM      9  C   UNL     1      -6.096  12.819  17.091  0.00  0.00    +0.000 C 
ATOM     10  C   UNL     1      -7.004  13.233  19.200  0.00  0.00    +0.000 C 
ATOM     11  O   UNL     1      -7.916  14.010  19.021  0.00  0.00    +0.000 OA
ATOM     12  C   UNL     1      -6.966  12.205  20.303  0.00  0.00    +0.000 C 
ATOM     13  O   UNL     1      -7.860  11.489  20.687  0.00  0.00    +0.000 OA
ATOM     14  C   UNL     1      -3.190  13.977  22.608  0.00  0.00    +0.000 A 
ATOM     15  C   UNL     1      -3.987  14.938  23.259  0.00  0.00    +0.000 A 
ATOM     16  C   UNL     1      -3.514  15.592  24.387  0.00  0.00    +0.000 A 
ATOM     17  C   UNL     1      -2.234  15.316  24.852  0.00  0.00    +0.000 A 
ATOM     18  C   UNL     1      -1.411  14.426  24.156  0.00  0.00    +0.000 A 
ATOM     19  C   UNL     1      -1.885  13.776  23.018  0.00  0.00    +0.000 A 
ATOM     20  O   UNL     1      -1.073  12.879  22.395  0.00  0.00    +0.000 OA
ATOM     21  C   UNL     1      -1.362  12.510  20.999  0.00  0.00    +0.000 C 
ENDROOT
BRANCH  21  22
ATOM     22  C   UNL     1      -0.217  13.145  20.194  0.00  0.00    +0.000 C 
BRANCH  22  23
ATOM     23  C   UNL     1       0.806  12.075  19.715  0.00  0.00    +0.000 C 
ATOM     24  O   UNL     1       1.868  12.454  19.228  0.00  0.00    +0.000 OA
ATOM     25  N   UNL     1       0.410  10.760  19.885  0.00  0.00    +0.000 N 
ATOM     26  H   UNL     1      -0.524  10.608  20.208  0.00  0.00    +0.000 HD
BRANCH  25  27
ATOM     27  C   UNL     1       1.113   9.578  19.468  0.00  0.00    +0.000 A 
ATOM     28  C   UNL     1       1.390   8.502  20.298  0.00  0.00    +0.000 A 
ATOM     29  C   UNL     1       2.127   7.403  19.846  0.00  0.00    +0.000 A 
ATOM     30  C   UNL     1       2.604   7.369  18.538  0.00  0.00    +0.000 A 
ATOM     31  C   UNL     1       2.324   8.428  17.679  0.00  0.00    +0.000 A 
ATOM     32  C   UNL     1       1.577   9.526  18.144  0.00  0.00    +0.000 A 
ENDBRANCH  25  27
ENDBRANCH  22  23
ENDBRANCH  21  22
TORSDOF 3
ENDMDL
MODEL 7
REMARK VINA RESULT:      -7.4      5.598      8.267
REMARK  Name = 
REMARK  5 active torsions:
REMARK  status: ('A' for Active; 'I' for Inactive)
REMARK    1  A    between atoms: C_1  and  C_2
REMARK    2  A    between atoms: N_8  and  C_9
REMARK    3  A    between atoms: C_21  and  C_22
REMARK    4  A    between atoms: C_22  and  C_23
REMARK    5  A    between atoms: N_25  and  C_26
REMARK                            x       y       z     vdW  Elec       q    Type
REMARK                         _______ _______ _______ _____ _____    ______ ____
ROOT
ATOM      1  C   UNL     1       8.810  16.505  21.950  0.00  0.00    +0.000 C 
ATOM      2  C   UNL     1       7.659  15.560  21.638  0.00  0.00    +0.000 A 
ATOM      3  C   UNL     1       6.703  15.950  20.623  0.00  0.00    +0.000 A 
ATOM      4  C   UNL     1       5.402  15.473  20.779  0.00  0.00    +0.000 A 
ATOM      5  C   UNL     1       4.956  15.082  22.048  0.00  0.00    +0.000 A 
ATOM      6  C   UNL     1       5.878  14.864  23.041  0.00  0.00    +0.000 A 
ATOM      7  C   UNL     1       7.221  14.724  22.707  0.00  0.00    +0.000 A 
ATOM      8  N   UNL     1       7.511  13.295  22.941  0.00  0.00    +0.000 N 
ATOM      9  C   UNL     1       8.724  12.795  23.525  0.00  0.00    +0.000 C 
ATOM     10  C   UNL     1       6.393  12.692  23.567  0.00  0.00    +0.000 C 
ATOM     11  O   UNL     1       6.118  11.529  23.767  0.00  0.00    +0.000 OA
ATOM     12  C   UNL     1       5.549  13.857  24.020  0.00  0.00    +0.000 C 
ATOM     13  O   UNL     1       4.994  14.007  25.082  0.00  0.00    +0.000 OA
ATOM     14  C   UNL     1       4.467  15.501  19.680  0.00  0.00    +0.000 A 
ATOM     15  C   UNL     1       3.436  14.553  19.534  0.00  0.00    +0.000 A 
ATOM     16  C   UNL     1       2.457  14.728  18.566  0.00  0.00    +0.000 A 
ATOM     17  C   UNL     1       2.519  15.827  17.720  0.00  0.00    +0.000 A 
ATOM     18  C   UNL     1       3.590  16.721  17.808  0.00  0.00    +0.000 A 
ATOM     19  C   UNL     1       4.576  16.542  18.776  0.00  0.00    +0.000 A 
ATOM     20  O   UNL     1       5.577  17.460  18.865  0.00  0.00    +0.000 OA
ATOM     21  C   UNL     1       6.822  17.087  19.557  0.00  0.00    +0.000 C 
ENDROOT
BRANCH  21  22
ATOM     22  C   UNL     1       7.867  16.996  18.433  0.00  0.00    +0.000 C 
BRANCH  22  23
ATOM     23  C   UNL     1       8.381  15.538  18.248  0.00  0.00    +0.000 C 
ATOM     24  O   UNL     1       7.643  14.721  17.705  0.00  0.00    +0.000 OA
ATOM     25  N   UNL     1       9.656  15.295  18.728  0.00  0.00    +0.000 N 
ATOM     26  H   UNL     1      10.097  16.037  19.232  0.00  0.00    +0.000 HD
BRANCH  25  27
ATOM     27  C   UNL     1      10.348  14.036  18.760  0.00  0.00    +0.000 A 
ATOM     28  C   UNL     1      10.827  13.381  17.636  0.00  0.00    +0.000 A 
ATOM     29  C   UNL     1      11.445  12.129  17.729  0.00  0.00    +0.000 A 
ATOM     30  C   UNL     1      11.592  11.511  18.967  0.00  0.00    +0.000 A 
ATOM     31  C   UNL     1      11.137  12.155  20.114  0.00  0.00    +0.000 A 
ATOM     32  C   UNL     1      10.520  13.416  20.008  0.00  0.00    +0.000 A 
ENDBRANCH  25  27
ENDBRANCH  22  23
ENDBRANCH  21  22
TORSDOF 3
ENDMDL
MODEL 8
REMARK VINA RESULT:      -7.4      4.159      6.225
REMARK  Name = 
REMARK  5 active torsions:
REMARK  status: ('A' for Active; 'I' for Inactive)
REMARK    1  A    between atoms: C_1  and  C_2
REMARK    2  A    between atoms: N_8  and  C_9
REMARK    3  A    between atoms: C_21  and  C_22
REMARK    4  A    between atoms: C_22  and  C_23
REMARK    5  A    between atoms: N_25  and  C_26
REMARK                            x       y       z     vdW  Elec       q    Type
REMARK                         _______ _______ _______ _____ _____    ______ ____
ROOT
ATOM      1  C   UNL     1      -3.116  10.867  17.999  0.00  0.00    +0.000 C 
ATOM      2  C   UNL     1      -3.633  11.998  18.875  0.00  0.00    +0.000 A 
ATOM      3  C   UNL     1      -2.799  12.464  19.962  0.00  0.00    +0.000 A 
ATOM      4  C   UNL     1      -3.462  12.977  21.078  0.00  0.00    +0.000 A 
ATOM      5  C   UNL     1      -4.791  12.611  21.321  0.00  0.00    +0.000 A 
ATOM      6  C   UNL     1      -5.519  12.028  20.314  0.00  0.00    +0.000 A 
ATOM      7  C   UNL     1      -5.050  12.098  19.006  0.00  0.00    +0.000 A 
ATOM      8  N   UNL     1      -5.977  13.030  18.333  0.00  0.00    +0.000 N 
ATOM      9  C   UNL     1      -6.473  12.861  16.996  0.00  0.00    +0.000 C 
ATOM     10  C   UNL     1      -7.049  13.330  19.208  0.00  0.00    +0.000 C 
ATOM     11  O   UNL     1      -7.917  14.174  19.151  0.00  0.00    +0.000 OA
ATOM     12  C   UNL     1      -6.936  12.297  20.300  0.00  0.00    +0.000 C 
ATOM     13  O   UNL     1      -7.819  11.647  20.807  0.00  0.00    +0.000 OA
ATOM     14  C   UNL     1      -2.758  13.773  22.054  0.00  0.00    +0.000 A 
ATOM     15  C   UNL     1      -3.385  14.787  22.804  0.00  0.00    +0.000 A 
ATOM     16  C   UNL     1      -2.713  15.398  23.853  0.00  0.00    +0.000 A 
ATOM     17  C   UNL     1      -1.406  15.026  24.139  0.00  0.00    +0.000 A 
ATOM     18  C   UNL     1      -0.755  14.081  23.341  0.00  0.00    +0.000 A 
ATOM     19  C   UNL     1      -1.428  13.473  22.283  0.00  0.00    +0.000 A 
ATOM     20  O   UNL     1      -0.778  12.522  21.558  0.00  0.00    +0.000 OA
ATOM     21  C   UNL     1      -1.283  12.183  20.217  0.00  0.00    +0.000 C 
ENDROOT
BRANCH  21  22
ATOM     22  C   UNL     1      -0.215  12.735  19.259  0.00  0.00    +0.000 C 
BRANCH  22  23
ATOM     23  C   UNL     1       0.898  11.684  18.978  0.00  0.00    +0.000 C 
ATOM     24  O   UNL     1       1.945  12.064  18.460  0.00  0.00    +0.000 OA
ATOM     25  N   UNL     1       0.594  10.387  19.347  0.00  0.00    +0.000 N 
ATOM     26  H   UNL     1      -0.337  10.216  19.670  0.00  0.00    +0.000 HD
BRANCH  25  27
ATOM     27  C   UNL     1       1.394   9.212  19.139  0.00  0.00    +0.000 A 
ATOM     28  C   UNL     1       2.094   8.942  17.972  0.00  0.00    +0.000 A 
ATOM     29  C   UNL     1       2.813   7.753  17.810  0.00  0.00    +0.000 A 
ATOM     30  C   UNL     1       2.838   6.806  18.831  0.00  0.00    +0.000 A 
ATOM     31  C   UNL     1       2.160   7.060  20.019  0.00  0.00    +0.000 A 
ATOM     32  C   UNL     1       1.444   8.262  20.171  0.00  0.00    +0.000 A 
ENDBRANCH  25  27
ENDBRANCH  22  23
ENDBRANCH  21  22
TORSDOF 3
ENDMDL
MODEL 9
REMARK VINA RESULT:      -7.4      4.247      7.159
REMARK  Name = 
REMARK  5 active torsions:
REMARK  status: ('A' for Active; 'I' for Inactive)
REMARK    1  A    between atoms: C_1  and  C_2
REMARK    2  A    between atoms: N_8  and  C_9
REMARK    3  A    between atoms: C_21  and  C_22
REMARK    4  A    between atoms: C_22  and  C_23
REMARK    5  A    between atoms: N_25  and  C_26
REMARK                            x       y       z     vdW  Elec       q    Type
REMARK                         _______ _______ _______ _____ _____    ______ ____
ROOT
ATOM      1  C   UNL     1      -2.694  14.782  22.209  0.00  0.00    +0.000 C 
ATOM      2  C   UNL     1      -3.417  13.596  21.588  0.00  0.00    +0.000 A 
ATOM      3  C   UNL     1      -2.849  12.987  20.404  0.00  0.00    +0.000 A 
ATOM      4  C   UNL     1      -3.750  12.399  19.515  0.00  0.00    +0.000 A 
ATOM      5  C   UNL     1      -5.091  12.802  19.521  0.00  0.00    +0.000 A 
ATOM      6  C   UNL     1      -5.569  13.515  20.593  0.00  0.00    +0.000 A 
ATOM      7  C   UNL     1      -4.831  13.552  21.771  0.00  0.00    +0.000 A 
ATOM      8  N   UNL     1      -5.615  12.737  22.721  0.00  0.00    +0.000 N 
ATOM      9  C   UNL     1      -5.806  13.060  24.107  0.00  0.00    +0.000 C 
ATOM     10  C   UNL     1      -6.857  12.404  22.130  0.00  0.00    +0.000 C 
ATOM     11  O   UNL     1      -7.714  11.613  22.459  0.00  0.00    +0.000 OA
ATOM     12  C   UNL     1      -6.956  13.318  20.934  0.00  0.00    +0.000 C 
ATOM     13  O   UNL     1      -7.911  13.956  20.560  0.00  0.00    +0.000 OA
ATOM     14  C   UNL     1      -3.295  11.478  18.502  0.00  0.00    +0.000 A 
ATOM     15  C   UNL     1      -4.095  10.426  18.015  0.00  0.00    +0.000 A 
ATOM     16  C   UNL     1      -3.682   9.683  16.918  0.00  0.00    +0.000 A 
ATOM     17  C   UNL     1      -2.458   9.962  16.323  0.00  0.00    +0.000 A 
ATOM     18  C   UNL     1      -1.625  10.948  16.860  0.00  0.00    +0.000 A 
ATOM     19  C   UNL     1      -2.038  11.689  17.966  0.00  0.00    +0.000 A 
ATOM     20  O   UNL     1      -1.223  12.675  18.431  0.00  0.00    +0.000 OA
ATOM     21  C   UNL     1      -1.417  13.168  19.805  0.00  0.00    +0.000 C 
ENDROOT
BRANCH  21  22
ATOM     22  C   UNL     1      -0.183  12.662  20.568  0.00  0.00    +0.000 C 
BRANCH  22  23
ATOM     23  C   UNL     1       0.047  11.140  20.336  0.00  0.00    +0.000 C 
ATOM     24  O   UNL     1      -0.700  10.342  20.896  0.00  0.00    +0.000 OA
ATOM     25  N   UNL     1       1.102  10.822  19.499  0.00  0.00    +0.000 N 
ATOM     26  H   UNL     1       1.680  11.578  19.194  0.00  0.00    +0.000 HD
BRANCH  25  27
ATOM     27  C   UNL     1       1.587   9.509  19.171  0.00  0.00    +0.000 A 
ATOM     28  C   UNL     1       1.962   9.113  17.897  0.00  0.00    +0.000 A 
ATOM     29  C   UNL     1       2.375   7.803  17.631  0.00  0.00    +0.000 A 
ATOM     30  C   UNL     1       2.418   6.861  18.656  0.00  0.00    +0.000 A 
ATOM     31  C   UNL     1       2.064   7.238  19.948  0.00  0.00    +0.000 A 
ATOM     32  C   UNL     1       1.654   8.560  20.203  0.00  0.00    +0.000 A 
ENDBRANCH  25  27
ENDBRANCH  22  23
ENDBRANCH  21  22
TORSDOF 3
ENDMDL
