MODEL 1
REMARK VINA RESULT:      -7.2      0.000      0.000
REMARK  Name = 
REMARK  8 active torsions:
REMARK  status: ('A' for Active; 'I' for Inactive)
REMARK    1  A    between atoms: C_1  and  C_2
REMARK    2  A    between atoms: C_2  and  N_3
REMARK    3  A    between atoms: N_3  and  C_4
REMARK    4  A    between atoms: C_4  and  C_5
REMARK    5  A    between atoms: C_6  and  C_8
REMARK    6  A    between atoms: C_8  and  N_9
REMARK    7  A    between atoms: C_10  and  C_12
REMARK    8  A    between atoms: C_18  and  C_20
REMARK                            x       y       z     vdW  Elec       q    Type
REMARK                         _______ _______ _______ _____ _____    ______ ____
ROOT
ATOM      1  C   UNL     1       4.102   5.940  18.286  0.00  0.00    +0.000 C 
ATOM      2  C   UNL     1       3.685   4.657  18.113  0.00  0.00    +0.000 C 
ATOM      3 CL   UNL     1       4.552   3.473  17.171  0.00  0.00    +0.000 Cl
ENDROOT
BRANCH   2   4
ATOM      4  C   UNL     1       2.499   4.061  18.774  0.00  0.00    +0.000 A 
ATOM      5  C   UNL     1       1.704   3.139  18.076  0.00  0.00    +0.000 A 
ATOM      6  C   UNL     1       0.653   2.479  18.721  0.00  0.00    +0.000 A 
ATOM      7  C   UNL     1       0.385   2.736  20.063  0.00  0.00    +0.000 A 
ATOM      8  C   UNL     1       1.159   3.660  20.763  0.00  0.00    +0.000 A 
ATOM      9  C   UNL     1       2.215   4.322  20.122  0.00  0.00    +0.000 A 
ENDBRANCH   2   4
BRANCH   1  10
ATOM     10  N   UNL     1       3.391   6.794  19.125  0.00  0.00    +0.000 N 
ATOM     11  C   UNL     1       2.458   7.686  18.627  0.00  0.00    +0.000 C 
ATOM     12  O   UNL     1       2.264   7.866  17.430  0.00  0.00    +0.000 OA
ATOM     13  H   UNL     1       3.853   7.099  19.956  0.00  0.00    +0.000 HD
BRANCH  11  14
ATOM     14  C   UNL     1       1.622   8.403  19.641  0.00  0.00    +0.000 A 
ATOM     15  C   UNL     1       1.370   7.913  20.931  0.00  0.00    +0.000 A 
ATOM     16  C   UNL     1       0.404   8.523  21.738  0.00  0.00    +0.000 A 
ATOM     17  C   UNL     1      -0.306   9.627  21.268  0.00  0.00    +0.000 A 
ATOM     18  C   UNL     1      -0.016  10.159  20.015  0.00  0.00    +0.000 A 
ATOM     19  C   UNL     1       0.953   9.558  19.210  0.00  0.00    +0.000 A 
ENDBRANCH  11  14
ENDBRANCH   1  10
BRANCH   1  21
ATOM     20  N   UNL     1       6.573   6.498  17.912  0.00  0.00    +0.000 N 
ATOM     21  C   UNL     1       5.250   6.487  17.449  0.00  0.00    +0.000 C 
ATOM     22  O   UNL     1       4.989   6.979  16.344  0.00  0.00    +0.000 OA
BRANCH  20  24
ATOM     23  C   UNL     1       8.002   8.521  17.647  0.00  0.00    +0.000 C 
ATOM     24  C   UNL     1       7.533   7.203  17.044  0.00  0.00    +0.000 C 
ENDBRANCH  20  24
BRANCH  20  25
ATOM     25  C   UNL     1       7.034   5.975  19.200  0.00  0.00    +0.000 C 
ATOM     26  C   UNL     1       8.328   5.172  19.246  0.00  0.00    +0.000 C 
ENDBRANCH  20  25
ENDBRANCH   1  21
TORSDOF 6
ENDMDL
MODEL 2
REMARK VINA RESULT:      -6.9      1.298      1.686
REMARK  Name = 
REMARK  8 active torsions:
REMARK  status: ('A' for Active; 'I' for Inactive)
REMARK    1  A    between atoms: C_1  and  C_2
REMARK    2  A    between atoms: C_2  and  N_3
REMARK    3  A    between atoms: N_3  and  C_4
REMARK    4  A    between atoms: C_4  and  C_5
REMARK    5  A    between atoms: C_6  and  C_8
REMARK    6  A    between atoms: C_8  and  N_9
REMARK    7  A    between atoms: C_10  and  C_12
REMARK    8  A    between atoms: C_18  and  C_20
REMARK                            x       y       z     vdW  Elec       q    Type
REMARK                         _______ _______ _______ _____ _____    ______ ____
ROOT
ATOM      1  C   UNL     1       4.225   5.167  18.088  0.00  0.00    +0.000 C 
ATOM      2  C   UNL     1       3.831   3.884  18.311  0.00  0.00    +0.000 C 
ATOM      3 CL   UNL     1       4.487   2.506  17.468  0.00  0.00    +0.000 Cl
ENDROOT
BRANCH   2   4
ATOM      4  C   UNL     1       2.869   3.469  19.360  0.00  0.00    +0.000 A 
ATOM      5  C   UNL     1       3.342   3.023  20.603  0.00  0.00    +0.000 A 
ATOM      6  C   UNL     1       2.450   2.740  21.642  0.00  0.00    +0.000 A 
ATOM      7  C   UNL     1       1.080   2.895  21.447  0.00  0.00    +0.000 A 
ATOM      8  C   UNL     1       0.595   3.323  20.213  0.00  0.00    +0.000 A 
ATOM      9  C   UNL     1       1.486   3.610  19.170  0.00  0.00    +0.000 A 
ENDBRANCH   2   4
BRANCH   1  10
ATOM     10  N   UNL     1       3.707   6.197  18.869  0.00  0.00    +0.000 N 
ATOM     11  C   UNL     1       2.556   6.873  18.503  0.00  0.00    +0.000 C 
ATOM     12  O   UNL     1       1.975   6.695  17.439  0.00  0.00    +0.000 OA
ATOM     13  H   UNL     1       4.363   6.745  19.385  0.00  0.00    +0.000 HD
BRANCH  11  14
ATOM     14  C   UNL     1       1.995   7.818  19.519  0.00  0.00    +0.000 A 
ATOM     15  C   UNL     1       1.738   7.468  20.853  0.00  0.00    +0.000 A 
ATOM     16  C   UNL     1       1.009   8.330  21.678  0.00  0.00    +0.000 A 
ATOM     17  C   UNL     1       0.542   9.545  21.182  0.00  0.00    +0.000 A 
ATOM     18  C   UNL     1       0.848   9.930  19.880  0.00  0.00    +0.000 A 
ATOM     19  C   UNL     1       1.582   9.076  19.055  0.00  0.00    +0.000 A 
ENDBRANCH  11  14
ENDBRANCH   1  10
BRANCH   1  21
ATOM     20  N   UNL     1       6.499   5.316  16.921  0.00  0.00    +0.000 N 
ATOM     21  C   UNL     1       5.109   5.495  16.893  0.00  0.00    +0.000 C 
ATOM     22  O   UNL     1       4.578   5.978  15.885  0.00  0.00    +0.000 OA
BRANCH  20  24
ATOM     23  C   UNL     1       7.263   4.817  14.603  0.00  0.00    +0.000 C 
ATOM     24  C   UNL     1       7.219   5.829  15.741  0.00  0.00    +0.000 C 
ENDBRANCH  20  24
BRANCH  20  25
ATOM     25  C   UNL     1       7.271   4.778  18.043  0.00  0.00    +0.000 C 
ATOM     26  C   UNL     1       7.781   5.737  19.111  0.00  0.00    +0.000 C 
ENDBRANCH  20  25
ENDBRANCH   1  21
TORSDOF 6
ENDMDL
MODEL 3
REMARK VINA RESULT:      -6.9      0.277      1.384
REMARK  Name = 
REMARK  8 active torsions:
REMARK  status: ('A' for Active; 'I' for Inactive)
REMARK    1  A    between atoms: C_1  and  C_2
REMARK    2  A    between atoms: C_2  and  N_3
REMARK    3  A    between atoms: N_3  and  C_4
REMARK    4  A    between atoms: C_4  and  C_5
REMARK    5  A    between atoms: C_6  and  C_8
REMARK    6  A    between atoms: C_8  and  N_9
REMARK    7  A    between atoms: C_10  and  C_12
REMARK    8  A    between atoms: C_18  and  C_20
REMARK                            x       y       z     vdW  Elec       q    Type
REMARK                         _______ _______ _______ _____ _____    ______ ____
ROOT
ATOM      1  C   UNL     1       4.189   5.849  18.356  0.00  0.00    +0.000 C 
ATOM      2  C   UNL     1       3.839   4.542  18.222  0.00  0.00    +0.000 C 
ATOM      3 CL   UNL     1       4.778   3.372  17.332  0.00  0.00    +0.000 Cl
ENDROOT
BRANCH   2   4
ATOM      4  C   UNL     1       2.675   3.908  18.887  0.00  0.00    +0.000 A 
ATOM      5  C   UNL     1       2.510   4.036  20.274  0.00  0.00    +0.000 A 
ATOM      6  C   UNL     1       1.359   3.547  20.900  0.00  0.00    +0.000 A 
ATOM      7  C   UNL     1       0.367   2.923  20.148  0.00  0.00    +0.000 A 
ATOM      8  C   UNL     1       0.525   2.777  18.770  0.00  0.00    +0.000 A 
ATOM      9  C   UNL     1       1.675   3.269  18.139  0.00  0.00    +0.000 A 
ENDBRANCH   2   4
BRANCH   1  10
ATOM     10  N   UNL     1       3.422   6.694  19.157  0.00  0.00    +0.000 N 
ATOM     11  C   UNL     1       2.493   7.562  18.610  0.00  0.00    +0.000 C 
ATOM     12  O   UNL     1       2.348   7.728  17.405  0.00  0.00    +0.000 OA
ATOM     13  H   UNL     1       3.842   7.015  20.004  0.00  0.00    +0.000 HD
BRANCH  11  14
ATOM     14  C   UNL     1       1.599   8.267  19.581  0.00  0.00    +0.000 A 
ATOM     15  C   UNL     1       0.954   9.483  19.307  0.00  0.00    +0.000 A 
ATOM     16  C   UNL     1       0.320  10.190  20.334  0.00  0.00    +0.000 A 
ATOM     17  C   UNL     1       0.318   9.686  21.633  0.00  0.00    +0.000 A 
ATOM     18  C   UNL     1       0.899   8.449  21.902  0.00  0.00    +0.000 A 
ATOM     19  C   UNL     1       1.525   7.737  20.878  0.00  0.00    +0.000 A 
ENDBRANCH  11  14
ENDBRANCH   1  10
BRANCH   1  21
ATOM     20  N   UNL     1       6.647   6.451  17.968  0.00  0.00    +0.000 N 
ATOM     21  C   UNL     1       5.319   6.426  17.516  0.00  0.00    +0.000 C 
ATOM     22  O   UNL     1       5.040   6.927  16.420  0.00  0.00    +0.000 OA
BRANCH  20  24
ATOM     23  C   UNL     1       7.910   8.572  17.635  0.00  0.00    +0.000 C 
ATOM     24  C   UNL     1       7.587   7.184  17.100  0.00  0.00    +0.000 C 
ENDBRANCH  20  24
BRANCH  20  25
ATOM     25  C   UNL     1       7.127   5.920  19.244  0.00  0.00    +0.000 C 
ATOM     26  C   UNL     1       8.466   5.194  19.280  0.00  0.00    +0.000 C 
ENDBRANCH  20  25
ENDBRANCH   1  21
TORSDOF 6
ENDMDL
MODEL 4
REMARK VINA RESULT:      -6.8      0.988      1.466
REMARK  Name = 
REMARK  8 active torsions:
REMARK  status: ('A' for Active; 'I' for Inactive)
REMARK    1  A    between atoms: C_1  and  C_2
REMARK    2  A    between atoms: C_2  and  N_3
REMARK    3  A    between atoms: N_3  and  C_4
REMARK    4  A    between atoms: C_4  and  C_5
REMARK    5  A    between atoms: C_6  and  C_8
REMARK    6  A    between atoms: C_8  and  N_9
REMARK    7  A    between atoms: C_10  and  C_12
REMARK    8  A    between atoms: C_18  and  C_20
REMARK                            x       y       z     vdW  Elec       q    Type
REMARK                         _______ _______ _______ _____ _____    ______ ____
ROOT
ATOM      1  C   UNL     1       4.523   5.858  17.733  0.00  0.00    +0.000 C 
ATOM      2  C   UNL     1       4.244   4.582  17.355  0.00  0.00    +0.000 C 
ATOM      3 CL   UNL     1       5.300   3.609  16.365  0.00  0.00    +0.000 Cl
ENDROOT
BRANCH   2   4
ATOM      4  C   UNL     1       3.062   3.809  17.807  0.00  0.00    +0.000 A 
ATOM      5  C   UNL     1       3.242   2.609  18.511  0.00  0.00    +0.000 A 
ATOM      6  C   UNL     1       2.143   1.929  19.045  0.00  0.00    +0.000 A 
ATOM      7  C   UNL     1       0.858   2.438  18.878  0.00  0.00    +0.000 A 
ATOM      8  C   UNL     1       0.664   3.622  18.169  0.00  0.00    +0.000 A 
ATOM      9  C   UNL     1       1.763   4.308  17.634  0.00  0.00    +0.000 A 
ENDBRANCH   2   4
BRANCH   1  10
ATOM     10  N   UNL     1       3.661   6.531  18.596  0.00  0.00    +0.000 N 
ATOM     11  C   UNL     1       2.901   7.605  18.167  0.00  0.00    +0.000 C 
ATOM     12  O   UNL     1       3.001   8.103  17.052  0.00  0.00    +0.000 OA
ATOM     13  H   UNL     1       3.924   6.567  19.559  0.00  0.00    +0.000 HD
BRANCH  11  14
ATOM     14  C   UNL     1       1.873   8.112  19.129  0.00  0.00    +0.000 A 
ATOM     15  C   UNL     1       1.104   9.266  18.913  0.00  0.00    +0.000 A 
ATOM     16  C   UNL     1       0.331   9.799  19.949  0.00  0.00    +0.000 A 
ATOM     17  C   UNL     1       0.313   9.182  21.199  0.00  0.00    +0.000 A 
ATOM     18  C   UNL     1       1.022   8.001  21.403  0.00  0.00    +0.000 A 
ATOM     19  C   UNL     1       1.788   7.461  20.369  0.00  0.00    +0.000 A 
ENDBRANCH  11  14
ENDBRANCH   1  10
BRANCH   1  21
ATOM     20  N   UNL     1       6.902   6.805  17.770  0.00  0.00    +0.000 N 
ATOM     21  C   UNL     1       5.688   6.603  17.097  0.00  0.00    +0.000 C 
ATOM     22  O   UNL     1       5.533   7.082  15.967  0.00  0.00    +0.000 OA
BRANCH  20  24
ATOM     23  C   UNL     1       8.200   8.929  17.875  0.00  0.00    +0.000 C 
ATOM     24  C   UNL     1       7.864   7.679  17.073  0.00  0.00    +0.000 C 
ENDBRANCH  20  24
BRANCH  20  25
ATOM     25  C   UNL     1       7.228   6.321  19.113  0.00  0.00    +0.000 C 
ATOM     26  C   UNL     1       8.274   5.224  19.263  0.00  0.00    +0.000 C 
ENDBRANCH  20  25
ENDBRANCH   1  21
TORSDOF 6
ENDMDL
MODEL 5
REMARK VINA RESULT:      -6.8      0.691      1.013
REMARK  Name = 
REMARK  8 active torsions:
REMARK  status: ('A' for Active; 'I' for Inactive)
REMARK    1  A    between atoms: C_1  and  C_2
REMARK    2  A    between atoms: C_2  and  N_3
REMARK    3  A    between atoms: N_3  and  C_4
REMARK    4  A    between atoms: C_4  and  C_5
REMARK    5  A    between atoms: C_6  and  C_8
REMARK    6  A    between atoms: C_8  and  N_9
REMARK    7  A    between atoms: C_10  and  C_12
REMARK    8  A    between atoms: C_18  and  C_20
REMARK                            x       y       z     vdW  Elec       q    Type
REMARK                         _______ _______ _______ _____ _____    ______ ____
ROOT
ATOM      1  C   UNL     1       4.440   5.977  18.011  0.00  0.00    +0.000 C 
ATOM      2  C   UNL     1       4.122   4.691  17.703  0.00  0.00    +0.000 C 
ATOM      3 CL   UNL     1       5.072   3.683  16.643  0.00  0.00    +0.000 Cl
ENDROOT
BRANCH   2   4
ATOM      4  C   UNL     1       2.990   3.938  18.295  0.00  0.00    +0.000 A 
ATOM      5  C   UNL     1       3.177   3.222  19.486  0.00  0.00    +0.000 A 
ATOM      6  C   UNL     1       2.094   2.604  20.120  0.00  0.00    +0.000 A 
ATOM      7  C   UNL     1       0.819   2.692  19.568  0.00  0.00    +0.000 A 
ATOM      8  C   UNL     1       0.622   3.389  18.376  0.00  0.00    +0.000 A 
ATOM      9  C   UNL     1       1.704   4.012  17.740  0.00  0.00    +0.000 A 
ENDBRANCH   2   4
BRANCH   1  10
ATOM     10  N   UNL     1       3.669   6.680  18.934  0.00  0.00    +0.000 N 
ATOM     11  C   UNL     1       2.694   7.576  18.530  0.00  0.00    +0.000 C 
ATOM     12  O   UNL     1       2.507   7.892  17.361  0.00  0.00    +0.000 OA
ATOM     13  H   UNL     1       4.103   6.905  19.805  0.00  0.00    +0.000 HD
BRANCH  11  14
ATOM     14  C   UNL     1       1.806   8.114  19.608  0.00  0.00    +0.000 A 
ATOM     15  C   UNL     1       1.498   7.418  20.787  0.00  0.00    +0.000 A 
ATOM     16  C   UNL     1       0.490   7.886  21.635  0.00  0.00    +0.000 A 
ATOM     17  C   UNL     1      -0.208   9.050  21.320  0.00  0.00    +0.000 A 
ATOM     18  C   UNL     1       0.136   9.782  20.187  0.00  0.00    +0.000 A 
ATOM     19  C   UNL     1       1.146   9.323  19.341  0.00  0.00    +0.000 A 
ENDBRANCH  11  14
ENDBRANCH   1  10
BRANCH   1  21
ATOM     20  N   UNL     1       6.854   6.775  17.710  0.00  0.00    +0.000 N 
ATOM     21  C   UNL     1       5.536   6.697  17.238  0.00  0.00    +0.000 C 
ATOM     22  O   UNL     1       5.233   7.268  16.183  0.00  0.00    +0.000 OA
BRANCH  20  24
ATOM     23  C   UNL     1       8.180   8.884  17.685  0.00  0.00    +0.000 C 
ATOM     24  C   UNL     1       7.750   7.639  16.920  0.00  0.00    +0.000 C 
ENDBRANCH  20  24
BRANCH  20  25
ATOM     25  C   UNL     1       7.358   6.173  18.946  0.00  0.00    +0.000 C 
ATOM     26  C   UNL     1       8.017   4.801  18.878  0.00  0.00    +0.000 C 
ENDBRANCH  20  25
ENDBRANCH   1  21
TORSDOF 6
ENDMDL
MODEL 6
REMARK VINA RESULT:      -6.8      1.606      4.920
REMARK  Name = 
REMARK  8 active torsions:
REMARK  status: ('A' for Active; 'I' for Inactive)
REMARK    1  A    between atoms: C_1  and  C_2
REMARK    2  A    between atoms: C_2  and  N_3
REMARK    3  A    between atoms: N_3  and  C_4
REMARK    4  A    between atoms: C_4  and  C_5
REMARK    5  A    between atoms: C_6  and  C_8
REMARK    6  A    between atoms: C_8  and  N_9
REMARK    7  A    between atoms: C_10  and  C_12
REMARK    8  A    between atoms: C_18  and  C_20
REMARK                            x       y       z     vdW  Elec       q    Type
REMARK                         _______ _______ _______ _____ _____    ______ ____
ROOT
ATOM      1  C   UNL     1       3.734   5.073  18.138  0.00  0.00    +0.000 C 
ATOM      2  C   UNL     1       5.005   4.992  17.662  0.00  0.00    +0.000 C 
ATOM      3 CL   UNL     1       5.564   3.733  16.593  0.00  0.00    +0.000 Cl
ENDROOT
BRANCH   2   4
ATOM      4  C   UNL     1       6.061   6.006  17.902  0.00  0.00    +0.000 A 
ATOM      5  C   UNL     1       7.080   5.744  18.829  0.00  0.00    +0.000 A 
ATOM      6  C   UNL     1       8.147   6.636  18.982  0.00  0.00    +0.000 A 
ATOM      7  C   UNL     1       8.201   7.797  18.216  0.00  0.00    +0.000 A 
ATOM      8  C   UNL     1       7.186   8.077  17.301  0.00  0.00    +0.000 A 
ATOM      9  C   UNL     1       6.117   7.184  17.143  0.00  0.00    +0.000 A 
ENDBRANCH   2   4
BRANCH   1  10
ATOM     10  N   UNL     1       3.353   6.161  18.919  0.00  0.00    +0.000 N 
ATOM     11  C   UNL     1       2.455   7.106  18.455  0.00  0.00    +0.000 C 
ATOM     12  O   UNL     1       2.014   7.118  17.311  0.00  0.00    +0.000 OA
ATOM     13  H   UNL     1       4.031   6.515  19.561  0.00  0.00    +0.000 HD
BRANCH  11  14
ATOM     14  C   UNL     1       1.978   8.111  19.456  0.00  0.00    +0.000 A 
ATOM     15  C   UNL     1       1.814   7.836  20.822  0.00  0.00    +0.000 A 
ATOM     16  C   UNL     1       1.155   8.750  21.649  0.00  0.00    +0.000 A 
ATOM     17  C   UNL     1       0.666   9.944  21.123  0.00  0.00    +0.000 A 
ATOM     18  C   UNL     1       0.881  10.256  19.783  0.00  0.00    +0.000 A 
ATOM     19  C   UNL     1       1.545   9.349  18.956  0.00  0.00    +0.000 A 
ENDBRANCH  11  14
ENDBRANCH   1  10
BRANCH   1  21
ATOM     20  N   UNL     1       2.629   2.896  18.911  0.00  0.00    +0.000 N 
ATOM     21  C   UNL     1       2.774   3.906  17.949  0.00  0.00    +0.000 C 
ATOM     22  O   UNL     1       2.141   3.831  16.888  0.00  0.00    +0.000 OA
BRANCH  20  24
ATOM     23  C   UNL     1       0.335   1.927  18.957  0.00  0.00    +0.000 C 
ATOM     24  C   UNL     1       1.779   1.763  18.502  0.00  0.00    +0.000 C 
ENDBRANCH  20  24
BRANCH  20  25
ATOM     25  C   UNL     1       3.322   2.834  20.199  0.00  0.00    +0.000 C 
ATOM     26  C   UNL     1       4.637   2.071  20.289  0.00  0.00    +0.000 C 
ENDBRANCH  20  25
ENDBRANCH   1  21
TORSDOF 6
ENDMDL
MODEL 7
REMARK VINA RESULT:      -6.6      1.562      4.989
REMARK  Name = 
REMARK  8 active torsions:
REMARK  status: ('A' for Active; 'I' for Inactive)
REMARK    1  A    between atoms: C_1  and  C_2
REMARK    2  A    between atoms: C_2  and  N_3
REMARK    3  A    between atoms: N_3  and  C_4
REMARK    4  A    between atoms: C_4  and  C_5
REMARK    5  A    between atoms: C_6  and  C_8
REMARK    6  A    between atoms: C_8  and  N_9
REMARK    7  A    between atoms: C_10  and  C_12
REMARK    8  A    between atoms: C_18  and  C_20
REMARK                            x       y       z     vdW  Elec       q    Type
REMARK                         _______ _______ _______ _____ _____    ______ ____
ROOT
ATOM      1  C   UNL     1       3.917   4.945  18.063  0.00  0.00    +0.000 C 
ATOM      2  C   UNL     1       5.180   4.852  17.568  0.00  0.00    +0.000 C 
ATOM      3 CL   UNL     1       5.735   3.541  16.561  0.00  0.00    +0.000 Cl
ENDROOT
BRANCH   2   4
ATOM      4  C   UNL     1       6.227   5.890  17.730  0.00  0.00    +0.000 A 
ATOM      5  C   UNL     1       6.124   7.098  17.025  0.00  0.00    +0.000 A 
ATOM      6  C   UNL     1       7.037   8.133  17.254  0.00  0.00    +0.000 A 
ATOM      7  C   UNL     1       8.061   7.968  18.183  0.00  0.00    +0.000 A 
ATOM      8  C   UNL     1       8.183   6.767  18.879  0.00  0.00    +0.000 A 
ATOM      9  C   UNL     1       7.269   5.729  18.655  0.00  0.00    +0.000 A 
ENDBRANCH   2   4
BRANCH   1  10
ATOM     10  N   UNL     1       3.538   6.071  18.789  0.00  0.00    +0.000 N 
ATOM     11  C   UNL     1       2.476   6.865  18.391  0.00  0.00    +0.000 C 
ATOM     12  O   UNL     1       1.866   6.703  17.340  0.00  0.00    +0.000 OA
ATOM     13  H   UNL     1       4.261   6.561  19.274  0.00  0.00    +0.000 HD
BRANCH  11  14
ATOM     14  C   UNL     1       2.045   7.924  19.356  0.00  0.00    +0.000 A 
ATOM     15  C   UNL     1       1.861   7.701  20.729  0.00  0.00    +0.000 A 
ATOM     16  C   UNL     1       1.245   8.674  21.522  0.00  0.00    +0.000 A 
ATOM     17  C   UNL     1       0.819   9.874  20.955  0.00  0.00    +0.000 A 
ATOM     18  C   UNL     1       1.056  10.130  19.608  0.00  0.00    +0.000 A 
ATOM     19  C   UNL     1       1.678   9.165  18.814  0.00  0.00    +0.000 A 
ENDBRANCH  11  14
ENDBRANCH   1  10
BRANCH   1  21
ATOM     20  N   UNL     1       2.702   2.919  19.052  0.00  0.00    +0.000 N 
ATOM     21  C   UNL     1       2.970   3.758  17.960  0.00  0.00    +0.000 C 
ATOM     22  O   UNL     1       2.460   3.507  16.861  0.00  0.00    +0.000 OA
BRANCH  20  24
ATOM     23  C   UNL     1       0.394   2.008  18.835  0.00  0.00    +0.000 C 
ATOM     24  C   UNL     1       1.888   1.730  18.740  0.00  0.00    +0.000 C 
ENDBRANCH  20  24
BRANCH  20  25
ATOM     25  C   UNL     1       3.243   3.074  20.403  0.00  0.00    +0.000 C 
ATOM     26  C   UNL     1       2.275   3.235  21.568  0.00  0.00    +0.000 C 
ENDBRANCH  20  25
ENDBRANCH   1  21
TORSDOF 6
ENDMDL
MODEL 8
REMARK VINA RESULT:      -6.6      1.208      1.905
REMARK  Name = 
REMARK  8 active torsions:
REMARK  status: ('A' for Active; 'I' for Inactive)
REMARK    1  A    between atoms: C_1  and  C_2
REMARK    2  A    between atoms: C_2  and  N_3
REMARK    3  A    between atoms: N_3  and  C_4
REMARK    4  A    between atoms: C_4  and  C_5
REMARK    5  A    between atoms: C_6  and  C_8
REMARK    6  A    between atoms: C_8  and  N_9
REMARK    7  A    between atoms: C_10  and  C_12
REMARK    8  A    between atoms: C_18  and  C_20
REMARK                            x       y       z     vdW  Elec       q    Type
REMARK                         _______ _______ _______ _____ _____    ______ ____
ROOT
ATOM      1  C   UNL     1       4.548   5.512  19.376  0.00  0.00    +0.000 C 
ATOM      2  C   UNL     1       4.124   4.237  19.167  0.00  0.00    +0.000 C 
ATOM      3 CL   UNL     1       5.170   2.935  18.665  0.00  0.00    +0.000 Cl
ENDROOT
BRANCH   2   4
ATOM      4  C   UNL     1       2.746   3.753  19.429  0.00  0.00    +0.000 A 
ATOM      5  C   UNL     1       1.923   3.381  18.356  0.00  0.00    +0.000 A 
ATOM      6  C   UNL     1       0.666   2.813  18.590  0.00  0.00    +0.000 A 
ATOM      7  C   UNL     1       0.221   2.617  19.894  0.00  0.00    +0.000 A 
ATOM      8  C   UNL     1       1.023   2.996  20.969  0.00  0.00    +0.000 A 
ATOM      9  C   UNL     1       2.284   3.562  20.739  0.00  0.00    +0.000 A 
ENDBRANCH   2   4
BRANCH   1  10
ATOM     10  N   UNL     1       3.658   6.469  19.859  0.00  0.00    +0.000 N 
ATOM     11  C   UNL     1       2.731   7.077  19.031  0.00  0.00    +0.000 C 
ATOM     12  O   UNL     1       2.689   6.905  17.818  0.00  0.00    +0.000 OA
ATOM     13  H   UNL     1       3.975   7.038  20.615  0.00  0.00    +0.000 HD
BRANCH  11  14
ATOM     14  C   UNL     1       1.707   7.935  19.705  0.00  0.00    +0.000 A 
ATOM     15  C   UNL     1       1.232   9.146  19.177  0.00  0.00    +0.000 A 
ATOM     16  C   UNL     1       0.450   9.996  19.964  0.00  0.00    +0.000 A 
ATOM     17  C   UNL     1       0.130   9.643  21.274  0.00  0.00    +0.000 A 
ATOM     18  C   UNL     1       0.542   8.415  21.784  0.00  0.00    +0.000 A 
ATOM     19  C   UNL     1       1.316   7.559  20.999  0.00  0.00    +0.000 A 
ENDBRANCH  11  14
ENDBRANCH   1  10
BRANCH   1  21
ATOM     20  N   UNL     1       6.210   6.407  17.646  0.00  0.00    +0.000 N 
ATOM     21  C   UNL     1       5.944   5.931  18.938  0.00  0.00    +0.000 C 
ATOM     22  O   UNL     1       6.876   5.800  19.742  0.00  0.00    +0.000 OA
BRANCH  20  24
ATOM     23  C   UNL     1       8.072   8.060  17.570  0.00  0.00    +0.000 C 
ATOM     24  C   UNL     1       7.637   6.619  17.341  0.00  0.00    +0.000 C 
ENDBRANCH  20  24
BRANCH  20  25
ATOM     25  C   UNL     1       5.222   6.595  16.583  0.00  0.00    +0.000 C 
ATOM     26  C   UNL     1       5.295   5.708  15.347  0.00  0.00    +0.000 C 
ENDBRANCH  20  25
ENDBRANCH   1  21
TORSDOF 6
ENDMDL
MODEL 9
REMARK VINA RESULT:      -6.6      1.423      5.031
REMARK  Name = 
REMARK  8 active torsions:
REMARK  status: ('A' for Active; 'I' for Inactive)
REMARK    1  A    between atoms: C_1  and  C_2
REMARK    2  A    between atoms: C_2  and  N_3
REMARK    3  A    between atoms: N_3  and  C_4
REMARK    4  A    between atoms: C_4  and  C_5
REMARK    5  A    between atoms: C_6  and  C_8
REMARK    6  A    between atoms: C_8  and  N_9
REMARK    7  A    between atoms: C_10  and  C_12
REMARK    8  A    between atoms: C_18  and  C_20
REMARK                            x       y       z     vdW  Elec       q    Type
REMARK                         _______ _______ _______ _____ _____    ______ ____
ROOT
ATOM      1  C   UNL     1       3.039   5.418  18.382  0.00  0.00    +0.000 C 
ATOM      2  C   UNL     1       4.278   5.025  17.984  0.00  0.00    +0.000 C 
ATOM      3 CL   UNL     1       4.605   3.516  17.174  0.00  0.00    +0.000 Cl
ENDROOT
BRANCH   2   4
ATOM      4  C   UNL     1       5.501   5.857  18.090  0.00  0.00    +0.000 A 
ATOM      5  C   UNL     1       6.501   5.510  19.010  0.00  0.00    +0.000 A 
ATOM      6  C   UNL     1       7.710   6.213  19.042  0.00  0.00    +0.000 A 
ATOM      7  C   UNL     1       7.927   7.269  18.161  0.00  0.00    +0.000 A 
ATOM      8  C   UNL     1       6.936   7.633  17.252  0.00  0.00    +0.000 A 
ATOM      9  C   UNL     1       5.724   6.930  17.214  0.00  0.00    +0.000 A 
ENDBRANCH   2   4
BRANCH   1  10
ATOM     10  N   UNL     1       2.859   6.679  18.946  0.00  0.00    +0.000 N 
ATOM     11  C   UNL     1       2.136   7.665  18.297  0.00  0.00    +0.000 C 
ATOM     12  O   UNL     1       1.697   7.546  17.159  0.00  0.00    +0.000 OA
ATOM     13  H   UNL     1       3.592   7.020  19.532  0.00  0.00    +0.000 HD
BRANCH  11  14
ATOM     14  C   UNL     1       1.848   8.902  19.090  0.00  0.00    +0.000 A 
ATOM     15  C   UNL     1       1.420   8.891  20.426  0.00  0.00    +0.000 A 
ATOM     16  C   UNL     1       0.958  10.067  21.025  0.00  0.00    +0.000 A 
ATOM     17  C   UNL     1       0.928  11.257  20.301  0.00  0.00    +0.000 A 
ATOM     18  C   UNL     1       1.412  11.291  18.996  0.00  0.00    +0.000 A 
ATOM     19  C   UNL     1       1.882  10.122  18.397  0.00  0.00    +0.000 A 
ENDBRANCH  11  14
ENDBRANCH   1  10
BRANCH   1  21
ATOM     20  N   UNL     1       1.562   3.626  19.461  0.00  0.00    +0.000 N 
ATOM     21  C   UNL     1       1.881   4.430  18.357  0.00  0.00    +0.000 C 
ATOM     22  O   UNL     1       1.237   4.307  17.308  0.00  0.00    +0.000 OA
BRANCH  20  24
ATOM     23  C   UNL     1       1.084   1.315  18.662  0.00  0.00    +0.000 C 
ATOM     24  C   UNL     1       0.517   2.616  19.215  0.00  0.00    +0.000 C 
ENDBRANCH  20  24
BRANCH  20  25
ATOM     25  C   UNL     1       2.243   3.641  20.757  0.00  0.00    +0.000 C 
ATOM     26  C   UNL     1       1.719   2.745  21.871  0.00  0.00    +0.000 C 
ENDBRANCH  20  25
ENDBRANCH   1  21
TORSDOF 6
ENDMDL
