MODEL 1
REMARK VINA RESULT:      -7.7      0.000      0.000
REMARK  Name = 
REMARK  16 active torsions:
REMARK  status: ('A' for Active; 'I' for Inactive)
REMARK    1  A    between atoms: C_1  and  C_2
REMARK    2  A    between atoms: C_2  and  O_3
REMARK    3  A    between atoms: O_3  and  C_4
REMARK    4  A    between atoms: C_4  and  C_6
REMARK    5  A    between atoms: C_6  and  C_7
REMARK    6  A    between atoms: C_8  and  C_9
REMARK    7  A    between atoms: C_9  and  O_11
REMARK    8  A    between atoms: O_11  and  C_12
REMARK    9  A    between atoms: C_12  and  C_13
REMARK   10  A    between atoms: C_14  and  C_15
REMARK   11  A    between atoms: C_18  and  O_19
REMARK   12  A    between atoms: O_19  and  C_20
REMARK   13  A    between atoms: C_22  and  O_23
REMARK   14  A    between atoms: O_23  and  C_24
REMARK   15  A    between atoms: C_25  and  C_26
REMARK   16  A    between atoms: C_28  and  N_29
REMARK                            x       y       z     vdW  Elec       q    Type
REMARK                         _______ _______ _______ _____ _____    ______ ____
ROOT
ATOM      1  C   UNL     1       6.006   4.544  17.904  0.00  0.00    +0.000 C 
ATOM      2  C   UNL     1       5.057   5.153  17.162  0.00  0.00    +0.000 C 
ATOM      3  C   UNL     1       3.577   4.865  17.412  0.00  0.00    +0.000 C 
ATOM      4  C   UNL     1       3.372   3.583  18.205  0.00  0.00    +0.000 C 
ATOM      5  C   UNL     1       4.402   2.998  18.852  0.00  0.00    +0.000 C 
ATOM      6  O   UNL     1       5.677   3.541  18.815  0.00  0.00    +0.000 OA
ENDROOT
BRANCH   3   7
ATOM      7  C   UNL     1       2.895   6.035  18.136  0.00  0.00    +0.000 A 
ATOM      8  C   UNL     1       2.548   7.166  17.350  0.00  0.00    +0.000 A 
ATOM      9  C   UNL     1       1.963   8.303  17.903  0.00  0.00    +0.000 A 
ATOM     10  C   UNL     1       1.689   8.352  19.262  0.00  0.00    +0.000 A 
ATOM     11  C   UNL     1       2.048   7.264  20.060  0.00  0.00    +0.000 A 
ATOM     12  C   UNL     1       2.659   6.115  19.519  0.00  0.00    +0.000 A 
BRANCH  10  13
ATOM     13  O   UNL     1       1.108   9.512  19.689  0.00  0.00    +0.000 OA
ATOM     14  C   UNL     1       0.295   9.422  20.852  0.00  0.00    +0.000 C 
ENDBRANCH  10  13
BRANCH  12  15
ATOM     15  O   UNL     1       3.128   5.275  20.492  0.00  0.00    +0.000 OA
ATOM     16  C   UNL     1       2.206   4.602  21.333  0.00  0.00    +0.000 C 
ENDBRANCH  12  15
ENDBRANCH   3   7
BRANCH   5  17
ATOM     17  N   UNL     1       4.325   1.867  19.632  0.00  0.00    +0.000 N 
ATOM     18  H   UNL     1       4.887   1.080  19.315  0.00  0.00    +0.000 HD
ATOM     19  H   UNL     1       3.365   1.609  19.847  0.00  0.00    +0.000 HD
ENDBRANCH   5  17
BRANCH   2  20
ATOM     20  C   UNL     1       5.347   6.161  16.109  0.00  0.00    +0.000 C 
ATOM     21  O   UNL     1       5.541   7.343  16.342  0.00  0.00    +0.000 OA
BRANCH  20  22
ATOM     22  O   UNL     1       5.290   5.616  14.871  0.00  0.00    +0.000 OA
BRANCH  22  23
ATOM     23  C   UNL     1       6.479   4.945  14.422  0.00  0.00    +0.000 C 
ATOM     24  C   UNL     1       6.136   3.806  13.477  0.00  0.00    +0.000 C 
ENDBRANCH  22  23
ENDBRANCH  20  22
ENDBRANCH   2  20
BRANCH   4  25
ATOM     25  C   UNL     1       2.065   3.028  18.254  0.00  0.00    +0.000 C 
ATOM     26  N   UNL     1       1.007   2.556  18.312  0.00  0.00    +0.000 NA
ENDBRANCH   4  25
BRANCH   1  27
ATOM     27  C   UNL     1       7.468   4.901  17.977  0.00  0.00    +0.000 C 
BRANCH  27  28
ATOM     28  C   UNL     1       7.765   5.741  19.198  0.00  0.00    +0.000 C 
ATOM     29  O   UNL     1       7.343   5.543  20.328  0.00  0.00    +0.000 OA
BRANCH  28  30
ATOM     30  O   UNL     1       8.537   6.803  18.818  0.00  0.00    +0.000 OA
BRANCH  30  32
ATOM     31  C   UNL     1       8.494   9.133  18.314  0.00  0.00    +0.000 C 
ATOM     32  C   UNL     1       7.865   7.782  18.016  0.00  0.00    +0.000 C 
ENDBRANCH  30  32
ENDBRANCH  28  30
ENDBRANCH  27  28
ENDBRANCH   1  27
TORSDOF 12
ENDMDL
MODEL 2
REMARK VINA RESULT:      -6.8      6.117     10.700
REMARK  Name = 
REMARK  16 active torsions:
REMARK  status: ('A' for Active; 'I' for Inactive)
REMARK    1  A    between atoms: C_1  and  C_2
REMARK    2  A    between atoms: C_2  and  O_3
REMARK    3  A    between atoms: O_3  and  C_4
REMARK    4  A    between atoms: C_4  and  C_6
REMARK    5  A    between atoms: C_6  and  C_7
REMARK    6  A    between atoms: C_8  and  C_9
REMARK    7  A    between atoms: C_9  and  O_11
REMARK    8  A    between atoms: O_11  and  C_12
REMARK    9  A    between atoms: C_12  and  C_13
REMARK   10  A    between atoms: C_14  and  C_15
REMARK   11  A    between atoms: C_18  and  O_19
REMARK   12  A    between atoms: O_19  and  C_20
REMARK   13  A    between atoms: C_22  and  O_23
REMARK   14  A    between atoms: O_23  and  C_24
REMARK   15  A    between atoms: C_25  and  C_26
REMARK   16  A    between atoms: C_28  and  N_29
REMARK                            x       y       z     vdW  Elec       q    Type
REMARK                         _______ _______ _______ _____ _____    ______ ____
ROOT
ATOM      1  C   UNL     1      -3.031  12.932  21.215  0.00  0.00    +0.000 C 
ATOM      2  C   UNL     1      -1.938  12.140  21.269  0.00  0.00    +0.000 C 
ATOM      3  C   UNL     1      -1.427  11.442  20.009  0.00  0.00    +0.000 C 
ATOM      4  C   UNL     1      -2.483  11.393  18.916  0.00  0.00    +0.000 C 
ATOM      5  C   UNL     1      -3.589  12.164  18.987  0.00  0.00    +0.000 C 
ATOM      6  O   UNL     1      -3.799  13.023  20.056  0.00  0.00    +0.000 OA
ENDROOT
BRANCH   3   7
ATOM      7  C   UNL     1      -0.157  12.118  19.471  0.00  0.00    +0.000 A 
ATOM      8  C   UNL     1      -0.209  13.524  19.278  0.00  0.00    +0.000 A 
ATOM      9  C   UNL     1       0.867  14.241  18.757  0.00  0.00    +0.000 A 
ATOM     10  C   UNL     1       2.041  13.585  18.421  0.00  0.00    +0.000 A 
ATOM     11  C   UNL     1       2.105  12.199  18.576  0.00  0.00    +0.000 A 
ATOM     12  C   UNL     1       1.020  11.457  19.082  0.00  0.00    +0.000 A 
BRANCH  10  13
ATOM     13  O   UNL     1       3.029  14.391  17.928  0.00  0.00    +0.000 OA
ATOM     14  C   UNL     1       2.827  15.792  18.064  0.00  0.00    +0.000 C 
ENDBRANCH  10  13
BRANCH  12  15
ATOM     15  O   UNL     1       1.208  10.109  18.941  0.00  0.00    +0.000 OA
ATOM     16  C   UNL     1       1.999   9.625  17.869  0.00  0.00    +0.000 C 
ENDBRANCH  12  15
ENDBRANCH   3   7
BRANCH   5  17
ATOM     17  N   UNL     1      -4.584  12.236  18.040  0.00  0.00    +0.000 N 
ATOM     18  H   UNL     1      -5.388  12.805  18.295  0.00  0.00    +0.000 HD
ATOM     19  H   UNL     1      -4.843  11.321  17.681  0.00  0.00    +0.000 HD
ENDBRANCH   5  17
BRANCH   2  20
ATOM     20  C   UNL     1      -1.129  11.924  22.497  0.00  0.00    +0.000 C 
ATOM     21  O   UNL     1      -0.272  12.701  22.885  0.00  0.00    +0.000 OA
BRANCH  20  22
ATOM     22  O   UNL     1      -1.412  10.732  23.074  0.00  0.00    +0.000 OA
BRANCH  22  23
ATOM     23  C   UNL     1      -0.305   9.832  23.237  0.00  0.00    +0.000 C 
ATOM     24  C   UNL     1      -0.225   8.852  22.080  0.00  0.00    +0.000 C 
ENDBRANCH  22  23
ENDBRANCH  20  22
ENDBRANCH   2  20
BRANCH   4  25
ATOM     25  C   UNL     1      -2.268  10.522  17.814  0.00  0.00    +0.000 C 
ATOM     26  N   UNL     1      -2.113   9.796  16.923  0.00  0.00    +0.000 NA
ENDBRANCH   4  25
BRANCH   1  27
ATOM     27  C   UNL     1      -3.509  13.891  22.274  0.00  0.00    +0.000 C 
BRANCH  27  28
ATOM     28  C   UNL     1      -4.203  13.159  23.401  0.00  0.00    +0.000 C 
ATOM     29  O   UNL     1      -5.119  12.359  23.282  0.00  0.00    +0.000 OA
BRANCH  28  30
ATOM     30  O   UNL     1      -3.678  13.589  24.587  0.00  0.00    +0.000 OA
BRANCH  30  32
ATOM     31  C   UNL     1      -2.287  15.226  25.620  0.00  0.00    +0.000 C 
ATOM     32  C   UNL     1      -3.452  15.001  24.671  0.00  0.00    +0.000 C 
ENDBRANCH  30  32
ENDBRANCH  28  30
ENDBRANCH  27  28
ENDBRANCH   1  27
TORSDOF 12
ENDMDL
MODEL 3
REMARK VINA RESULT:      -6.7      5.152      9.928
REMARK  Name = 
REMARK  16 active torsions:
REMARK  status: ('A' for Active; 'I' for Inactive)
REMARK    1  A    between atoms: C_1  and  C_2
REMARK    2  A    between atoms: C_2  and  O_3
REMARK    3  A    between atoms: O_3  and  C_4
REMARK    4  A    between atoms: C_4  and  C_6
REMARK    5  A    between atoms: C_6  and  C_7
REMARK    6  A    between atoms: C_8  and  C_9
REMARK    7  A    between atoms: C_9  and  O_11
REMARK    8  A    between atoms: O_11  and  C_12
REMARK    9  A    between atoms: C_12  and  C_13
REMARK   10  A    between atoms: C_14  and  C_15
REMARK   11  A    between atoms: C_18  and  O_19
REMARK   12  A    between atoms: O_19  and  C_20
REMARK   13  A    between atoms: C_22  and  O_23
REMARK   14  A    between atoms: O_23  and  C_24
REMARK   15  A    between atoms: C_25  and  C_26
REMARK   16  A    between atoms: C_28  and  N_29
REMARK                            x       y       z     vdW  Elec       q    Type
REMARK                         _______ _______ _______ _____ _____    ______ ____
ROOT
ATOM      1  C   UNL     1      -2.210  12.513  19.606  0.00  0.00    +0.000 C 
ATOM      2  C   UNL     1      -1.582  11.779  18.664  0.00  0.00    +0.000 C 
ATOM      3  C   UNL     1      -0.058  11.809  18.549  0.00  0.00    +0.000 C 
ATOM      4  C   UNL     1       0.543  13.013  19.259  0.00  0.00    +0.000 C 
ATOM      5  C   UNL     1      -0.189  13.741  20.129  0.00  0.00    +0.000 C 
ATOM      6  O   UNL     1      -1.510  13.417  20.403  0.00  0.00    +0.000 OA
ENDROOT
BRANCH   3   7
ATOM      7  C   UNL     1       0.569  10.520  19.099  0.00  0.00    +0.000 A 
ATOM      8  C   UNL     1       1.281   9.706  18.179  0.00  0.00    +0.000 A 
ATOM      9  C   UNL     1       1.857   8.493  18.553  0.00  0.00    +0.000 A 
ATOM     10  C   UNL     1       1.756   8.051  19.863  0.00  0.00    +0.000 A 
ATOM     11  C   UNL     1       1.037   8.820  20.779  0.00  0.00    +0.000 A 
ATOM     12  C   UNL     1       0.431  10.039  20.412  0.00  0.00    +0.000 A 
BRANCH  10  13
ATOM     13  O   UNL     1       2.367   6.854  20.114  0.00  0.00    +0.000 OA
ATOM     14  C   UNL     1       2.686   6.058  18.981  0.00  0.00    +0.000 C 
ENDBRANCH  10  13
BRANCH  12  15
ATOM     15  O   UNL     1      -0.403  10.513  21.387  0.00  0.00    +0.000 OA
ATOM     16  C   UNL     1      -0.459   9.849  22.638  0.00  0.00    +0.000 C 
ENDBRANCH  12  15
ENDBRANCH   3   7
BRANCH   5  17
ATOM     17  N   UNL     1       0.260  14.817  20.858  0.00  0.00    +0.000 N 
ATOM     18  H   UNL     1       0.211  14.709  21.869  0.00  0.00    +0.000 HD
ATOM     19  H   UNL     1      -0.133  15.696  20.533  0.00  0.00    +0.000 HD
ENDBRANCH   5  17
BRANCH   2  20
ATOM     20  C   UNL     1      -2.279  10.867  17.720  0.00  0.00    +0.000 C 
ATOM     21  O   UNL     1      -2.605   9.726  18.001  0.00  0.00    +0.000 OA
BRANCH  20  22
ATOM     22  O   UNL     1      -2.431  11.437  16.501  0.00  0.00    +0.000 OA
BRANCH  22  23
ATOM     23  C   UNL     1      -3.534  10.960  15.714  0.00  0.00    +0.000 C 
ATOM     24  C   UNL     1      -3.048  10.093  14.566  0.00  0.00    +0.000 C 
ENDBRANCH  22  23
ENDBRANCH  20  22
ENDBRANCH   2  20
BRANCH   4  25
ATOM     25  C   UNL     1       1.899  13.343  18.988  0.00  0.00    +0.000 C 
ATOM     26  N   UNL     1       3.004  13.630  18.787  0.00  0.00    +0.000 NA
ENDBRANCH   4  25
BRANCH   1  27
ATOM     27  C   UNL     1      -3.652  12.402  20.030  0.00  0.00    +0.000 C 
BRANCH  27  28
ATOM     28  C   UNL     1      -3.897  13.135  21.330  0.00  0.00    +0.000 C 
ATOM     29  O   UNL     1      -3.995  14.345  21.466  0.00  0.00    +0.000 OA
BRANCH  28  30
ATOM     30  O   UNL     1      -3.928  12.221  22.346  0.00  0.00    +0.000 OA
BRANCH  30  32
ATOM     31  C   UNL     1      -4.296  12.471  24.687  0.00  0.00    +0.000 C 
ATOM     32  C   UNL     1      -3.293  12.642  23.559  0.00  0.00    +0.000 C 
ENDBRANCH  30  32
ENDBRANCH  28  30
ENDBRANCH  27  28
ENDBRANCH   1  27
TORSDOF 12
ENDMDL
MODEL 4
REMARK VINA RESULT:      -6.6      7.095     10.548
REMARK  Name = 
REMARK  16 active torsions:
REMARK  status: ('A' for Active; 'I' for Inactive)
REMARK    1  A    between atoms: C_1  and  C_2
REMARK    2  A    between atoms: C_2  and  O_3
REMARK    3  A    between atoms: O_3  and  C_4
REMARK    4  A    between atoms: C_4  and  C_6
REMARK    5  A    between atoms: C_6  and  C_7
REMARK    6  A    between atoms: C_8  and  C_9
REMARK    7  A    between atoms: C_9  and  O_11
REMARK    8  A    between atoms: O_11  and  C_12
REMARK    9  A    between atoms: C_12  and  C_13
REMARK   10  A    between atoms: C_14  and  C_15
REMARK   11  A    between atoms: C_18  and  O_19
REMARK   12  A    between atoms: O_19  and  C_20
REMARK   13  A    between atoms: C_22  and  O_23
REMARK   14  A    between atoms: O_23  and  C_24
REMARK   15  A    between atoms: C_25  and  C_26
REMARK   16  A    between atoms: C_28  and  N_29
REMARK                            x       y       z     vdW  Elec       q    Type
REMARK                         _______ _______ _______ _____ _____    ______ ____
ROOT
ATOM      1  C   UNL     1      10.033  11.993  18.911  0.00  0.00    +0.000 C 
ATOM      2  C   UNL     1       9.749  13.041  19.713  0.00  0.00    +0.000 C 
ATOM      3  C   UNL     1       9.785  14.467  19.165  0.00  0.00    +0.000 C 
ATOM      4  C   UNL     1      10.562  14.556  17.860  0.00  0.00    +0.000 C 
ATOM      5  C   UNL     1      10.874  13.443  17.163  0.00  0.00    +0.000 C 
ATOM      6  O   UNL     1      10.499  12.185  17.611  0.00  0.00    +0.000 OA
ENDROOT
BRANCH   3   7
ATOM      7  C   UNL     1       8.368  15.023  18.961  0.00  0.00    +0.000 A 
ATOM      8  C   UNL     1       7.479  14.249  18.171  0.00  0.00    +0.000 A 
ATOM      9  C   UNL     1       6.182  14.671  17.884  0.00  0.00    +0.000 A 
ATOM     10  C   UNL     1       5.718  15.878  18.385  0.00  0.00    +0.000 A 
ATOM     11  C   UNL     1       6.583  16.670  19.141  0.00  0.00    +0.000 A 
ATOM     12  C   UNL     1       7.904  16.266  19.423  0.00  0.00    +0.000 A 
BRANCH  10  13
ATOM     13  O   UNL     1       4.430  16.183  18.045  0.00  0.00    +0.000 OA
ATOM     14  C   UNL     1       3.542  15.085  17.882  0.00  0.00    +0.000 C 
ENDBRANCH  10  13
BRANCH  12  15
ATOM     15  O   UNL     1       8.643  17.276  19.977  0.00  0.00    +0.000 OA
ATOM     16  C   UNL     1       8.846  18.472  19.245  0.00  0.00    +0.000 C 
ENDBRANCH  12  15
ENDBRANCH   3   7
BRANCH   5  17
ATOM     17  N   UNL     1      11.531  13.406  15.955  0.00  0.00    +0.000 N 
ATOM     18  H   UNL     1      12.414  13.911  15.924  0.00  0.00    +0.000 HD
ATOM     19  H   UNL     1      10.919  13.627  15.174  0.00  0.00    +0.000 HD
ENDBRANCH   5  17
BRANCH   2  20
ATOM     20  C   UNL     1       9.338  12.910  21.135  0.00  0.00    +0.000 C 
ATOM     21  O   UNL     1       8.627  12.010  21.552  0.00  0.00    +0.000 OA
BRANCH  20  22
ATOM     22  O   UNL     1       9.786  13.949  21.879  0.00  0.00    +0.000 OA
BRANCH  22  23
ATOM     23  C   UNL     1       9.059  14.220  23.088  0.00  0.00    +0.000 C 
ATOM     24  C   UNL     1       7.950  15.227  22.842  0.00  0.00    +0.000 C 
ENDBRANCH  22  23
ENDBRANCH  20  22
ENDBRANCH   2  20
BRANCH   4  25
ATOM     25  C   UNL     1      10.940  15.843  17.391  0.00  0.00    +0.000 C 
ATOM     26  N   UNL     1      11.261  16.882  16.988  0.00  0.00    +0.000 NA
ENDBRANCH   4  25
BRANCH   1  27
ATOM     27  C   UNL     1       9.790  10.535  19.203  0.00  0.00    +0.000 C 
BRANCH  27  28
ATOM     28  C   UNL     1       8.672   9.985  18.346  0.00  0.00    +0.000 C 
ATOM     29  O   UNL     1       7.919  10.639  17.640  0.00  0.00    +0.000 OA
BRANCH  28  30
ATOM     30  O   UNL     1       8.601   8.634  18.540  0.00  0.00    +0.000 OA
BRANCH  30  32
ATOM     31  C   UNL     1       7.567   6.522  18.154  0.00  0.00    +0.000 C 
ATOM     32  C   UNL     1       7.740   7.937  17.631  0.00  0.00    +0.000 C 
ENDBRANCH  30  32
ENDBRANCH  28  30
ENDBRANCH  27  28
ENDBRANCH   1  27
TORSDOF 12
ENDMDL
MODEL 5
REMARK VINA RESULT:      -6.5      1.093      1.856
REMARK  Name = 
REMARK  16 active torsions:
REMARK  status: ('A' for Active; 'I' for Inactive)
REMARK    1  A    between atoms: C_1  and  C_2
REMARK    2  A    between atoms: C_2  and  O_3
REMARK    3  A    between atoms: O_3  and  C_4
REMARK    4  A    between atoms: C_4  and  C_6
REMARK    5  A    between atoms: C_6  and  C_7
REMARK    6  A    between atoms: C_8  and  C_9
REMARK    7  A    between atoms: C_9  and  O_11
REMARK    8  A    between atoms: O_11  and  C_12
REMARK    9  A    between atoms: C_12  and  C_13
REMARK   10  A    between atoms: C_14  and  C_15
REMARK   11  A    between atoms: C_18  and  O_19
REMARK   12  A    between atoms: O_19  and  C_20
REMARK   13  A    between atoms: C_22  and  O_23
REMARK   14  A    between atoms: O_23  and  C_24
REMARK   15  A    between atoms: C_25  and  C_26
REMARK   16  A    between atoms: C_28  and  N_29
REMARK                            x       y       z     vdW  Elec       q    Type
REMARK                         _______ _______ _______ _____ _____    ______ ____
ROOT
ATOM      1  C   UNL     1       5.720   4.335  17.939  0.00  0.00    +0.000 C 
ATOM      2  C   UNL     1       4.768   5.166  17.463  0.00  0.00    +0.000 C 
ATOM      3  C   UNL     1       3.293   4.913  17.775  0.00  0.00    +0.000 C 
ATOM      4  C   UNL     1       3.047   3.487  18.244  0.00  0.00    +0.000 C 
ATOM      5  C   UNL     1       4.074   2.698  18.627  0.00  0.00    +0.000 C 
ATOM      6  O   UNL     1       5.382   3.157  18.603  0.00  0.00    +0.000 OA
ENDROOT
BRANCH   3   7
ATOM      7  C   UNL     1       2.767   5.901  18.825  0.00  0.00    +0.000 A 
ATOM      8  C   UNL     1       2.554   5.397  20.135  0.00  0.00    +0.000 A 
ATOM      9  C   UNL     1       2.041   6.189  21.161  0.00  0.00    +0.000 A 
ATOM     10  C   UNL     1       1.731   7.519  20.922  0.00  0.00    +0.000 A 
ATOM     11  C   UNL     1       1.905   8.030  19.635  0.00  0.00    +0.000 A 
ATOM     12  C   UNL     1       2.404   7.237  18.582  0.00  0.00    +0.000 A 
BRANCH  10  13
ATOM     13  O   UNL     1       1.243   8.198  22.003  0.00  0.00    +0.000 OA
ATOM     14  C   UNL     1       0.735   9.502  21.754  0.00  0.00    +0.000 C 
ENDBRANCH  10  13
BRANCH  12  15
ATOM     15  O   UNL     1       2.284   7.857  17.369  0.00  0.00    +0.000 OA
ATOM     16  C   UNL     1       1.940   9.232  17.321  0.00  0.00    +0.000 C 
ENDBRANCH  12  15
ENDBRANCH   3   7
BRANCH   5  17
ATOM     17  N   UNL     1       3.967   1.414  19.109  0.00  0.00    +0.000 N 
ATOM     18  H   UNL     1       3.541   1.328  20.030  0.00  0.00    +0.000 HD
ATOM     19  H   UNL     1       4.836   0.894  19.024  0.00  0.00    +0.000 HD
ENDBRANCH   5  17
BRANCH   2  20
ATOM     20  C   UNL     1       5.056   6.388  16.668  0.00  0.00    +0.000 C 
ATOM     21  O   UNL     1       5.256   7.485  17.164  0.00  0.00    +0.000 OA
BRANCH  20  22
ATOM     22  O   UNL     1       4.989   6.142  15.338  0.00  0.00    +0.000 OA
BRANCH  22  23
ATOM     23  C   UNL     1       6.119   5.466  14.763  0.00  0.00    +0.000 C 
ATOM     24  C   UNL     1       5.699   4.156  14.120  0.00  0.00    +0.000 C 
ENDBRANCH  22  23
ENDBRANCH  20  22
ENDBRANCH   2  20
BRANCH   4  25
ATOM     25  C   UNL     1       1.708   3.015  18.280  0.00  0.00    +0.000 C 
ATOM     26  N   UNL     1       0.607   2.651  18.323  0.00  0.00    +0.000 NA
ENDBRANCH   4  25
BRANCH   1  27
ATOM     27  C   UNL     1       7.207   4.576  17.958  0.00  0.00    +0.000 C 
BRANCH  27  28
ATOM     28  C   UNL     1       7.567   5.700  18.903  0.00  0.00    +0.000 C 
ATOM     29  O   UNL     1       7.464   5.676  20.121  0.00  0.00    +0.000 OA
BRANCH  28  30
ATOM     30  O   UNL     1       7.969   6.777  18.165  0.00  0.00    +0.000 OA
BRANCH  30  32
ATOM     31  C   UNL     1       8.319   9.134  18.104  0.00  0.00    +0.000 C 
ATOM     32  C   UNL     1       8.498   7.869  18.926  0.00  0.00    +0.000 C 
ENDBRANCH  30  32
ENDBRANCH  28  30
ENDBRANCH  27  28
ENDBRANCH   1  27
TORSDOF 12
ENDMDL
MODEL 6
REMARK VINA RESULT:      -6.4      5.234      9.959
REMARK  Name = 
REMARK  16 active torsions:
REMARK  status: ('A' for Active; 'I' for Inactive)
REMARK    1  A    between atoms: C_1  and  C_2
REMARK    2  A    between atoms: C_2  and  O_3
REMARK    3  A    between atoms: O_3  and  C_4
REMARK    4  A    between atoms: C_4  and  C_6
REMARK    5  A    between atoms: C_6  and  C_7
REMARK    6  A    between atoms: C_8  and  C_9
REMARK    7  A    between atoms: C_9  and  O_11
REMARK    8  A    between atoms: O_11  and  C_12
REMARK    9  A    between atoms: C_12  and  C_13
REMARK   10  A    between atoms: C_14  and  C_15
REMARK   11  A    between atoms: C_18  and  O_19
REMARK   12  A    between atoms: O_19  and  C_20
REMARK   13  A    between atoms: C_22  and  O_23
REMARK   14  A    between atoms: O_23  and  C_24
REMARK   15  A    between atoms: C_25  and  C_26
REMARK   16  A    between atoms: C_28  and  N_29
REMARK                            x       y       z     vdW  Elec       q    Type
REMARK                         _______ _______ _______ _____ _____    ______ ____
ROOT
ATOM      1  C   UNL     1      -1.944  12.571  19.689  0.00  0.00    +0.000 C 
ATOM      2  C   UNL     1      -1.429  11.810  18.699  0.00  0.00    +0.000 C 
ATOM      3  C   UNL     1       0.078  11.788  18.446  0.00  0.00    +0.000 C 
ATOM      4  C   UNL     1       0.781  12.975  19.086  0.00  0.00    +0.000 C 
ATOM      5  C   UNL     1       0.155  13.733  20.012  0.00  0.00    +0.000 C 
ATOM      6  O   UNL     1      -1.145  13.456  20.409  0.00  0.00    +0.000 OA
ENDROOT
BRANCH   3   7
ATOM      7  C   UNL     1       0.709  10.481  18.949  0.00  0.00    +0.000 A 
ATOM      8  C   UNL     1       1.362   9.668  17.985  0.00  0.00    +0.000 A 
ATOM      9  C   UNL     1       1.935   8.442  18.316  0.00  0.00    +0.000 A 
ATOM     10  C   UNL     1       1.892   7.985  19.624  0.00  0.00    +0.000 A 
ATOM     11  C   UNL     1       1.231   8.754  20.583  0.00  0.00    +0.000 A 
ATOM     12  C   UNL     1       0.629   9.986  20.261  0.00  0.00    +0.000 A 
BRANCH  10  13
ATOM     13  O   UNL     1       2.494   6.775  19.830  0.00  0.00    +0.000 OA
ATOM     14  C   UNL     1       2.809   6.020  18.668  0.00  0.00    +0.000 C 
ENDBRANCH  10  13
BRANCH  12  15
ATOM     15  O   UNL     1      -0.149  10.461  21.282  0.00  0.00    +0.000 OA
ATOM     16  C   UNL     1      -0.262   9.708  22.478  0.00  0.00    +0.000 C 
ENDBRANCH  12  15
ENDBRANCH   3   7
BRANCH   5  17
ATOM     17  N   UNL     1       0.705  14.798  20.687  0.00  0.00    +0.000 N 
ATOM     18  H   UNL     1       1.202  15.471  20.108  0.00  0.00    +0.000 HD
ATOM     19  H   UNL     1       1.237  14.507  21.503  0.00  0.00    +0.000 HD
ENDBRANCH   5  17
BRANCH   2  20
ATOM     20  C   UNL     1      -2.240  10.916  17.832  0.00  0.00    +0.000 C 
ATOM     21  O   UNL     1      -2.573   9.786  18.151  0.00  0.00    +0.000 OA
BRANCH  20  22
ATOM     22  O   UNL     1      -2.488  11.485  16.628  0.00  0.00    +0.000 OA
BRANCH  22  23
ATOM     23  C   UNL     1      -3.576  10.922  15.877  0.00  0.00    +0.000 C 
ATOM     24  C   UNL     1      -3.063  10.123  14.692  0.00  0.00    +0.000 C 
ENDBRANCH  22  23
ENDBRANCH  20  22
ENDBRANCH   2  20
BRANCH   4  25
ATOM     25  C   UNL     1       2.116  13.257  18.690  0.00  0.00    +0.000 C 
ATOM     26  N   UNL     1       3.199  13.512  18.361  0.00  0.00    +0.000 NA
ENDBRANCH   4  25
BRANCH   1  27
ATOM     27  C   UNL     1      -3.344  12.511  20.243  0.00  0.00    +0.000 C 
BRANCH  27  28
ATOM     28  C   UNL     1      -3.356  12.802  21.727  0.00  0.00    +0.000 C 
ATOM     29  O   UNL     1      -2.892  12.089  22.604  0.00  0.00    +0.000 OA
BRANCH  28  30
ATOM     30  O   UNL     1      -4.033  13.971  21.935  0.00  0.00    +0.000 OA
BRANCH  30  32
ATOM     31  C   UNL     1      -5.904  15.159  22.812  0.00  0.00    +0.000 C 
ATOM     32  C   UNL     1      -5.046  13.912  22.946  0.00  0.00    +0.000 C 
ENDBRANCH  30  32
ENDBRANCH  28  30
ENDBRANCH  27  28
ENDBRANCH   1  27
TORSDOF 12
ENDMDL
MODEL 7
REMARK VINA RESULT:      -6.4      6.173     11.073
REMARK  Name = 
REMARK  16 active torsions:
REMARK  status: ('A' for Active; 'I' for Inactive)
REMARK    1  A    between atoms: C_1  and  C_2
REMARK    2  A    between atoms: C_2  and  O_3
REMARK    3  A    between atoms: O_3  and  C_4
REMARK    4  A    between atoms: C_4  and  C_6
REMARK    5  A    between atoms: C_6  and  C_7
REMARK    6  A    between atoms: C_8  and  C_9
REMARK    7  A    between atoms: C_9  and  O_11
REMARK    8  A    between atoms: O_11  and  C_12
REMARK    9  A    between atoms: C_12  and  C_13
REMARK   10  A    between atoms: C_14  and  C_15
REMARK   11  A    between atoms: C_18  and  O_19
REMARK   12  A    between atoms: O_19  and  C_20
REMARK   13  A    between atoms: C_22  and  O_23
REMARK   14  A    between atoms: O_23  and  C_24
REMARK   15  A    between atoms: C_25  and  C_26
REMARK   16  A    between atoms: C_28  and  N_29
REMARK                            x       y       z     vdW  Elec       q    Type
REMARK                         _______ _______ _______ _____ _____    ______ ____
ROOT
ATOM      1  C   UNL     1      -3.108  12.843  21.222  0.00  0.00    +0.000 C 
ATOM      2  C   UNL     1      -1.986  12.093  21.255  0.00  0.00    +0.000 C 
ATOM      3  C   UNL     1      -1.451  11.445  19.978  0.00  0.00    +0.000 C 
ATOM      4  C   UNL     1      -2.508  11.382  18.885  0.00  0.00    +0.000 C 
ATOM      5  C   UNL     1      -3.641  12.109  18.976  0.00  0.00    +0.000 C 
ATOM      6  O   UNL     1      -3.882  12.934  20.066  0.00  0.00    +0.000 OA
ENDROOT
BRANCH   3   7
ATOM      7  C   UNL     1      -0.210  12.182  19.456  0.00  0.00    +0.000 A 
ATOM      8  C   UNL     1      -0.300  13.594  19.338  0.00  0.00    +0.000 A 
ATOM      9  C   UNL     1       0.748  14.365  18.838  0.00  0.00    +0.000 A 
ATOM     10  C   UNL     1       1.932  13.758  18.447  0.00  0.00    +0.000 A 
ATOM     11  C   UNL     1       2.033  12.369  18.527  0.00  0.00    +0.000 A 
ATOM     12  C   UNL     1       0.976  11.573  19.011  0.00  0.00    +0.000 A 
BRANCH  10  13
ATOM     13  O   UNL     1       2.889  14.615  17.982  0.00  0.00    +0.000 OA
ATOM     14  C   UNL     1       4.137  14.598  18.662  0.00  0.00    +0.000 C 
ENDBRANCH  10  13
BRANCH  12  15
ATOM     15  O   UNL     1       1.195  10.240  18.795  0.00  0.00    +0.000 OA
ATOM     16  C   UNL     1       2.192   9.839  17.871  0.00  0.00    +0.000 C 
ENDBRANCH  12  15
ENDBRANCH   3   7
BRANCH   5  17
ATOM     17  N   UNL     1      -4.641  12.166  18.032  0.00  0.00    +0.000 N 
ATOM     18  H   UNL     1      -4.646  11.404  17.358  0.00  0.00    +0.000 HD
ATOM     19  H   UNL     1      -4.711  13.082  17.597  0.00  0.00    +0.000 HD
ENDBRANCH   5  17
BRANCH   2  20
ATOM     20  C   UNL     1      -1.167  11.878  22.476  0.00  0.00    +0.000 C 
ATOM     21  O   UNL     1      -0.323  12.666  22.870  0.00  0.00    +0.000 OA
BRANCH  20  22
ATOM     22  O   UNL     1      -1.425  10.675  23.041  0.00  0.00    +0.000 OA
BRANCH  22  23
ATOM     23  C   UNL     1      -0.288   9.822  23.257  0.00  0.00    +0.000 C 
ATOM     24  C   UNL     1      -0.016   8.960  22.038  0.00  0.00    +0.000 C 
ENDBRANCH  22  23
ENDBRANCH  20  22
ENDBRANCH   2  20
BRANCH   4  25
ATOM     25  C   UNL     1      -2.262  10.547  17.763  0.00  0.00    +0.000 C 
ATOM     26  N   UNL     1      -2.053   9.846  16.863  0.00  0.00    +0.000 NA
ENDBRANCH   4  25
BRANCH   1  27
ATOM     27  C   UNL     1      -3.620  13.758  22.304  0.00  0.00    +0.000 C 
BRANCH  27  28
ATOM     28  C   UNL     1      -5.091  14.054  22.119  0.00  0.00    +0.000 C 
ATOM     29  O   UNL     1      -5.568  15.097  21.695  0.00  0.00    +0.000 OA
BRANCH  28  30
ATOM     30  O   UNL     1      -5.810  12.981  22.565  0.00  0.00    +0.000 OA
BRANCH  30  32
ATOM     31  C   UNL     1      -7.537  13.285  24.179  0.00  0.00    +0.000 C 
ATOM     32  C   UNL     1      -6.066  12.969  23.975  0.00  0.00    +0.000 C 
ENDBRANCH  30  32
ENDBRANCH  28  30
ENDBRANCH  27  28
ENDBRANCH   1  27
TORSDOF 12
ENDMDL
MODEL 8
REMARK VINA RESULT:      -6.4      6.267     10.996
REMARK  Name = 
REMARK  16 active torsions:
REMARK  status: ('A' for Active; 'I' for Inactive)
REMARK    1  A    between atoms: C_1  and  C_2
REMARK    2  A    between atoms: C_2  and  O_3
REMARK    3  A    between atoms: O_3  and  C_4
REMARK    4  A    between atoms: C_4  and  C_6
REMARK    5  A    between atoms: C_6  and  C_7
REMARK    6  A    between atoms: C_8  and  C_9
REMARK    7  A    between atoms: C_9  and  O_11
REMARK    8  A    between atoms: O_11  and  C_12
REMARK    9  A    between atoms: C_12  and  C_13
REMARK   10  A    between atoms: C_14  and  C_15
REMARK   11  A    between atoms: C_18  and  O_19
REMARK   12  A    between atoms: O_19  and  C_20
REMARK   13  A    between atoms: C_22  and  O_23
REMARK   14  A    between atoms: O_23  and  C_24
REMARK   15  A    between atoms: C_25  and  C_26
REMARK   16  A    between atoms: C_28  and  N_29
REMARK                            x       y       z     vdW  Elec       q    Type
REMARK                         _______ _______ _______ _____ _____    ______ ____
ROOT
ATOM      1  C   UNL     1      -2.966  12.890  21.266  0.00  0.00    +0.000 C 
ATOM      2  C   UNL     1      -1.795  12.220  21.325  0.00  0.00    +0.000 C 
ATOM      3  C   UNL     1      -1.214  11.566  20.072  0.00  0.00    +0.000 C 
ATOM      4  C   UNL     1      -2.261  11.392  18.982  0.00  0.00    +0.000 C 
ATOM      5  C   UNL     1      -3.442  12.042  19.048  0.00  0.00    +0.000 C 
ATOM      6  O   UNL     1      -3.741  12.886  20.108  0.00  0.00    +0.000 OA
ENDROOT
BRANCH   3   7
ATOM      7  C   UNL     1      -0.025  12.368  19.524  0.00  0.00    +0.000 A 
ATOM      8  C   UNL     1      -0.245  13.744  19.253  0.00  0.00    +0.000 A 
ATOM      9  C   UNL     1       0.746  14.563  18.715  0.00  0.00    +0.000 A 
ATOM     10  C   UNL     1       2.001  14.043  18.438  0.00  0.00    +0.000 A 
ATOM     11  C   UNL     1       2.233  12.686  18.669  0.00  0.00    +0.000 A 
ATOM     12  C   UNL     1       1.235  11.841  19.194  0.00  0.00    +0.000 A 
BRANCH  10  13
ATOM     13  O   UNL     1       2.893  14.940  17.922  0.00  0.00    +0.000 OA
ATOM     14  C   UNL     1       2.629  16.313  18.178  0.00  0.00    +0.000 C 
ENDBRANCH  10  13
BRANCH  12  15
ATOM     15  O   UNL     1       1.593  10.522  19.130  0.00  0.00    +0.000 OA
ATOM     16  C   UNL     1       1.898   9.943  17.873  0.00  0.00    +0.000 C 
ENDBRANCH  12  15
ENDBRANCH   3   7
BRANCH   5  17
ATOM     17  N   UNL     1      -4.441  11.996  18.103  0.00  0.00    +0.000 N 
ATOM     18  H   UNL     1      -4.527  12.826  17.520  0.00  0.00    +0.000 HD
ATOM     19  H   UNL     1      -5.329  11.691  18.492  0.00  0.00    +0.000 HD
ENDBRANCH   5  17
BRANCH   2  20
ATOM     20  C   UNL     1      -0.965  12.106  22.553  0.00  0.00    +0.000 C 
ATOM     21  O   UNL     1      -1.004  12.909  23.471  0.00  0.00    +0.000 OA
BRANCH  20  22
ATOM     22  O   UNL     1      -0.119  11.051  22.484  0.00  0.00    +0.000 OA
BRANCH  22  23
ATOM     23  C   UNL     1      -0.565   9.841  23.119  0.00  0.00    +0.000 C 
ATOM     24  C   UNL     1      -0.393   8.648  22.196  0.00  0.00    +0.000 C 
ENDBRANCH  22  23
ENDBRANCH  20  22
ENDBRANCH   2  20
BRANCH   4  25
ATOM     25  C   UNL     1      -1.955  10.537  17.890  0.00  0.00    +0.000 C 
ATOM     26  N   UNL     1      -1.680   9.843  17.002  0.00  0.00    +0.000 NA
ENDBRANCH   4  25
BRANCH   1  27
ATOM     27  C   UNL     1      -3.541  13.805  22.315  0.00  0.00    +0.000 C 
BRANCH  27  28
ATOM     28  C   UNL     1      -4.571  13.087  23.160  0.00  0.00    +0.000 C 
ATOM     29  O   UNL     1      -4.337  12.287  24.054  0.00  0.00    +0.000 OA
BRANCH  28  30
ATOM     30  O   UNL     1      -5.815  13.434  22.715  0.00  0.00    +0.000 OA
BRANCH  30  32
ATOM     31  C   UNL     1      -6.605  15.376  23.848  0.00  0.00    +0.000 C 
ATOM     32  C   UNL     1      -6.724  13.866  23.735  0.00  0.00    +0.000 C 
ENDBRANCH  30  32
ENDBRANCH  28  30
ENDBRANCH  27  28
ENDBRANCH   1  27
TORSDOF 12
ENDMDL
MODEL 9
REMARK VINA RESULT:      -6.3      4.935      9.776
REMARK  Name = 
REMARK  16 active torsions:
REMARK  status: ('A' for Active; 'I' for Inactive)
REMARK    1  A    between atoms: C_1  and  C_2
REMARK    2  A    between atoms: C_2  and  O_3
REMARK    3  A    between atoms: O_3  and  C_4
REMARK    4  A    between atoms: C_4  and  C_6
REMARK    5  A    between atoms: C_6  and  C_7
REMARK    6  A    between atoms: C_8  and  C_9
REMARK    7  A    between atoms: C_9  and  O_11
REMARK    8  A    between atoms: O_11  and  C_12
REMARK    9  A    between atoms: C_12  and  C_13
REMARK   10  A    between atoms: C_14  and  C_15
REMARK   11  A    between atoms: C_18  and  O_19
REMARK   12  A    between atoms: O_19  and  C_20
REMARK   13  A    between atoms: C_22  and  O_23
REMARK   14  A    between atoms: O_23  and  C_24
REMARK   15  A    between atoms: C_25  and  C_26
REMARK   16  A    between atoms: C_28  and  N_29
REMARK                            x       y       z     vdW  Elec       q    Type
REMARK                         _______ _______ _______ _____ _____    ______ ____
ROOT
ATOM      1  C   UNL     1      -1.433  12.339  20.458  0.00  0.00    +0.000 C 
ATOM      2  C   UNL     1      -1.123  11.734  19.292  0.00  0.00    +0.000 C 
ATOM      3  C   UNL     1       0.316  11.739  18.777  0.00  0.00    +0.000 C 
ATOM      4  C   UNL     1       1.160  12.809  19.453  0.00  0.00    +0.000 C 
ATOM      5  C   UNL     1       0.730  13.420  20.577  0.00  0.00    +0.000 C 
ATOM      6  O   UNL     1      -0.491  13.097  21.151  0.00  0.00    +0.000 OA
ENDROOT
BRANCH   3   7
ATOM      7  C   UNL     1       0.979  10.366  18.959  0.00  0.00    +0.000 A 
ATOM      8  C   UNL     1       1.554   9.769  17.807  0.00  0.00    +0.000 A 
ATOM      9  C   UNL     1       2.147   8.508  17.842  0.00  0.00    +0.000 A 
ATOM     10  C   UNL     1       2.200   7.798  19.032  0.00  0.00    +0.000 A 
ATOM     11  C   UNL     1       1.616   8.352  20.172  0.00  0.00    +0.000 A 
ATOM     12  C   UNL     1       0.995   9.617  20.148  0.00  0.00    +0.000 A 
BRANCH  10  13
ATOM     13  O   UNL     1       2.811   6.579  18.947  0.00  0.00    +0.000 OA
ATOM     14  C   UNL     1       2.302   5.556  19.792  0.00  0.00    +0.000 C 
ENDBRANCH  10  13
BRANCH  12  15
ATOM     15  O   UNL     1       0.297   9.869  21.298  0.00  0.00    +0.000 OA
ATOM     16  C   UNL     1      -0.375   8.806  21.952  0.00  0.00    +0.000 C 
ENDBRANCH  12  15
ENDBRANCH   3   7
BRANCH   5  17
ATOM     17  N   UNL     1       1.425  14.365  21.296  0.00  0.00    +0.000 N 
ATOM     18  H   UNL     1       0.880  14.872  21.991  0.00  0.00    +0.000 HD
ATOM     19  H   UNL     1       1.976  14.978  20.700  0.00  0.00    +0.000 HD
ENDBRANCH   5  17
BRANCH   2  20
ATOM     20  C   UNL     1      -2.102  10.990  18.457  0.00  0.00    +0.000 C 
ATOM     21  O   UNL     1      -2.133   9.773  18.376  0.00  0.00    +0.000 OA
BRANCH  20  22
ATOM     22  O   UNL     1      -2.892  11.832  17.749  0.00  0.00    +0.000 OA
BRANCH  22  23
ATOM     23  C   UNL     1      -3.908  11.216  16.941  0.00  0.00    +0.000 C 
ATOM     24  C   UNL     1      -5.228  11.953  17.074  0.00  0.00    +0.000 C 
ENDBRANCH  22  23
ENDBRANCH  20  22
ENDBRANCH   2  20
BRANCH   4  25
ATOM     25  C   UNL     1       2.415  13.137  18.875  0.00  0.00    +0.000 C 
ATOM     26  N   UNL     1       3.432  13.394  18.380  0.00  0.00    +0.000 NA
ENDBRANCH   4  25
BRANCH   1  27
ATOM     27  C   UNL     1      -2.717  12.206  21.236  0.00  0.00    +0.000 C 
BRANCH  27  28
ATOM     28  C   UNL     1      -2.456  12.202  22.725  0.00  0.00    +0.000 C 
ATOM     29  O   UNL     1      -1.810  11.365  23.340  0.00  0.00    +0.000 OA
BRANCH  28  30
ATOM     30  O   UNL     1      -3.118  13.257  23.285  0.00  0.00    +0.000 OA
BRANCH  30  32
ATOM     31  C   UNL     1      -4.738  12.402  24.809  0.00  0.00    +0.000 C 
ATOM     32  C   UNL     1      -4.527  13.065  23.459  0.00  0.00    +0.000 C 
ENDBRANCH  30  32
ENDBRANCH  28  30
ENDBRANCH  27  28
ENDBRANCH   1  27
TORSDOF 12
ENDMDL
