MODEL 1
REMARK VINA RESULT:      -7.6      0.000      0.000
REMARK  Name = 
REMARK  5 active torsions:
REMARK  status: ('A' for Active; 'I' for Inactive)
REMARK    1  A    between atoms: C_1  and  O_2
REMARK    2  A    between atoms: O_2  and  C_3
REMARK    3  A    between atoms: C_6  and  C_7
REMARK    4  A    between atoms: C_10  and  C_11
REMARK    5  A    between atoms: N_15  and  C_16
REMARK                            x       y       z     vdW  Elec       q    Type
REMARK                         _______ _______ _______ _____ _____    ______ ____
ROOT
ATOM      1  C   UNL     1       1.715   8.460  19.400  0.00  0.00    +0.000 A 
ATOM      2  N   UNL     1       1.762   8.825  18.108  0.00  0.00    +0.000 NA
ATOM      3  O   UNL     1       2.673   7.934  17.544  0.00  0.00    +0.000 OA
ATOM      4  C   UNL     1       3.097   7.122  18.552  0.00  0.00    +0.000 A 
ATOM      5  N   UNL     1       2.505   7.373  19.702  0.00  0.00    +0.000 NA
ENDROOT
BRANCH   1   9
ATOM      6  C   UNL     1      -0.560  10.504  22.392  0.00  0.00    +0.000 A 
ATOM      7  C   UNL     1       0.291   9.455  22.745  0.00  0.00    +0.000 A 
ATOM      8  C   UNL     1       1.057   8.804  21.774  0.00  0.00    +0.000 A 
ATOM      9  C   UNL     1       0.966   9.175  20.427  0.00  0.00    +0.000 A 
ATOM     10  C   UNL     1       0.098  10.221  20.079  0.00  0.00    +0.000 A 
ATOM     11  C   UNL     1      -0.660  10.881  21.054  0.00  0.00    +0.000 A 
BRANCH   6  13
ATOM     12  C   UNL     1      -2.244  12.022  23.062  0.00  0.00    +0.000 C 
ATOM     13  O   UNL     1      -1.273  11.046  23.424  0.00  0.00    +0.000 OA
ENDBRANCH   6  13
ENDBRANCH   1   9
BRANCH   4  14
ATOM     14  C   UNL     1       4.195   6.161  18.229  0.00  0.00    +0.000 C 
ATOM     15  C   UNL     1       4.356   5.910  16.732  0.00  0.00    +0.000 C 
ATOM     16  C   UNL     1       5.137   4.613  16.649  0.00  0.00    +0.000 C 
ATOM     17  C   UNL     1       4.998   3.960  18.016  0.00  0.00    +0.000 C 
ATOM     18  N   UNL     1       4.114   4.802  18.838  0.00  0.00    +0.000 NA
BRANCH  18  19
ATOM     19  C   UNL     1       2.761   4.240  19.083  0.00  0.00    +0.000 C 
ATOM     20  C   UNL     1       2.531   3.963  20.587  0.00  0.00    +0.000 C 
ATOM     21  C   UNL     1       1.200   3.270  20.853  0.00  0.00    +0.000 C 
ATOM     22  O   UNL     1       1.047   2.116  20.030  0.00  0.00    +0.000 OA
ATOM     23  C   UNL     1       1.026   2.460  18.650  0.00  0.00    +0.000 C 
ATOM     24  C   UNL     1       2.376   3.017  18.233  0.00  0.00    +0.000 C 
ENDBRANCH  18  19
ENDBRANCH   4  14
TORSDOF 4
ENDMDL
MODEL 2
REMARK VINA RESULT:      -7.6      0.268      1.013
REMARK  Name = 
REMARK  5 active torsions:
REMARK  status: ('A' for Active; 'I' for Inactive)
REMARK    1  A    between atoms: C_1  and  O_2
REMARK    2  A    between atoms: O_2  and  C_3
REMARK    3  A    between atoms: C_6  and  C_7
REMARK    4  A    between atoms: C_10  and  C_11
REMARK    5  A    between atoms: N_15  and  C_16
REMARK                            x       y       z     vdW  Elec       q    Type
REMARK                         _______ _______ _______ _____ _____    ______ ____
ROOT
ATOM      1  C   UNL     1       1.685   8.486  19.401  0.00  0.00    +0.000 A 
ATOM      2  N   UNL     1       1.755   8.875  18.117  0.00  0.00    +0.000 NA
ATOM      3  O   UNL     1       2.669   7.991  17.550  0.00  0.00    +0.000 OA
ATOM      4  C   UNL     1       3.073   7.157  18.549  0.00  0.00    +0.000 A 
ATOM      5  N   UNL     1       2.464   7.389  19.694  0.00  0.00    +0.000 NA
ENDROOT
BRANCH   1   9
ATOM      6  C   UNL     1      -0.468  10.578  22.449  0.00  0.00    +0.000 A 
ATOM      7  C   UNL     1      -0.441  11.066  21.142  0.00  0.00    +0.000 A 
ATOM      8  C   UNL     1       0.238  10.370  20.137  0.00  0.00    +0.000 A 
ATOM      9  C   UNL     1       0.924   9.185  20.430  0.00  0.00    +0.000 A 
ATOM     10  C   UNL     1       0.903   8.708  21.749  0.00  0.00    +0.000 A 
ATOM     11  C   UNL     1       0.213   9.400  22.753  0.00  0.00    +0.000 A 
BRANCH   6  13
ATOM     12  C   UNL     1      -1.307  12.723  22.981  0.00  0.00    +0.000 C 
ATOM     13  O   UNL     1      -1.144  11.357  23.346  0.00  0.00    +0.000 OA
ENDBRANCH   6  13
ENDBRANCH   1   9
BRANCH   4  14
ATOM     14  C   UNL     1       4.170   6.196  18.224  0.00  0.00    +0.000 C 
ATOM     15  C   UNL     1       4.324   5.938  16.727  0.00  0.00    +0.000 C 
ATOM     16  C   UNL     1       5.107   4.643  16.645  0.00  0.00    +0.000 C 
ATOM     17  C   UNL     1       4.976   3.995  18.016  0.00  0.00    +0.000 C 
ATOM     18  N   UNL     1       4.094   4.839  18.839  0.00  0.00    +0.000 NA
BRANCH  18  19
ATOM     19  C   UNL     1       2.744   4.276  19.093  0.00  0.00    +0.000 C 
ATOM     20  C   UNL     1       2.526   3.997  20.599  0.00  0.00    +0.000 C 
ATOM     21  C   UNL     1       1.197   3.303  20.873  0.00  0.00    +0.000 C 
ATOM     22  O   UNL     1       1.038   2.150  20.050  0.00  0.00    +0.000 OA
ATOM     23  C   UNL     1       1.006   2.497  18.670  0.00  0.00    +0.000 C 
ATOM     24  C   UNL     1       2.353   3.055  18.244  0.00  0.00    +0.000 C 
ENDBRANCH  18  19
ENDBRANCH   4  14
TORSDOF 4
ENDMDL
MODEL 3
REMARK VINA RESULT:      -7.3      0.911      1.387
REMARK  Name = 
REMARK  5 active torsions:
REMARK  status: ('A' for Active; 'I' for Inactive)
REMARK    1  A    between atoms: C_1  and  O_2
REMARK    2  A    between atoms: O_2  and  C_3
REMARK    3  A    between atoms: C_6  and  C_7
REMARK    4  A    between atoms: C_10  and  C_11
REMARK    5  A    between atoms: N_15  and  C_16
REMARK                            x       y       z     vdW  Elec       q    Type
REMARK                         _______ _______ _______ _____ _____    ______ ____
ROOT
ATOM      1  C   UNL     1       1.913   8.506  18.943  0.00  0.00    +0.000 A 
ATOM      2  N   UNL     1       1.777   8.920  17.672  0.00  0.00    +0.000 NA
ATOM      3  O   UNL     1       2.770   8.226  16.987  0.00  0.00    +0.000 OA
ATOM      4  C   UNL     1       3.420   7.464  17.911  0.00  0.00    +0.000 A 
ATOM      5  N   UNL     1       2.902   7.564  19.119  0.00  0.00    +0.000 NA
ENDROOT
BRANCH   1   9
ATOM      6  C   UNL     1      -0.245  10.104  22.273  0.00  0.00    +0.000 A 
ATOM      7  C   UNL     1      -0.188  10.804  21.067  0.00  0.00    +0.000 A 
ATOM      8  C   UNL     1       0.493  10.272  19.968  0.00  0.00    +0.000 A 
ATOM      9  C   UNL     1       1.150   9.039  20.065  0.00  0.00    +0.000 A 
ATOM     10  C   UNL     1       1.099   8.348  21.285  0.00  0.00    +0.000 A 
ATOM     11  C   UNL     1       0.407   8.877  22.383  0.00  0.00    +0.000 A 
BRANCH   6  13
ATOM     12  C   UNL     1      -1.624  11.916  22.910  0.00  0.00    +0.000 C 
ATOM     13  O   UNL     1      -0.918  10.737  23.281  0.00  0.00    +0.000 OA
ENDBRANCH   6  13
ENDBRANCH   1   9
BRANCH   4  14
ATOM     14  C   UNL     1       4.632   6.725  17.446  0.00  0.00    +0.000 C 
ATOM     15  C   UNL     1       4.720   6.603  15.927  0.00  0.00    +0.000 C 
ATOM     16  C   UNL     1       5.693   5.464  15.695  0.00  0.00    +0.000 C 
ATOM     17  C   UNL     1       5.764   4.708  17.013  0.00  0.00    +0.000 C 
ATOM     18  N   UNL     1       4.819   5.333  17.952  0.00  0.00    +0.000 NA
BRANCH  18  19
ATOM     19  C   UNL     1       3.598   4.538  18.237  0.00  0.00    +0.000 C 
ATOM     20  C   UNL     1       3.516   4.150  19.731  0.00  0.00    +0.000 C 
ATOM     21  C   UNL     1       2.339   3.227  20.027  0.00  0.00    +0.000 C 
ATOM     22  O   UNL     1       2.327   2.108  19.146  0.00  0.00    +0.000 OA
ATOM     23  C   UNL     1       2.159   2.513  17.793  0.00  0.00    +0.000 C 
ATOM     24  C   UNL     1       3.367   3.312  17.336  0.00  0.00    +0.000 C 
ENDBRANCH  18  19
ENDBRANCH   4  14
TORSDOF 4
ENDMDL
MODEL 4
REMARK VINA RESULT:      -7.0      2.517      4.165
REMARK  Name = 
REMARK  5 active torsions:
REMARK  status: ('A' for Active; 'I' for Inactive)
REMARK    1  A    between atoms: C_1  and  O_2
REMARK    2  A    between atoms: O_2  and  C_3
REMARK    3  A    between atoms: C_6  and  C_7
REMARK    4  A    between atoms: C_10  and  C_11
REMARK    5  A    between atoms: N_15  and  C_16
REMARK                            x       y       z     vdW  Elec       q    Type
REMARK                         _______ _______ _______ _____ _____    ______ ____
ROOT
ATOM      1  C   UNL     1       1.769   8.376  19.146  0.00  0.00    +0.000 A 
ATOM      2  N   UNL     1       1.898   7.677  20.286  0.00  0.00    +0.000 NA
ATOM      3  O   UNL     1       2.368   6.435  19.864  0.00  0.00    +0.000 OA
ATOM      4  C   UNL     1       2.469   6.499  18.507  0.00  0.00    +0.000 A 
ATOM      5  N   UNL     1       2.157   7.683  18.020  0.00  0.00    +0.000 NA
ENDROOT
BRANCH   1   9
ATOM      6  C   UNL     1       0.143  12.330  18.998  0.00  0.00    +0.000 A 
ATOM      7  C   UNL     1       1.361  12.044  18.381  0.00  0.00    +0.000 A 
ATOM      8  C   UNL     1       1.882  10.747  18.403  0.00  0.00    +0.000 A 
ATOM      9  C   UNL     1       1.203   9.717  19.066  0.00  0.00    +0.000 A 
ATOM     10  C   UNL     1      -0.015  10.016  19.695  0.00  0.00    +0.000 A 
ATOM     11  C   UNL     1      -0.542  11.313  19.663  0.00  0.00    +0.000 A 
BRANCH   6  13
ATOM     12  C   UNL     1       0.764  14.604  19.176  0.00  0.00    +0.000 C 
ATOM     13  O   UNL     1      -0.251  13.637  18.929  0.00  0.00    +0.000 OA
ENDBRANCH   6  13
ENDBRANCH   1   9
BRANCH   4  14
ATOM     14  C   UNL     1       2.821   5.233  17.796  0.00  0.00    +0.000 C 
ATOM     15  C   UNL     1       2.675   3.989  18.669  0.00  0.00    +0.000 C 
ATOM     16  C   UNL     1       3.504   2.934  17.963  0.00  0.00    +0.000 C 
ATOM     17  C   UNL     1       4.423   3.694  17.019  0.00  0.00    +0.000 C 
ATOM     18  N   UNL     1       4.193   5.134  17.217  0.00  0.00    +0.000 NA
BRANCH  18  19
ATOM     19  C   UNL     1       5.286   5.854  17.918  0.00  0.00    +0.000 C 
ATOM     20  C   UNL     1       6.000   6.850  16.974  0.00  0.00    +0.000 C 
ATOM     21  C   UNL     1       7.206   7.510  17.632  0.00  0.00    +0.000 C 
ATOM     22  O   UNL     1       8.079   6.538  18.201  0.00  0.00    +0.000 OA
ATOM     23  C   UNL     1       7.436   5.807  19.238  0.00  0.00    +0.000 C 
ATOM     24  C   UNL     1       6.305   4.973  18.661  0.00  0.00    +0.000 C 
ENDBRANCH  18  19
ENDBRANCH   4  14
TORSDOF 4
ENDMDL
MODEL 5
REMARK VINA RESULT:      -7.0      2.385      3.999
REMARK  Name = 
REMARK  5 active torsions:
REMARK  status: ('A' for Active; 'I' for Inactive)
REMARK    1  A    between atoms: C_1  and  O_2
REMARK    2  A    between atoms: O_2  and  C_3
REMARK    3  A    between atoms: C_6  and  C_7
REMARK    4  A    between atoms: C_10  and  C_11
REMARK    5  A    between atoms: N_15  and  C_16
REMARK                            x       y       z     vdW  Elec       q    Type
REMARK                         _______ _______ _______ _____ _____    ______ ____
ROOT
ATOM      1  C   UNL     1       1.749   8.113  19.397  0.00  0.00    +0.000 A 
ATOM      2  N   UNL     1       1.913   7.322  20.471  0.00  0.00    +0.000 NA
ATOM      3  O   UNL     1       2.430   6.143  19.941  0.00  0.00    +0.000 OA
ATOM      4  C   UNL     1       2.521   6.330  18.594  0.00  0.00    +0.000 A 
ATOM      5  N   UNL     1       2.159   7.539  18.215  0.00  0.00    +0.000 NA
ENDROOT
BRANCH   1   9
ATOM      6  C   UNL     1      -0.129  11.956  19.444  0.00  0.00    +0.000 A 
ATOM      7  C   UNL     1      -0.507  10.975  20.361  0.00  0.00    +0.000 A 
ATOM      8  C   UNL     1       0.124   9.727  20.367  0.00  0.00    +0.000 A 
ATOM      9  C   UNL     1       1.129   9.432  19.437  0.00  0.00    +0.000 A 
ATOM     10  C   UNL     1       1.493  10.420  18.510  0.00  0.00    +0.000 A 
ATOM     11  C   UNL     1       0.868  11.674  18.512  0.00  0.00    +0.000 A 
BRANCH   6  13
ATOM     12  C   UNL     1      -0.156  14.289  19.062  0.00  0.00    +0.000 C 
ATOM     13  O   UNL     1      -0.834  13.125  19.521  0.00  0.00    +0.000 OA
ENDBRANCH   6  13
ENDBRANCH   1   9
BRANCH   4  14
ATOM     14  C   UNL     1       2.920   5.147  17.773  0.00  0.00    +0.000 C 
ATOM     15  C   UNL     1       2.854   3.829  18.541  0.00  0.00    +0.000 C 
ATOM     16  C   UNL     1       3.719   2.880  17.735  0.00  0.00    +0.000 C 
ATOM     17  C   UNL     1       4.580   3.762  16.843  0.00  0.00    +0.000 C 
ATOM     18  N   UNL     1       4.283   5.167  17.166  0.00  0.00    +0.000 NA
BRANCH  18  19
ATOM     19  C   UNL     1       5.354   5.881  17.906  0.00  0.00    +0.000 C 
ATOM     20  C   UNL     1       6.081   6.900  16.999  0.00  0.00    +0.000 C 
ATOM     21  C   UNL     1       7.266   7.556  17.698  0.00  0.00    +0.000 C 
ATOM     22  O   UNL     1       8.133   6.580  18.268  0.00  0.00    +0.000 OA
ATOM     23  C   UNL     1       7.472   5.822  19.275  0.00  0.00    +0.000 C 
ATOM     24  C   UNL     1       6.362   4.992  18.654  0.00  0.00    +0.000 C 
ENDBRANCH  18  19
ENDBRANCH   4  14
TORSDOF 4
ENDMDL
MODEL 6
REMARK VINA RESULT:      -6.9      4.975      7.044
REMARK  Name = 
REMARK  5 active torsions:
REMARK  status: ('A' for Active; 'I' for Inactive)
REMARK    1  A    between atoms: C_1  and  O_2
REMARK    2  A    between atoms: O_2  and  C_3
REMARK    3  A    between atoms: C_6  and  C_7
REMARK    4  A    between atoms: C_10  and  C_11
REMARK    5  A    between atoms: N_15  and  C_16
REMARK                            x       y       z     vdW  Elec       q    Type
REMARK                         _______ _______ _______ _____ _____    ______ ____
ROOT
ATOM      1  C   UNL     1       8.259   8.137  18.234  0.00  0.00    +0.000 A 
ATOM      2  N   UNL     1       8.539   7.251  19.205  0.00  0.00    +0.000 NA
ATOM      3  O   UNL     1       8.020   6.052  18.722  0.00  0.00    +0.000 OA
ATOM      4  C   UNL     1       7.466   6.329  17.508  0.00  0.00    +0.000 A 
ATOM      5  N   UNL     1       7.627   7.585  17.142  0.00  0.00    +0.000 NA
ENDROOT
BRANCH   1   9
ATOM      6  C   UNL     1       9.103  12.325  18.463  0.00  0.00    +0.000 A 
ATOM      7  C   UNL     1       8.217  11.834  17.503  0.00  0.00    +0.000 A 
ATOM      8  C   UNL     1       7.917  10.470  17.442  0.00  0.00    +0.000 A 
ATOM      9  C   UNL     1       8.519   9.568  18.329  0.00  0.00    +0.000 A 
ATOM     10  C   UNL     1       9.419  10.067  19.283  0.00  0.00    +0.000 A 
ATOM     11  C   UNL     1       9.710  11.436  19.350  0.00  0.00    +0.000 A 
BRANCH   6  13
ATOM     12  C   UNL     1      10.693  14.060  18.245  0.00  0.00    +0.000 C 
ATOM     13  O   UNL     1       9.334  13.670  18.407  0.00  0.00    +0.000 OA
ENDBRANCH   6  13
ENDBRANCH   1   9
BRANCH   4  14
ATOM     14  C   UNL     1       6.712   5.225  16.842  0.00  0.00    +0.000 C 
ATOM     15  C   UNL     1       6.431   5.490  15.365  0.00  0.00    +0.000 C 
ATOM     16  C   UNL     1       5.299   4.543  15.020  0.00  0.00    +0.000 C 
ATOM     17  C   UNL     1       4.690   4.127  16.351  0.00  0.00    +0.000 C 
ATOM     18  N   UNL     1       5.388   4.856  17.422  0.00  0.00    +0.000 NA
BRANCH  18  19
ATOM     19  C   UNL     1       4.597   5.935  18.066  0.00  0.00    +0.000 C 
ATOM     20  C   UNL     1       3.567   5.357  19.065  0.00  0.00    +0.000 C 
ATOM     21  C   UNL     1       2.656   6.433  19.646  0.00  0.00    +0.000 C 
ATOM     22  O   UNL     1       2.071   7.224  18.616  0.00  0.00    +0.000 OA
ATOM     23  C   UNL     1       3.060   7.927  17.874  0.00  0.00    +0.000 C 
ATOM     24  C   UNL     1       3.934   6.944  17.114  0.00  0.00    +0.000 C 
ENDBRANCH  18  19
ENDBRANCH   4  14
TORSDOF 4
ENDMDL
MODEL 7
REMARK VINA RESULT:      -6.9      2.149      3.694
REMARK  Name = 
REMARK  5 active torsions:
REMARK  status: ('A' for Active; 'I' for Inactive)
REMARK    1  A    between atoms: C_1  and  O_2
REMARK    2  A    between atoms: O_2  and  C_3
REMARK    3  A    between atoms: C_6  and  C_7
REMARK    4  A    between atoms: C_10  and  C_11
REMARK    5  A    between atoms: N_15  and  C_16
REMARK                            x       y       z     vdW  Elec       q    Type
REMARK                         _______ _______ _______ _____ _____    ______ ____
ROOT
ATOM      1  C   UNL     1       1.824   7.338  20.160  0.00  0.00    +0.000 A 
ATOM      2  N   UNL     1       1.856   6.215  20.897  0.00  0.00    +0.000 NA
ATOM      3  O   UNL     1       2.390   5.263  20.032  0.00  0.00    +0.000 OA
ATOM      4  C   UNL     1       2.620   5.899  18.849  0.00  0.00    +0.000 A 
ATOM      5  N   UNL     1       2.333   7.185  18.889  0.00  0.00    +0.000 NA
ENDROOT
BRANCH   1   9
ATOM      6  C   UNL     1       0.030  11.001  21.449  0.00  0.00    +0.000 A 
ATOM      7  C   UNL     1       0.304   9.988  22.368  0.00  0.00    +0.000 A 
ATOM      8  C   UNL     1       0.916   8.801  21.955  0.00  0.00    +0.000 A 
ATOM      9  C   UNL     1       1.242   8.597  20.608  0.00  0.00    +0.000 A 
ATOM     10  C   UNL     1       0.950   9.615  19.688  0.00  0.00    +0.000 A 
ATOM     11  C   UNL     1       0.348  10.810  20.105  0.00  0.00    +0.000 A 
BRANCH   6  13
ATOM     12  C   UNL     1       0.008  13.356  21.655  0.00  0.00    +0.000 C 
ATOM     13  O   UNL     1      -0.590  12.103  21.967  0.00  0.00    +0.000 OA
ENDBRANCH   6  13
ENDBRANCH   1   9
BRANCH   4  14
ATOM     14  C   UNL     1       3.065   5.052  17.702  0.00  0.00    +0.000 C 
ATOM     15  C   UNL     1       3.199   3.573  18.059  0.00  0.00    +0.000 C 
ATOM     16  C   UNL     1       4.082   3.000  16.969  0.00  0.00    +0.000 C 
ATOM     17  C   UNL     1       4.770   4.195  16.325  0.00  0.00    +0.000 C 
ATOM     18  N   UNL     1       4.361   5.406  17.054  0.00  0.00    +0.000 NA
BRANCH  18  19
ATOM     19  C   UNL     1       5.414   6.008  17.911  0.00  0.00    +0.000 C 
ATOM     20  C   UNL     1       6.349   6.928  17.090  0.00  0.00    +0.000 C 
ATOM     21  C   UNL     1       7.513   7.459  17.919  0.00  0.00    +0.000 C 
ATOM     22  O   UNL     1       8.195   6.401  18.586  0.00  0.00    +0.000 OA
ATOM     23  C   UNL     1       7.344   5.736  19.513  0.00  0.00    +0.000 C 
ATOM     24  C   UNL     1       6.226   5.025  18.771  0.00  0.00    +0.000 C 
ENDBRANCH  18  19
ENDBRANCH   4  14
TORSDOF 4
ENDMDL
MODEL 8
REMARK VINA RESULT:      -6.8      1.897      3.487
REMARK  Name = 
REMARK  5 active torsions:
REMARK  status: ('A' for Active; 'I' for Inactive)
REMARK    1  A    between atoms: C_1  and  O_2
REMARK    2  A    between atoms: O_2  and  C_3
REMARK    3  A    between atoms: C_6  and  C_7
REMARK    4  A    between atoms: C_10  and  C_11
REMARK    5  A    between atoms: N_15  and  C_16
REMARK                            x       y       z     vdW  Elec       q    Type
REMARK                         _______ _______ _______ _____ _____    ______ ____
ROOT
ATOM      1  C   UNL     1       1.967   8.075  19.057  0.00  0.00    +0.000 A 
ATOM      2  N   UNL     1       2.658   8.590  18.026  0.00  0.00    +0.000 NA
ATOM      3  O   UNL     1       3.104   7.469  17.330  0.00  0.00    +0.000 OA
ATOM      4  C   UNL     1       2.647   6.382  18.013  0.00  0.00    +0.000 A 
ATOM      5  N   UNL     1       1.905   6.700  19.054  0.00  0.00    +0.000 NA
ENDROOT
BRANCH   1   9
ATOM      6  C   UNL     1       0.183  10.371  22.195  0.00  0.00    +0.000 A 
ATOM      7  C   UNL     1       0.769   9.135  22.470  0.00  0.00    +0.000 A 
ATOM      8  C   UNL     1       1.378   8.395  21.452  0.00  0.00    +0.000 A 
ATOM      9  C   UNL     1       1.388   8.869  20.134  0.00  0.00    +0.000 A 
ATOM     10  C   UNL     1       0.785  10.106  19.864  0.00  0.00    +0.000 A 
ATOM     11  C   UNL     1       0.185  10.853  20.886  0.00  0.00    +0.000 A 
BRANCH   6  13
ATOM     12  C   UNL     1      -1.686  11.553  23.032  0.00  0.00    +0.000 C 
ATOM     13  O   UNL     1      -0.400  10.989  23.266  0.00  0.00    +0.000 OA
ENDBRANCH   6  13
ENDBRANCH   1   9
BRANCH   4  14
ATOM     14  C   UNL     1       3.114   5.043  17.542  0.00  0.00    +0.000 C 
ATOM     15  C   UNL     1       2.838   3.921  18.539  0.00  0.00    +0.000 C 
ATOM     16  C   UNL     1       3.774   2.805  18.119  0.00  0.00    +0.000 C 
ATOM     17  C   UNL     1       4.827   3.458  17.237  0.00  0.00    +0.000 C 
ATOM     18  N   UNL     1       4.561   4.906  17.203  0.00  0.00    +0.000 NA
BRANCH  18  19
ATOM     19  C   UNL     1       5.526   5.739  17.963  0.00  0.00    +0.000 C 
ATOM     20  C   UNL     1       6.339   6.658  17.022  0.00  0.00    +0.000 C 
ATOM     21  C   UNL     1       7.423   7.433  17.762  0.00  0.00    +0.000 C 
ATOM     22  O   UNL     1       8.232   6.563  18.549  0.00  0.00    +0.000 OA
ATOM     23  C   UNL     1       7.469   5.919  19.563  0.00  0.00    +0.000 C 
ATOM     24  C   UNL     1       6.452   4.984  18.931  0.00  0.00    +0.000 C 
ENDBRANCH  18  19
ENDBRANCH   4  14
TORSDOF 4
ENDMDL
MODEL 9
REMARK VINA RESULT:      -6.8      2.125      3.771
REMARK  Name = 
REMARK  5 active torsions:
REMARK  status: ('A' for Active; 'I' for Inactive)
REMARK    1  A    between atoms: C_1  and  O_2
REMARK    2  A    between atoms: O_2  and  C_3
REMARK    3  A    between atoms: C_6  and  C_7
REMARK    4  A    between atoms: C_10  and  C_11
REMARK    5  A    between atoms: N_15  and  C_16
REMARK                            x       y       z     vdW  Elec       q    Type
REMARK                         _______ _______ _______ _____ _____    ______ ____
ROOT
ATOM      1  C   UNL     1       1.794   7.483  20.119  0.00  0.00    +0.000 A 
ATOM      2  N   UNL     1       1.957   6.425  20.932  0.00  0.00    +0.000 NA
ATOM      3  O   UNL     1       2.498   5.448  20.101  0.00  0.00    +0.000 OA
ATOM      4  C   UNL     1       2.601   6.005  18.861  0.00  0.00    +0.000 A 
ATOM      5  N   UNL     1       2.226   7.268  18.830  0.00  0.00    +0.000 NA
ENDROOT
BRANCH   1   9
ATOM      6  C   UNL     1      -0.001  11.176  21.322  0.00  0.00    +0.000 A 
ATOM      7  C   UNL     1       0.437  10.998  20.009  0.00  0.00    +0.000 A 
ATOM      8  C   UNL     1       0.998   9.783  19.605  0.00  0.00    +0.000 A 
ATOM      9  C   UNL     1       1.154   8.732  20.517  0.00  0.00    +0.000 A 
ATOM     10  C   UNL     1       0.724   8.923  21.838  0.00  0.00    +0.000 A 
ATOM     11  C   UNL     1       0.151  10.137  22.240  0.00  0.00    +0.000 A 
BRANCH   6  13
ATOM     12  C   UNL     1      -1.929  12.513  21.611  0.00  0.00    +0.000 C 
ATOM     13  O   UNL     1      -0.509  12.413  21.603  0.00  0.00    +0.000 OA
ENDBRANCH   6  13
ENDBRANCH   1   9
BRANCH   4  14
ATOM     14  C   UNL     1       3.028   5.104  17.749  0.00  0.00    +0.000 C 
ATOM     15  C   UNL     1       3.124   3.637  18.163  0.00  0.00    +0.000 C 
ATOM     16  C   UNL     1       3.996   3.001  17.098  0.00  0.00    +0.000 C 
ATOM     17  C   UNL     1       4.714   4.153  16.411  0.00  0.00    +0.000 C 
ATOM     18  N   UNL     1       4.334   5.401  17.092  0.00  0.00    +0.000 NA
BRANCH  18  19
ATOM     19  C   UNL     1       5.400   6.009  17.928  0.00  0.00    +0.000 C 
ATOM     20  C   UNL     1       6.309   6.939  17.092  0.00  0.00    +0.000 C 
ATOM     21  C   UNL     1       7.485   7.478  17.898  0.00  0.00    +0.000 C 
ATOM     22  O   UNL     1       8.191   6.424  18.547  0.00  0.00    +0.000 OA
ATOM     23  C   UNL     1       7.365   5.749  19.489  0.00  0.00    +0.000 C 
ATOM     24  C   UNL     1       6.237   5.031  18.768  0.00  0.00    +0.000 C 
ENDBRANCH  18  19
ENDBRANCH   4  14
TORSDOF 4
ENDMDL
