MODEL 1
REMARK VINA RESULT:      -9.3      0.000      0.000
REMARK  Name = 
REMARK  4 active torsions:
REMARK  status: ('A' for Active; 'I' for Inactive)
REMARK    1  A    between atoms: C_1  and  C_2
REMARK    2  A    between atoms: C_4  and  C_5
REMARK    3  A    between atoms: N_8  and  C_9
REMARK    4  A    between atoms: N_17  and  C_18
REMARK                            x       y       z     vdW  Elec       q    Type
REMARK                         _______ _______ _______ _____ _____    ______ ____
ROOT
ATOM      1  C   UNL     1       6.761   5.924  16.779  0.00  0.00    +0.000 A 
ATOM      2  N   UNL     1       5.680   5.378  17.332  0.00  0.00    +0.000 NA
ATOM      3  C   UNL     1       5.085   4.459  16.590  0.00  0.00    +0.000 A 
ATOM      4  N   UNL     1       3.969   3.809  17.096  0.00  0.00    +0.000 N 
ATOM      5  N   UNL     1       5.483   4.100  15.375  0.00  0.00    +0.000 NA
ATOM      6  C   UNL     1       6.555   4.724  14.902  0.00  0.00    +0.000 A 
ATOM      7  N   UNL     1       7.014   4.451  13.612  0.00  0.00    +0.000 N 
ATOM      8  N   UNL     1       7.247   5.627  15.574  0.00  0.00    +0.000 NA
ATOM      9  H   UNL     1       3.784   2.938  16.617  0.00  0.00    +0.000 HD
ATOM     10  H   UNL     1       7.812   5.050  13.432  0.00  0.00    +0.000 HD
ENDROOT
BRANCH   1  14
ATOM     11  C   UNL     1       8.920  10.086  18.756  0.00  0.00    +0.000 C 
ATOM     12  C   UNL     1       8.403   8.759  18.377  0.00  0.00    +0.000 A 
ATOM     13  C   UNL     1       7.663   8.284  17.325  0.00  0.00    +0.000 A 
ATOM     14  C   UNL     1       7.490   6.897  17.595  0.00  0.00    +0.000 A 
ATOM     15  N   UNL     1       8.102   6.571  18.748  0.00  0.00    +0.000 NA
ATOM     16  O   UNL     1       8.677   7.735  19.225  0.00  0.00    +0.000 OA
ENDBRANCH   1  14
BRANCH   4  17
ATOM     17  C   UNL     1       3.151   4.240  18.172  0.00  0.00    +0.000 C 
ATOM     18  C   UNL     1       1.662   4.341  17.777  0.00  0.00    +0.000 C 
ATOM     19  C   UNL     1       1.315   3.630  19.101  0.00  0.00    +0.000 C 
ATOM     20  F   UNL     1       0.344   2.690  19.025  0.00  0.00    +0.000 F 
ATOM     21  F   UNL     1       0.989   4.445  20.130  0.00  0.00    +0.000 F 
ATOM     22  C   UNL     1       2.762   3.091  19.121  0.00  0.00    +0.000 C 
ENDBRANCH   4  17
BRANCH   7  23
ATOM     23  C   UNL     1       6.195   4.076  12.510  0.00  0.00    +0.000 C 
ATOM     24  C   UNL     1       6.847   3.068  11.528  0.00  0.00    +0.000 C 
ATOM     25  C   UNL     1       5.496   2.306  11.505  0.00  0.00    +0.000 C 
ATOM     26  F   UNL     1       5.581   0.962  11.489  0.00  0.00    +0.000 F 
ATOM     27  F   UNL     1       4.650   2.664  10.515  0.00  0.00    +0.000 F 
ATOM     28  C   UNL     1       5.202   2.950  12.883  0.00  0.00    +0.000 C 
ENDBRANCH   7  23
TORSDOF 3
ENDMDL
MODEL 2
REMARK VINA RESULT:      -9.3      1.381      1.690
REMARK  Name = 
REMARK  4 active torsions:
REMARK  status: ('A' for Active; 'I' for Inactive)
REMARK    1  A    between atoms: C_1  and  C_2
REMARK    2  A    between atoms: C_4  and  C_5
REMARK    3  A    between atoms: N_8  and  C_9
REMARK    4  A    between atoms: N_17  and  C_18
REMARK                            x       y       z     vdW  Elec       q    Type
REMARK                         _______ _______ _______ _____ _____    ______ ____
ROOT
ATOM      1  C   UNL     1       6.955   6.277  17.120  0.00  0.00    +0.000 A 
ATOM      2  N   UNL     1       6.225   5.591  17.996  0.00  0.00    +0.000 NA
ATOM      3  C   UNL     1       5.853   4.390  17.585  0.00  0.00    +0.000 A 
ATOM      4  N   UNL     1       5.117   3.585  18.442  0.00  0.00    +0.000 N 
ATOM      5  N   UNL     1       6.138   3.883  16.391  0.00  0.00    +0.000 NA
ATOM      6  C   UNL     1       6.847   4.658  15.579  0.00  0.00    +0.000 A 
ATOM      7  N   UNL     1       7.147   4.230  14.285  0.00  0.00    +0.000 N 
ATOM      8  N   UNL     1       7.303   5.855  15.904  0.00  0.00    +0.000 NA
ATOM      9  H   UNL     1       5.154   2.610  18.177  0.00  0.00    +0.000 HD
ATOM     10  H   UNL     1       7.659   4.973  13.822  0.00  0.00    +0.000 HD
ENDROOT
BRANCH   1  14
ATOM     11  C   UNL     1       9.401  10.137  19.359  0.00  0.00    +0.000 C 
ATOM     12  C   UNL     1       8.557   9.200  18.595  0.00  0.00    +0.000 A 
ATOM     13  C   UNL     1       8.447   7.833  18.544  0.00  0.00    +0.000 A 
ATOM     14  C   UNL     1       7.446   7.583  17.563  0.00  0.00    +0.000 A 
ATOM     15  N   UNL     1       6.987   8.746  17.064  0.00  0.00    +0.000 NA
ATOM     16  O   UNL     1       7.678   9.749  17.720  0.00  0.00    +0.000 OA
ENDBRANCH   1  14
BRANCH   4  17
ATOM     17  C   UNL     1       4.395   4.006  19.589  0.00  0.00    +0.000 C 
ATOM     18  C   UNL     1       3.061   4.692  19.227  0.00  0.00    +0.000 C 
ATOM     19  C   UNL     1       2.387   3.855  20.333  0.00  0.00    +0.000 C 
ATOM     20  F   UNL     1       1.173   3.343  20.025  0.00  0.00    +0.000 F 
ATOM     21  F   UNL     1       2.259   4.470  21.530  0.00  0.00    +0.000 F 
ATOM     22  C   UNL     1       3.572   2.869  20.223  0.00  0.00    +0.000 C 
ENDBRANCH   4  17
BRANCH   7  23
ATOM     23  C   UNL     1       6.326   3.385  13.487  0.00  0.00    +0.000 C 
ATOM     24  C   UNL     1       4.883   3.905  13.260  0.00  0.00    +0.000 C 
ATOM     25  C   UNL     1       5.029   3.491  11.773  0.00  0.00    +0.000 C 
ATOM     26  F   UNL     1       4.487   4.333  10.872  0.00  0.00    +0.000 F 
ATOM     27  F   UNL     1       4.589   2.250  11.474  0.00  0.00    +0.000 F 
ATOM     28  C   UNL     1       6.561   3.610  11.974  0.00  0.00    +0.000 C 
ENDBRANCH   7  23
TORSDOF 3
ENDMDL
MODEL 3
REMARK VINA RESULT:      -9.0      0.961      1.308
REMARK  Name = 
REMARK  4 active torsions:
REMARK  status: ('A' for Active; 'I' for Inactive)
REMARK    1  A    between atoms: C_1  and  C_2
REMARK    2  A    between atoms: C_4  and  C_5
REMARK    3  A    between atoms: N_8  and  C_9
REMARK    4  A    between atoms: N_17  and  C_18
REMARK                            x       y       z     vdW  Elec       q    Type
REMARK                         _______ _______ _______ _____ _____    ______ ____
ROOT
ATOM      1  C   UNL     1       6.741   5.594  17.151  0.00  0.00    +0.000 A 
ATOM      2  N   UNL     1       5.828   5.027  17.937  0.00  0.00    +0.000 NA
ATOM      3  C   UNL     1       5.264   3.941  17.435  0.00  0.00    +0.000 A 
ATOM      4  N   UNL     1       4.324   3.261  18.194  0.00  0.00    +0.000 N 
ATOM      5  N   UNL     1       5.535   3.441  16.235  0.00  0.00    +0.000 NA
ATOM      6  C   UNL     1       6.440   4.095  15.517  0.00  0.00    +0.000 A 
ATOM      7  N   UNL     1       6.749   3.673  14.223  0.00  0.00    +0.000 N 
ATOM      8  N   UNL     1       7.092   5.164  15.939  0.00  0.00    +0.000 NA
ATOM      9  H   UNL     1       4.192   2.310  17.877  0.00  0.00    +0.000 HD
ATOM     10  H   UNL     1       7.429   4.320  13.838  0.00  0.00    +0.000 HD
ENDROOT
BRANCH   1  14
ATOM     11  C   UNL     1       8.634  10.216  18.124  0.00  0.00    +0.000 C 
ATOM     12  C   UNL     1       8.225   8.802  18.040  0.00  0.00    +0.000 A 
ATOM     13  C   UNL     1       7.438   8.082  17.178  0.00  0.00    +0.000 A 
ATOM     14  C   UNL     1       7.441   6.757  17.699  0.00  0.00    +0.000 A 
ATOM     15  N   UNL     1       8.197   6.700  18.811  0.00  0.00    +0.000 NA
ATOM     16  O   UNL     1       8.689   7.977  19.012  0.00  0.00    +0.000 OA
ENDBRANCH   1  14
BRANCH   4  17
ATOM     17  C   UNL     1       3.613   3.765  19.313  0.00  0.00    +0.000 C 
ATOM     18  C   UNL     1       2.279   4.431  18.912  0.00  0.00    +0.000 C 
ATOM     19  C   UNL     1       1.609   3.677  20.080  0.00  0.00    +0.000 C 
ATOM     20  F   UNL     1       0.391   3.150  19.816  0.00  0.00    +0.000 F 
ATOM     21  F   UNL     1       1.492   4.376  21.231  0.00  0.00    +0.000 F 
ATOM     22  C   UNL     1       2.788   2.681  20.032  0.00  0.00    +0.000 C 
ENDBRANCH   4  17
BRANCH   7  23
ATOM     23  C   UNL     1       5.844   3.041  13.326  0.00  0.00    +0.000 C 
ATOM     24  C   UNL     1       4.555   3.849  13.024  0.00  0.00    +0.000 C 
ATOM     25  C   UNL     1       4.734   3.470  11.532  0.00  0.00    +0.000 C 
ATOM     26  F   UNL     1       4.444   4.436  10.641  0.00  0.00    +0.000 F 
ATOM     27  F   UNL     1       4.082   2.355  11.138  0.00  0.00    +0.000 F 
ATOM     28  C   UNL     1       6.238   3.270  11.848  0.00  0.00    +0.000 C 
ENDBRANCH   7  23
TORSDOF 3
ENDMDL
MODEL 4
REMARK VINA RESULT:      -9.0      2.770      3.804
REMARK  Name = 
REMARK  4 active torsions:
REMARK  status: ('A' for Active; 'I' for Inactive)
REMARK    1  A    between atoms: C_1  and  C_2
REMARK    2  A    between atoms: C_4  and  C_5
REMARK    3  A    between atoms: N_8  and  C_9
REMARK    4  A    between atoms: N_17  and  C_18
REMARK                            x       y       z     vdW  Elec       q    Type
REMARK                         _______ _______ _______ _____ _____    ______ ____
ROOT
ATOM      1  C   UNL     1       3.751   6.338  17.788  0.00  0.00    +0.000 A 
ATOM      2  N   UNL     1       3.681   5.274  18.584  0.00  0.00    +0.000 NA
ATOM      3  C   UNL     1       4.520   4.299  18.277  0.00  0.00    +0.000 A 
ATOM      4  N   UNL     1       4.546   3.161  19.070  0.00  0.00    +0.000 N 
ATOM      5  N   UNL     1       5.360   4.326  17.249  0.00  0.00    +0.000 NA
ATOM      6  C   UNL     1       5.333   5.420  16.499  0.00  0.00    +0.000 A 
ATOM      7  N   UNL     1       6.141   5.516  15.365  0.00  0.00    +0.000 N 
ATOM      8  N   UNL     1       4.564   6.468  16.739  0.00  0.00    +0.000 NA
ATOM      9  H   UNL     1       5.401   2.635  18.957  0.00  0.00    +0.000 HD
ATOM     10  H   UNL     1       5.947   6.405  14.917  0.00  0.00    +0.000 HD
ENDROOT
BRANCH   1  14
ATOM     11  C   UNL     1       0.627   9.660  20.047  0.00  0.00    +0.000 C 
ATOM     12  C   UNL     1       1.518   8.853  19.193  0.00  0.00    +0.000 A 
ATOM     13  C   UNL     1       2.158   7.649  19.344  0.00  0.00    +0.000 A 
ATOM     14  C   UNL     1       2.888   7.469  18.135  0.00  0.00    +0.000 A 
ATOM     15  N   UNL     1       2.684   8.514  17.312  0.00  0.00    +0.000 NA
ATOM     16  O   UNL     1       1.821   9.368  17.975  0.00  0.00    +0.000 OA
ENDBRANCH   1  14
BRANCH   4  17
ATOM     17  C   UNL     1       3.540   2.736  19.976  0.00  0.00    +0.000 C 
ATOM     18  C   UNL     1       2.858   3.919  20.696  0.00  0.00    +0.000 C 
ATOM     19  C   UNL     1       1.501   3.240  20.420  0.00  0.00    +0.000 C 
ATOM     20  F   UNL     1       0.500   4.064  20.033  0.00  0.00    +0.000 F 
ATOM     21  F   UNL     1       1.015   2.482  21.428  0.00  0.00    +0.000 F 
ATOM     22  C   UNL     1       2.194   2.457  19.283  0.00  0.00    +0.000 C 
ENDBRANCH   4  17
BRANCH   7  23
ATOM     23  C   UNL     1       6.536   4.423  14.542  0.00  0.00    +0.000 C 
ATOM     24  C   UNL     1       5.385   3.766  13.737  0.00  0.00    +0.000 C 
ATOM     25  C   UNL     1       6.336   3.734  12.513  0.00  0.00    +0.000 C 
ATOM     26  F   UNL     1       5.772   4.013  11.323  0.00  0.00    +0.000 F 
ATOM     27  F   UNL     1       7.043   2.593  12.361  0.00  0.00    +0.000 F 
ATOM     28  C   UNL     1       7.108   4.897  13.185  0.00  0.00    +0.000 C 
ENDBRANCH   7  23
TORSDOF 3
ENDMDL
MODEL 5
REMARK VINA RESULT:      -8.9      2.974      3.921
REMARK  Name = 
REMARK  4 active torsions:
REMARK  status: ('A' for Active; 'I' for Inactive)
REMARK    1  A    between atoms: C_1  and  C_2
REMARK    2  A    between atoms: C_4  and  C_5
REMARK    3  A    between atoms: N_8  and  C_9
REMARK    4  A    between atoms: N_17  and  C_18
REMARK                            x       y       z     vdW  Elec       q    Type
REMARK                         _______ _______ _______ _____ _____    ______ ____
ROOT
ATOM      1  C   UNL     1       3.445   6.212  18.125  0.00  0.00    +0.000 A 
ATOM      2  N   UNL     1       3.416   5.146  18.923  0.00  0.00    +0.000 NA
ATOM      3  C   UNL     1       4.196   4.149  18.542  0.00  0.00    +0.000 A 
ATOM      4  N   UNL     1       4.259   3.008  19.327  0.00  0.00    +0.000 N 
ATOM      5  N   UNL     1       4.942   4.157  17.443  0.00  0.00    +0.000 NA
ATOM      6  C   UNL     1       4.880   5.255  16.700  0.00  0.00    +0.000 A 
ATOM      7  N   UNL     1       5.588   5.332  15.500  0.00  0.00    +0.000 N 
ATOM      8  N   UNL     1       4.166   6.323  17.010  0.00  0.00    +0.000 NA
ATOM      9  H   UNL     1       5.086   2.459  19.138  0.00  0.00    +0.000 HD
ATOM     10  H   UNL     1       5.381   6.228  15.072  0.00  0.00    +0.000 HD
ENDROOT
BRANCH   1  14
ATOM     11  C   UNL     1       0.832  10.568  18.437  0.00  0.00    +0.000 C 
ATOM     12  C   UNL     1       1.539   9.283  18.594  0.00  0.00    +0.000 A 
ATOM     13  C   UNL     1       2.282   8.490  17.757  0.00  0.00    +0.000 A 
ATOM     14  C   UNL     1       2.649   7.365  18.549  0.00  0.00    +0.000 A 
ATOM     15  N   UNL     1       2.149   7.493  19.792  0.00  0.00    +0.000 NA
ATOM     16  O   UNL     1       1.467   8.695  19.815  0.00  0.00    +0.000 OA
ENDBRANCH   1  14
BRANCH   4  17
ATOM     17  C   UNL     1       3.326   2.608  20.318  0.00  0.00    +0.000 C 
ATOM     18  C   UNL     1       2.701   3.810  21.058  0.00  0.00    +0.000 C 
ATOM     19  C   UNL     1       1.327   3.127  20.904  0.00  0.00    +0.000 C 
ATOM     20  F   UNL     1       0.299   3.944  20.575  0.00  0.00    +0.000 F 
ATOM     21  F   UNL     1       0.919   2.396  21.965  0.00  0.00    +0.000 F 
ATOM     22  C   UNL     1       1.930   2.315  19.737  0.00  0.00    +0.000 C 
ENDBRANCH   4  17
BRANCH   7  23
ATOM     23  C   UNL     1       5.877   4.232  14.644  0.00  0.00    +0.000 C 
ATOM     24  C   UNL     1       5.216   4.306  13.243  0.00  0.00    +0.000 C 
ATOM     25  C   UNL     1       6.567   3.840  12.643  0.00  0.00    +0.000 C 
ATOM     26  F   UNL     1       6.930   4.426  11.486  0.00  0.00    +0.000 F 
ATOM     27  F   UNL     1       6.693   2.507  12.471  0.00  0.00    +0.000 F 
ATOM     28  C   UNL     1       7.236   4.401  13.923  0.00  0.00    +0.000 C 
ENDBRANCH   7  23
TORSDOF 3
ENDMDL
MODEL 6
REMARK VINA RESULT:      -8.7      4.425      7.273
REMARK  Name = 
REMARK  4 active torsions:
REMARK  status: ('A' for Active; 'I' for Inactive)
REMARK    1  A    between atoms: C_1  and  C_2
REMARK    2  A    between atoms: C_4  and  C_5
REMARK    3  A    between atoms: N_8  and  C_9
REMARK    4  A    between atoms: N_17  and  C_18
REMARK                            x       y       z     vdW  Elec       q    Type
REMARK                         _______ _______ _______ _____ _____    ______ ____
ROOT
ATOM      1  C   UNL     1       4.064   6.792  17.320  0.00  0.00    +0.000 A 
ATOM      2  N   UNL     1       3.525   5.868  18.114  0.00  0.00    +0.000 NA
ATOM      3  C   UNL     1       2.425   6.252  18.740  0.00  0.00    +0.000 A 
ATOM      4  N   UNL     1       1.772   5.347  19.563  0.00  0.00    +0.000 N 
ATOM      5  N   UNL     1       1.885   7.460  18.637  0.00  0.00    +0.000 NA
ATOM      6  C   UNL     1       2.513   8.318  17.842  0.00  0.00    +0.000 A 
ATOM      7  N   UNL     1       2.049   9.628  17.715  0.00  0.00    +0.000 N 
ATOM      8  N   UNL     1       3.594   8.026  17.140  0.00  0.00    +0.000 NA
ATOM      9  H   UNL     1       0.812   5.612  19.736  0.00  0.00    +0.000 HD
ATOM     10  H   UNL     1       2.681  10.125  17.097  0.00  0.00    +0.000 HD
ENDROOT
BRANCH   1  14
ATOM     11  C   UNL     1       7.343   4.738  14.014  0.00  0.00    +0.000 C 
ATOM     12  C   UNL     1       6.598   5.437  15.078  0.00  0.00    +0.000 A 
ATOM     13  C   UNL     1       5.280   5.483  15.452  0.00  0.00    +0.000 A 
ATOM     14  C   UNL     1       5.244   6.385  16.554  0.00  0.00    +0.000 A 
ATOM     15  N   UNL     1       6.481   6.842  16.817  0.00  0.00    +0.000 NA
ATOM     16  O   UNL     1       7.321   6.240  15.899  0.00  0.00    +0.000 OA
ENDBRANCH   1  14
BRANCH   4  17
ATOM     17  C   UNL     1       2.314   4.158  20.114  0.00  0.00    +0.000 C 
ATOM     18  C   UNL     1       2.308   4.166  21.657  0.00  0.00    +0.000 C 
ATOM     19  C   UNL     1       1.769   2.721  21.614  0.00  0.00    +0.000 C 
ATOM     20  F   UNL     1       0.794   2.432  22.506  0.00  0.00    +0.000 F 
ATOM     21  F   UNL     1       2.702   1.750  21.727  0.00  0.00    +0.000 F 
ATOM     22  C   UNL     1       1.289   3.009  20.174  0.00  0.00    +0.000 C 
ENDBRANCH   4  17
BRANCH   7  23
ATOM     23  C   UNL     1       1.389  10.369  18.735  0.00  0.00    +0.000 C 
ATOM     24  C   UNL     1       1.450  11.909  18.563  0.00  0.00    +0.000 C 
ATOM     25  C   UNL     1      -0.051  11.955  18.948  0.00  0.00    +0.000 C 
ATOM     26  F   UNL     1      -0.807  12.834  18.263  0.00  0.00    +0.000 F 
ATOM     27  F   UNL     1      -0.304  12.149  20.260  0.00  0.00    +0.000 F 
ATOM     28  C   UNL     1      -0.133  10.481  18.478  0.00  0.00    +0.000 C 
ENDBRANCH   7  23
TORSDOF 3
ENDMDL
MODEL 7
REMARK VINA RESULT:      -8.6      3.549      7.532
REMARK  Name = 
REMARK  4 active torsions:
REMARK  status: ('A' for Active; 'I' for Inactive)
REMARK    1  A    between atoms: C_1  and  C_2
REMARK    2  A    between atoms: C_4  and  C_5
REMARK    3  A    between atoms: N_8  and  C_9
REMARK    4  A    between atoms: N_17  and  C_18
REMARK                            x       y       z     vdW  Elec       q    Type
REMARK                         _______ _______ _______ _____ _____    ______ ____
ROOT
ATOM      1  C   UNL     1       6.199   5.046  15.606  0.00  0.00    +0.000 A 
ATOM      2  N   UNL     1       6.942   5.933  16.266  0.00  0.00    +0.000 NA
ATOM      3  C   UNL     1       6.539   6.180  17.501  0.00  0.00    +0.000 A 
ATOM      4  N   UNL     1       7.269   7.066  18.280  0.00  0.00    +0.000 N 
ATOM      5  N   UNL     1       5.469   5.633  18.066  0.00  0.00    +0.000 NA
ATOM      6  C   UNL     1       4.780   4.783  17.316  0.00  0.00    +0.000 A 
ATOM      7  N   UNL     1       3.610   4.201  17.807  0.00  0.00    +0.000 N 
ATOM      8  N   UNL     1       5.116   4.435  16.086  0.00  0.00    +0.000 NA
ATOM      9  H   UNL     1       7.082   6.951  19.267  0.00  0.00    +0.000 HD
ATOM     10  H   UNL     1       3.220   3.618  17.074  0.00  0.00    +0.000 HD
ENDROOT
BRANCH   1  14
ATOM     11  C   UNL     1       6.995   2.878  11.072  0.00  0.00    +0.000 C 
ATOM     12  C   UNL     1       6.941   3.672  12.313  0.00  0.00    +0.000 A 
ATOM     13  C   UNL     1       6.257   3.556  13.495  0.00  0.00    +0.000 A 
ATOM     14  C   UNL     1       6.652   4.691  14.260  0.00  0.00    +0.000 A 
ATOM     15  N   UNL     1       7.529   5.435  13.562  0.00  0.00    +0.000 NA
ATOM     16  O   UNL     1       7.712   4.789  12.354  0.00  0.00    +0.000 OA
ENDBRANCH   1  14
BRANCH   4  17
ATOM     17  C   UNL     1       8.205   8.027  17.819  0.00  0.00    +0.000 C 
ATOM     18  C   UNL     1       7.554   9.400  17.547  0.00  0.00    +0.000 C 
ATOM     19  C   UNL     1       8.743  10.053  18.281  0.00  0.00    +0.000 C 
ATOM     20  F   UNL     1       8.431  11.075  19.112  0.00  0.00    +0.000 F 
ATOM     21  F   UNL     1       9.747  10.489  17.488  0.00  0.00    +0.000 F 
ATOM     22  C   UNL     1       8.989   8.691  18.966  0.00  0.00    +0.000 C 
ENDBRANCH   4  17
BRANCH   7  23
ATOM     23  C   UNL     1       2.711   4.811  18.726  0.00  0.00    +0.000 C 
ATOM     24  C   UNL     1       1.311   4.149  18.805  0.00  0.00    +0.000 C 
ATOM     25  C   UNL     1       1.399   4.277  20.347  0.00  0.00    +0.000 C 
ATOM     26  F   UNL     1       0.913   3.238  21.052  0.00  0.00    +0.000 F 
ATOM     27  F   UNL     1       0.856   5.399  20.865  0.00  0.00    +0.000 F 
ATOM     28  C   UNL     1       2.939   4.315  20.174  0.00  0.00    +0.000 C 
ENDBRANCH   7  23
TORSDOF 3
ENDMDL
MODEL 8
REMARK VINA RESULT:      -8.5      3.576      7.581
REMARK  Name = 
REMARK  4 active torsions:
REMARK  status: ('A' for Active; 'I' for Inactive)
REMARK    1  A    between atoms: C_1  and  C_2
REMARK    2  A    between atoms: C_4  and  C_5
REMARK    3  A    between atoms: N_8  and  C_9
REMARK    4  A    between atoms: N_17  and  C_18
REMARK                            x       y       z     vdW  Elec       q    Type
REMARK                         _______ _______ _______ _____ _____    ______ ____
ROOT
ATOM      1  C   UNL     1       5.782   5.375  17.972  0.00  0.00    +0.000 A 
ATOM      2  N   UNL     1       5.928   5.102  16.677  0.00  0.00    +0.000 NA
ATOM      3  C   UNL     1       6.946   5.713  16.095  0.00  0.00    +0.000 A 
ATOM      4  N   UNL     1       7.199   5.465  14.754  0.00  0.00    +0.000 N 
ATOM      5  N   UNL     1       7.763   6.562  16.708  0.00  0.00    +0.000 NA
ATOM      6  C   UNL     1       7.516   6.789  17.992  0.00  0.00    +0.000 A 
ATOM      7  N   UNL     1       8.289   7.708  18.704  0.00  0.00    +0.000 N 
ATOM      8  N   UNL     1       6.552   6.202  18.680  0.00  0.00    +0.000 NA
ATOM      9  H   UNL     1       8.143   5.713  14.491  0.00  0.00    +0.000 HD
ATOM     10  H   UNL     1       7.920   7.761  19.648  0.00  0.00    +0.000 HD
ENDROOT
BRANCH   1  14
ATOM     11  C   UNL     1       1.350   3.753  19.874  0.00  0.00    +0.000 C 
ATOM     12  C   UNL     1       2.736   4.037  19.461  0.00  0.00    +0.000 A 
ATOM     13  C   UNL     1       3.325   4.997  18.679  0.00  0.00    +0.000 A 
ATOM     14  C   UNL     1       4.710   4.665  18.672  0.00  0.00    +0.000 A 
ATOM     15  N   UNL     1       4.925   3.565  19.417  0.00  0.00    +0.000 NA
ATOM     16  O   UNL     1       3.691   3.185  19.913  0.00  0.00    +0.000 OA
ENDBRANCH   1  14
BRANCH   4  17
ATOM     17  C   UNL     1       6.300   4.906  13.811  0.00  0.00    +0.000 C 
ATOM     18  C   UNL     1       6.913   4.809  12.397  0.00  0.00    +0.000 C 
ATOM     19  C   UNL     1       6.342   3.379  12.302  0.00  0.00    +0.000 C 
ATOM     20  F   UNL     1       7.159   2.457  11.744  0.00  0.00    +0.000 F 
ATOM     21  F   UNL     1       5.148   3.271  11.678  0.00  0.00    +0.000 F 
ATOM     22  C   UNL     1       6.281   3.367  13.846  0.00  0.00    +0.000 C 
ENDBRANCH   4  17
BRANCH   7  23
ATOM     23  C   UNL     1       8.895   8.872  18.156  0.00  0.00    +0.000 C 
ATOM     24  C   UNL     1       7.911  10.024  17.824  0.00  0.00    +0.000 C 
ATOM     25  C   UNL     1       8.934  11.004  18.453  0.00  0.00    +0.000 C 
ATOM     26  F   UNL     1       8.413  12.007  19.185  0.00  0.00    +0.000 F 
ATOM     27  F   UNL     1       9.812  11.556  17.587  0.00  0.00    +0.000 F 
ATOM     28  C   UNL     1       9.478   9.794  19.253  0.00  0.00    +0.000 C 
ENDBRANCH   7  23
TORSDOF 3
ENDMDL
MODEL 9
REMARK VINA RESULT:      -8.3      3.560      7.672
REMARK  Name = 
REMARK  4 active torsions:
REMARK  status: ('A' for Active; 'I' for Inactive)
REMARK    1  A    between atoms: C_1  and  C_2
REMARK    2  A    between atoms: C_4  and  C_5
REMARK    3  A    between atoms: N_8  and  C_9
REMARK    4  A    between atoms: N_17  and  C_18
REMARK                            x       y       z     vdW  Elec       q    Type
REMARK                         _______ _______ _______ _____ _____    ______ ____
ROOT
ATOM      1  C   UNL     1       5.061   5.468  17.305  0.00  0.00    +0.000 A 
ATOM      2  N   UNL     1       5.412   5.090  16.078  0.00  0.00    +0.000 NA
ATOM      3  C   UNL     1       6.602   5.516  15.689  0.00  0.00    +0.000 A 
ATOM      4  N   UNL     1       7.071   5.147  14.437  0.00  0.00    +0.000 N 
ATOM      5  N   UNL     1       7.401   6.285  16.420  0.00  0.00    +0.000 NA
ATOM      6  C   UNL     1       6.947   6.630  17.618  0.00  0.00    +0.000 A 
ATOM      7  N   UNL     1       7.694   7.480  18.435  0.00  0.00    +0.000 N 
ATOM      8  N   UNL     1       5.793   6.227  18.120  0.00  0.00    +0.000 NA
ATOM      9  H   UNL     1       8.074   5.245  14.360  0.00  0.00    +0.000 HD
ATOM     10  H   UNL     1       7.162   7.647  19.282  0.00  0.00    +0.000 HD
ENDROOT
BRANCH   1  14
ATOM     11  C   UNL     1       1.068   2.623  18.670  0.00  0.00    +0.000 C 
ATOM     12  C   UNL     1       2.085   3.642  18.354  0.00  0.00    +0.000 A 
ATOM     13  C   UNL     1       3.325   3.610  17.769  0.00  0.00    +0.000 A 
ATOM     14  C   UNL     1       3.781   4.958  17.802  0.00  0.00    +0.000 A 
ATOM     15  N   UNL     1       2.852   5.746  18.375  0.00  0.00    +0.000 NA
ATOM     16  O   UNL     1       1.794   4.920  18.708  0.00  0.00    +0.000 OA
ENDBRANCH   1  14
BRANCH   4  17
ATOM     17  C   UNL     1       6.298   4.654  13.354  0.00  0.00    +0.000 C 
ATOM     18  C   UNL     1       7.139   4.446  12.076  0.00  0.00    +0.000 C 
ATOM     19  C   UNL     1       6.442   3.081  11.900  0.00  0.00    +0.000 C 
ATOM     20  F   UNL     1       7.241   2.060  11.512  0.00  0.00    +0.000 F 
ATOM     21  F   UNL     1       5.374   3.077  11.071  0.00  0.00    +0.000 F 
ATOM     22  C   UNL     1       6.106   3.126  13.407  0.00  0.00    +0.000 C 
ENDBRANCH   4  17
BRANCH   7  23
ATOM     23  C   UNL     1       8.559   8.512  17.974  0.00  0.00    +0.000 C 
ATOM     24  C   UNL     1       7.845   9.826  17.565  0.00  0.00    +0.000 C 
ATOM     25  C   UNL     1       8.960  10.599  18.315  0.00  0.00    +0.000 C 
ATOM     26  F   UNL     1       8.560  11.682  19.009  0.00  0.00    +0.000 F 
ATOM     27  F   UNL     1      10.010  10.978  17.555  0.00  0.00    +0.000 F 
ATOM     28  C   UNL     1       9.184   9.309  19.144  0.00  0.00    +0.000 C 
ENDBRANCH   7  23
TORSDOF 3
ENDMDL
