MODEL 1
REMARK VINA RESULT:      -8.8      0.000      0.000
REMARK  Name = 
REMARK  5 active torsions:
REMARK  status: ('A' for Active; 'I' for Inactive)
REMARK    1  A    between atoms: C_1  and  C_12
REMARK    2  A    between atoms: C_2  and  C_3
REMARK    3  A    between atoms: C_12  and  C_13
REMARK    4  A    between atoms: C_13  and  N_14
REMARK    5  A    between atoms: C_17  and  C_18
REMARK                            x       y       z     vdW  Elec       q    Type
REMARK                         _______ _______ _______ _____ _____    ______ ____
ROOT
ATOM      1  C   UNL     1       7.435   7.099  17.168  0.00  0.00    +0.000 C 
ENDROOT
BRANCH   1   2
ATOM      2  N   UNL     1       6.355   6.111  17.292  0.00  0.00    +0.000 NA
ATOM      3  C   UNL     1       6.504   5.382  18.562  0.00  0.00    +0.000 C 
ATOM      4  C   UNL     1       5.284   4.686  19.045  0.00  0.00    +0.000 C 
ATOM      5  C   UNL     1       4.069   4.849  18.483  0.00  0.00    +0.000 C 
ATOM      6  C   UNL     1       3.902   5.740  17.281  0.00  0.00    +0.000 C 
ATOM      7  C   UNL     1       5.042   6.759  17.180  0.00  0.00    +0.000 C 
BRANCH   5   8
ATOM      8  C   UNL     1       2.888   4.177  19.031  0.00  0.00    +0.000 A 
ATOM      9  C   UNL     1       2.130   3.301  18.240  0.00  0.00    +0.000 A 
ATOM     10  C   UNL     1       0.986   2.700  18.747  0.00  0.00    +0.000 A 
ATOM     11  C   UNL     1       0.592   2.944  20.055  0.00  0.00    +0.000 A 
ATOM     12  C   UNL     1       1.356   3.786  20.871  0.00  0.00    +0.000 A 
ATOM     13  C   UNL     1       2.499   4.394  20.361  0.00  0.00    +0.000 A 
ENDBRANCH   5   8
ENDBRANCH   1   2
BRANCH   1  14
ATOM     14  C   UNL     1       8.128   7.321  18.509  0.00  0.00    +0.000 C 
BRANCH  14  15
ATOM     15  C   UNL     1       8.644   8.749  18.580  0.00  0.00    +0.000 C 
ATOM     16  C   UNL     1       9.086   9.974  18.640  0.00  0.00    +0.000 C 
BRANCH  16  17
ATOM     17  C   UNL     1       9.559  11.325  18.718  0.00  0.00    +0.000 A 
ATOM     18  C   UNL     1       9.334  12.078  19.879  0.00  0.00    +0.000 A 
ATOM     19  C   UNL     1       9.786  13.400  19.987  0.00  0.00    +0.000 A 
ATOM     20  C   UNL     1      10.464  13.917  18.887  0.00  0.00    +0.000 A 
ATOM     21  O   UNL     1      10.982  15.173  18.791  0.00  0.00    +0.000 OA
ATOM     22  C   UNL     1      11.559  15.274  17.565  0.00  0.00    +0.000 A 
ATOM     23  C   UNL     1      11.418  14.095  16.865  0.00  0.00    +0.000 A 
ATOM     24  C   UNL     1      10.708  13.206  17.716  0.00  0.00    +0.000 A 
ATOM     25  C   UNL     1      10.245  11.881  17.628  0.00  0.00    +0.000 A 
ENDBRANCH  16  17
ENDBRANCH  14  15
ENDBRANCH   1  14
TORSDOF 5
ENDMDL
MODEL 2
REMARK VINA RESULT:      -8.7      1.017      1.345
REMARK  Name = 
REMARK  5 active torsions:
REMARK  status: ('A' for Active; 'I' for Inactive)
REMARK    1  A    between atoms: C_1  and  C_12
REMARK    2  A    between atoms: C_2  and  C_3
REMARK    3  A    between atoms: C_12  and  C_13
REMARK    4  A    between atoms: C_13  and  N_14
REMARK    5  A    between atoms: C_17  and  C_18
REMARK                            x       y       z     vdW  Elec       q    Type
REMARK                         _______ _______ _______ _____ _____    ______ ____
ROOT
ATOM      1  C   UNL     1       7.407   7.289  17.044  0.00  0.00    +0.000 C 
ENDROOT
BRANCH   1   2
ATOM      2  N   UNL     1       6.434   6.219  17.301  0.00  0.00    +0.000 NA
ATOM      3  C   UNL     1       6.474   5.854  18.726  0.00  0.00    +0.000 C 
ATOM      4  C   UNL     1       5.279   5.132  19.234  0.00  0.00    +0.000 C 
ATOM      5  C   UNL     1       4.148   4.978  18.516  0.00  0.00    +0.000 C 
ATOM      6  C   UNL     1       4.063   5.513  17.111  0.00  0.00    +0.000 C 
ATOM      7  C   UNL     1       5.088   6.626  16.874  0.00  0.00    +0.000 C 
BRANCH   5   8
ATOM      8  C   UNL     1       2.980   4.301  19.084  0.00  0.00    +0.000 A 
ATOM      9  C   UNL     1       2.166   3.484  18.285  0.00  0.00    +0.000 A 
ATOM     10  C   UNL     1       1.034   2.879  18.814  0.00  0.00    +0.000 A 
ATOM     11  C   UNL     1       0.707   3.062  20.151  0.00  0.00    +0.000 A 
ATOM     12  C   UNL     1       1.527   3.844  20.972  0.00  0.00    +0.000 A 
ATOM     13  C   UNL     1       2.658   4.455  20.440  0.00  0.00    +0.000 A 
ENDBRANCH   5   8
ENDBRANCH   1   2
BRANCH   1  14
ATOM     14  C   UNL     1       8.128   7.690  18.328  0.00  0.00    +0.000 C 
BRANCH  14  15
ATOM     15  C   UNL     1       8.605   9.128  18.209  0.00  0.00    +0.000 C 
ATOM     16  C   UNL     1       9.015  10.361  18.107  0.00  0.00    +0.000 C 
BRANCH  16  17
ATOM     17  C   UNL     1       9.474  11.714  17.978  0.00  0.00    +0.000 A 
ATOM     18  C   UNL     1      10.837  11.973  17.782  0.00  0.00    +0.000 A 
ATOM     19  C   UNL     1      11.315  13.284  17.649  0.00  0.00    +0.000 A 
ATOM     20  C   UNL     1      10.369  14.302  17.724  0.00  0.00    +0.000 A 
ATOM     21  O   UNL     1      10.626  15.635  17.618  0.00  0.00    +0.000 OA
ATOM     22  C   UNL     1       9.437  16.281  17.743  0.00  0.00    +0.000 A 
ATOM     23  C   UNL     1       8.412  15.378  17.930  0.00  0.00    +0.000 A 
ATOM     24  C   UNL     1       9.007  14.089  17.918  0.00  0.00    +0.000 A 
ATOM     25  C   UNL     1       8.548  12.766  18.049  0.00  0.00    +0.000 A 
ENDBRANCH  16  17
ENDBRANCH  14  15
ENDBRANCH   1  14
TORSDOF 5
ENDMDL
MODEL 3
REMARK VINA RESULT:      -8.7      0.817      1.368
REMARK  Name = 
REMARK  5 active torsions:
REMARK  status: ('A' for Active; 'I' for Inactive)
REMARK    1  A    between atoms: C_1  and  C_12
REMARK    2  A    between atoms: C_2  and  C_3
REMARK    3  A    between atoms: C_12  and  C_13
REMARK    4  A    between atoms: C_13  and  N_14
REMARK    5  A    between atoms: C_17  and  C_18
REMARK                            x       y       z     vdW  Elec       q    Type
REMARK                         _______ _______ _______ _____ _____    ______ ____
ROOT
ATOM      1  C   UNL     1       7.227   7.296  17.082  0.00  0.00    +0.000 C 
ENDROOT
BRANCH   1   2
ATOM      2  N   UNL     1       6.152   6.307  17.235  0.00  0.00    +0.000 NA
ATOM      3  C   UNL     1       6.400   5.498  18.439  0.00  0.00    +0.000 C 
ATOM      4  C   UNL     1       5.218   4.778  18.980  0.00  0.00    +0.000 C 
ATOM      5  C   UNL     1       3.962   4.983  18.536  0.00  0.00    +0.000 C 
ATOM      6  C   UNL     1       3.703   5.950  17.411  0.00  0.00    +0.000 C 
ATOM      7  C   UNL     1       4.840   6.968  17.277  0.00  0.00    +0.000 C 
BRANCH   5   8
ATOM      8  C   UNL     1       2.825   4.283  19.139  0.00  0.00    +0.000 A 
ATOM      9  C   UNL     1       2.548   4.414  20.508  0.00  0.00    +0.000 A 
ATOM     10  C   UNL     1       1.498   3.715  21.088  0.00  0.00    +0.000 A 
ATOM     11  C   UNL     1       0.694   2.894  20.309  0.00  0.00    +0.000 A 
ATOM     12  C   UNL     1       0.933   2.780  18.935  0.00  0.00    +0.000 A 
ATOM     13  C   UNL     1       1.989   3.475  18.356  0.00  0.00    +0.000 A 
ENDBRANCH   5   8
ENDBRANCH   1   2
BRANCH   1  14
ATOM     14  C   UNL     1       8.046   7.415  18.365  0.00  0.00    +0.000 C 
BRANCH  14  15
ATOM     15  C   UNL     1       8.620   8.818  18.467  0.00  0.00    +0.000 C 
ATOM     16  C   UNL     1       9.112  10.022  18.555  0.00  0.00    +0.000 C 
BRANCH  16  17
ATOM     17  C   UNL     1       9.666  11.340  18.666  0.00  0.00    +0.000 A 
ATOM     18  C   UNL     1      10.942  11.518  19.217  0.00  0.00    +0.000 A 
ATOM     19  C   UNL     1      11.512  12.793  19.336  0.00  0.00    +0.000 A 
ATOM     20  C   UNL     1      10.744  13.862  18.881  0.00  0.00    +0.000 A 
ATOM     21  O   UNL     1      11.113  15.172  18.905  0.00  0.00    +0.000 OA
ATOM     22  C   UNL     1      10.088  15.885  18.370  0.00  0.00    +0.000 A 
ATOM     23  C   UNL     1       9.057  15.048  18.001  0.00  0.00    +0.000 A 
ATOM     24  C   UNL     1       9.474  13.730  18.328  0.00  0.00    +0.000 A 
ATOM     25  C   UNL     1       8.921  12.441  18.218  0.00  0.00    +0.000 A 
ENDBRANCH  16  17
ENDBRANCH  14  15
ENDBRANCH   1  14
TORSDOF 5
ENDMDL
MODEL 4
REMARK VINA RESULT:      -8.5      0.658      1.478
REMARK  Name = 
REMARK  5 active torsions:
REMARK  status: ('A' for Active; 'I' for Inactive)
REMARK    1  A    between atoms: C_1  and  C_12
REMARK    2  A    between atoms: C_2  and  C_3
REMARK    3  A    between atoms: C_12  and  C_13
REMARK    4  A    between atoms: C_13  and  N_14
REMARK    5  A    between atoms: C_17  and  C_18
REMARK                            x       y       z     vdW  Elec       q    Type
REMARK                         _______ _______ _______ _____ _____    ______ ____
ROOT
ATOM      1  C   UNL     1       7.458   7.329  17.250  0.00  0.00    +0.000 C 
ENDROOT
BRANCH   1   2
ATOM      2  N   UNL     1       6.428   6.288  17.361  0.00  0.00    +0.000 NA
ATOM      3  C   UNL     1       6.515   5.654  18.687  0.00  0.00    +0.000 C 
ATOM      4  C   UNL     1       5.302   4.918  19.124  0.00  0.00    +0.000 C 
ATOM      5  C   UNL     1       4.128   4.970  18.463  0.00  0.00    +0.000 C 
ATOM      6  C   UNL     1       4.008   5.769  17.192  0.00  0.00    +0.000 C 
ATOM      7  C   UNL     1       5.093   6.846  17.105  0.00  0.00    +0.000 C 
BRANCH   5   8
ATOM      8  C   UNL     1       2.947   4.265  18.966  0.00  0.00    +0.000 A 
ATOM      9  C   UNL     1       2.305   3.292  18.185  0.00  0.00    +0.000 A 
ATOM     10  C   UNL     1       1.160   2.657  18.645  0.00  0.00    +0.000 A 
ATOM     11  C   UNL     1       0.649   2.965  19.898  0.00  0.00    +0.000 A 
ATOM     12  C   UNL     1       1.296   3.906  20.707  0.00  0.00    +0.000 A 
ATOM     13  C   UNL     1       2.440   4.547  20.243  0.00  0.00    +0.000 A 
ENDBRANCH   5   8
ENDBRANCH   1   2
BRANCH   1  14
ATOM     14  C   UNL     1       8.175   7.532  18.581  0.00  0.00    +0.000 C 
BRANCH  14  15
ATOM     15  C   UNL     1       8.684   8.962  18.667  0.00  0.00    +0.000 C 
ATOM     16  C   UNL     1       9.119  10.188  18.740  0.00  0.00    +0.000 C 
BRANCH  16  17
ATOM     17  C   UNL     1       9.585  11.541  18.835  0.00  0.00    +0.000 A 
ATOM     18  C   UNL     1       9.895  12.256  17.671  0.00  0.00    +0.000 A 
ATOM     19  C   UNL     1      10.350  13.580  17.730  0.00  0.00    +0.000 A 
ATOM     20  C   UNL     1      10.476  14.138  19.000  0.00  0.00    +0.000 A 
ATOM     21  O   UNL     1      10.898  15.403  19.274  0.00  0.00    +0.000 OA
ATOM     22  C   UNL     1      10.875  15.547  20.625  0.00  0.00    +0.000 A 
ATOM     23  C   UNL     1      10.444  14.386  21.228  0.00  0.00    +0.000 A 
ATOM     24  C   UNL     1      10.181  13.463  20.181  0.00  0.00    +0.000 A 
ATOM     25  C   UNL     1       9.726  12.135  20.098  0.00  0.00    +0.000 A 
ENDBRANCH  16  17
ENDBRANCH  14  15
ENDBRANCH   1  14
TORSDOF 5
ENDMDL
MODEL 5
REMARK VINA RESULT:      -8.5      1.210      1.352
REMARK  Name = 
REMARK  5 active torsions:
REMARK  status: ('A' for Active; 'I' for Inactive)
REMARK    1  A    between atoms: C_1  and  C_12
REMARK    2  A    between atoms: C_2  and  C_3
REMARK    3  A    between atoms: C_12  and  C_13
REMARK    4  A    between atoms: C_13  and  N_14
REMARK    5  A    between atoms: C_17  and  C_18
REMARK                            x       y       z     vdW  Elec       q    Type
REMARK                         _______ _______ _______ _____ _____    ______ ____
ROOT
ATOM      1  C   UNL     1       8.004   7.072  18.280  0.00  0.00    +0.000 C 
ENDROOT
BRANCH   1   2
ATOM      2  N   UNL     1       7.038   5.984  18.079  0.00  0.00    +0.000 NA
ATOM      3  C   UNL     1       6.692   5.392  19.382  0.00  0.00    +0.000 C 
ATOM      4  C   UNL     1       5.430   4.609  19.412  0.00  0.00    +0.000 C 
ATOM      5  C   UNL     1       4.552   4.583  18.390  0.00  0.00    +0.000 C 
ATOM      6  C   UNL     1       4.843   5.340  17.121  0.00  0.00    +0.000 C 
ATOM      7  C   UNL     1       5.851   6.467  17.361  0.00  0.00    +0.000 C 
BRANCH   5   8
ATOM      8  C   UNL     1       3.297   3.834  18.492  0.00  0.00    +0.000 A 
ATOM      9  C   UNL     1       2.118   4.329  17.913  0.00  0.00    +0.000 A 
ATOM     10  C   UNL     1       0.921   3.641  18.049  0.00  0.00    +0.000 A 
ATOM     11  C   UNL     1       0.883   2.439  18.743  0.00  0.00    +0.000 A 
ATOM     12  C   UNL     1       2.055   1.912  19.295  0.00  0.00    +0.000 A 
ATOM     13  C   UNL     1       3.254   2.605  19.165  0.00  0.00    +0.000 A 
ENDBRANCH   5   8
ENDBRANCH   1   2
BRANCH   1  14
ATOM     14  C   UNL     1       7.582   8.325  17.517  0.00  0.00    +0.000 C 
BRANCH  14  15
ATOM     15  C   UNL     1       8.467   9.488  17.930  0.00  0.00    +0.000 C 
ATOM     16  C   UNL     1       9.227  10.487  18.284  0.00  0.00    +0.000 C 
BRANCH  16  17
ATOM     17  C   UNL     1      10.047  11.594  18.682  0.00  0.00    +0.000 A 
ATOM     18  C   UNL     1      10.958  11.445  19.735  0.00  0.00    +0.000 A 
ATOM     19  C   UNL     1      11.776  12.507  20.145  0.00  0.00    +0.000 A 
ATOM     20  C   UNL     1      11.631  13.706  19.453  0.00  0.00    +0.000 A 
ATOM     21  O   UNL     1      12.328  14.851  19.693  0.00  0.00    +0.000 OA
ATOM     22  C   UNL     1      11.889  15.779  18.802  0.00  0.00    +0.000 A 
ATOM     23  C   UNL     1      10.914  15.245  17.988  0.00  0.00    +0.000 A 
ATOM     24  C   UNL     1      10.739  13.897  18.403  0.00  0.00    +0.000 A 
ATOM     25  C   UNL     1       9.928  12.819  18.007  0.00  0.00    +0.000 A 
ENDBRANCH  16  17
ENDBRANCH  14  15
ENDBRANCH   1  14
TORSDOF 5
ENDMDL
MODEL 6
REMARK VINA RESULT:      -8.5      1.132      1.301
REMARK  Name = 
REMARK  5 active torsions:
REMARK  status: ('A' for Active; 'I' for Inactive)
REMARK    1  A    between atoms: C_1  and  C_12
REMARK    2  A    between atoms: C_2  and  C_3
REMARK    3  A    between atoms: C_12  and  C_13
REMARK    4  A    between atoms: C_13  and  N_14
REMARK    5  A    between atoms: C_17  and  C_18
REMARK                            x       y       z     vdW  Elec       q    Type
REMARK                         _______ _______ _______ _____ _____    ______ ____
ROOT
ATOM      1  C   UNL     1       7.867   6.814  17.644  0.00  0.00    +0.000 C 
ENDROOT
BRANCH   1   2
ATOM      2  N   UNL     1       6.906   5.705  17.696  0.00  0.00    +0.000 NA
ATOM      3  C   UNL     1       6.494   5.479  19.091  0.00  0.00    +0.000 C 
ATOM      4  C   UNL     1       5.229   4.722  19.269  0.00  0.00    +0.000 C 
ATOM      5  C   UNL     1       4.400   4.418  18.250  0.00  0.00    +0.000 C 
ATOM      6  C   UNL     1       4.755   4.811  16.840  0.00  0.00    +0.000 C 
ATOM      7  C   UNL     1       5.757   5.970  16.819  0.00  0.00    +0.000 C 
BRANCH   5   8
ATOM      8  C   UNL     1       3.138   3.714  18.488  0.00  0.00    +0.000 A 
ATOM      9  C   UNL     1       3.102   2.552  19.273  0.00  0.00    +0.000 A 
ATOM     10  C   UNL     1       1.914   1.861  19.461  0.00  0.00    +0.000 A 
ATOM     11  C   UNL     1       0.738   2.328  18.889  0.00  0.00    +0.000 A 
ATOM     12  C   UNL     1       0.748   3.505  18.133  0.00  0.00    +0.000 A 
ATOM     13  C   UNL     1       1.940   4.194  17.939  0.00  0.00    +0.000 A 
ENDBRANCH   5   8
ENDBRANCH   1   2
BRANCH   1  14
ATOM     14  C   UNL     1       7.148   8.153  17.509  0.00  0.00    +0.000 C 
BRANCH  14  15
ATOM     15  C   UNL     1       8.087   9.274  17.922  0.00  0.00    +0.000 C 
ATOM     16  C   UNL     1       8.894  10.235  18.277  0.00  0.00    +0.000 C 
BRANCH  16  17
ATOM     17  C   UNL     1       9.789  11.291  18.649  0.00  0.00    +0.000 A 
ATOM     18  C   UNL     1      10.384  11.288  19.917  0.00  0.00    +0.000 A 
ATOM     19  C   UNL     1      11.265  12.304  20.310  0.00  0.00    +0.000 A 
ATOM     20  C   UNL     1      11.512  13.308  19.377  0.00  0.00    +0.000 A 
ATOM     21  O   UNL     1      12.333  14.378  19.560  0.00  0.00    +0.000 OA
ATOM     22  C   UNL     1      12.296  15.110  18.415  0.00  0.00    +0.000 A 
ATOM     23  C   UNL     1      11.456  14.523  17.493  0.00  0.00    +0.000 A 
ATOM     24  C   UNL     1      10.942  13.350  18.108  0.00  0.00    +0.000 A 
ATOM     25  C   UNL     1      10.060  12.320  17.735  0.00  0.00    +0.000 A 
ENDBRANCH  16  17
ENDBRANCH  14  15
ENDBRANCH   1  14
TORSDOF 5
ENDMDL
MODEL 7
REMARK VINA RESULT:      -8.1      0.926      1.785
REMARK  Name = 
REMARK  5 active torsions:
REMARK  status: ('A' for Active; 'I' for Inactive)
REMARK    1  A    between atoms: C_1  and  C_12
REMARK    2  A    between atoms: C_2  and  C_3
REMARK    3  A    between atoms: C_12  and  C_13
REMARK    4  A    between atoms: C_13  and  N_14
REMARK    5  A    between atoms: C_17  and  C_18
REMARK                            x       y       z     vdW  Elec       q    Type
REMARK                         _______ _______ _______ _____ _____    ______ ____
ROOT
ATOM      1  C   UNL     1       6.909   7.325  17.169  0.00  0.00    +0.000 C 
ENDROOT
BRANCH   1   2
ATOM      2  N   UNL     1       5.707   6.872  17.881  0.00  0.00    +0.000 NA
ATOM      3  C   UNL     1       4.659   6.534  16.904  0.00  0.00    +0.000 C 
ATOM      4  C   UNL     1       3.572   5.659  17.411  0.00  0.00    +0.000 C 
ATOM      5  C   UNL     1       3.614   5.049  18.613  0.00  0.00    +0.000 C 
ATOM      6  C   UNL     1       4.783   5.271  19.535  0.00  0.00    +0.000 C 
ATOM      7  C   UNL     1       6.021   5.741  18.765  0.00  0.00    +0.000 C 
BRANCH   5   8
ATOM      8  C   UNL     1       2.537   4.154  19.043  0.00  0.00    +0.000 A 
ATOM      9  C   UNL     1       2.147   4.098  20.389  0.00  0.00    +0.000 A 
ATOM     10  C   UNL     1       1.157   3.217  20.803  0.00  0.00    +0.000 A 
ATOM     11  C   UNL     1       0.525   2.395  19.879  0.00  0.00    +0.000 A 
ATOM     12  C   UNL     1       0.876   2.464  18.526  0.00  0.00    +0.000 A 
ATOM     13  C   UNL     1       1.872   3.342  18.113  0.00  0.00    +0.000 A 
ENDBRANCH   5   8
ENDBRANCH   1   2
BRANCH   1  14
ATOM     14  C   UNL     1       8.090   7.464  18.126  0.00  0.00    +0.000 C 
BRANCH  14  15
ATOM     15  C   UNL     1       8.511   8.923  18.197  0.00  0.00    +0.000 C 
ATOM     16  C   UNL     1       8.873  10.174  18.258  0.00  0.00    +0.000 C 
BRANCH  16  17
ATOM     17  C   UNL     1       9.259  11.554  18.310  0.00  0.00    +0.000 A 
ATOM     18  C   UNL     1       8.482  12.522  17.661  0.00  0.00    +0.000 A 
ATOM     19  C   UNL     1       8.831  13.878  17.696  0.00  0.00    +0.000 A 
ATOM     20  C   UNL     1       9.984  14.205  18.405  0.00  0.00    +0.000 A 
ATOM     21  O   UNL     1      10.492  15.459  18.561  0.00  0.00    +0.000 OA
ATOM     22  C   UNL     1      11.616  15.342  19.317  0.00  0.00    +0.000 A 
ATOM     23  C   UNL     1      11.840  14.024  19.650  0.00  0.00    +0.000 A 
ATOM     24  C   UNL     1      10.785  13.276  19.063  0.00  0.00    +0.000 A 
ATOM     25  C   UNL     1      10.416  11.920  19.015  0.00  0.00    +0.000 A 
ENDBRANCH  16  17
ENDBRANCH  14  15
ENDBRANCH   1  14
TORSDOF 5
ENDMDL
MODEL 8
REMARK VINA RESULT:      -8.1      1.085      1.843
REMARK  Name = 
REMARK  5 active torsions:
REMARK  status: ('A' for Active; 'I' for Inactive)
REMARK    1  A    between atoms: C_1  and  C_12
REMARK    2  A    between atoms: C_2  and  C_3
REMARK    3  A    between atoms: C_12  and  C_13
REMARK    4  A    between atoms: C_13  and  N_14
REMARK    5  A    between atoms: C_17  and  C_18
REMARK                            x       y       z     vdW  Elec       q    Type
REMARK                         _______ _______ _______ _____ _____    ______ ____
ROOT
ATOM      1  C   UNL     1       7.671   7.657  17.182  0.00  0.00    +0.000 C 
ENDROOT
BRANCH   1   2
ATOM      2  N   UNL     1       6.828   6.455  17.154  0.00  0.00    +0.000 NA
ATOM      3  C   UNL     1       6.747   5.883  18.507  0.00  0.00    +0.000 C 
ATOM      4  C   UNL     1       5.609   4.957  18.742  0.00  0.00    +0.000 C 
ATOM      5  C   UNL     1       4.603   4.784  17.861  0.00  0.00    +0.000 C 
ATOM      6  C   UNL     1       4.614   5.515  16.545  0.00  0.00    +0.000 C 
ATOM      7  C   UNL     1       5.500   6.763  16.606  0.00  0.00    +0.000 C 
BRANCH   5   8
ATOM      8  C   UNL     1       3.477   3.897  18.165  0.00  0.00    +0.000 A 
ATOM      9  C   UNL     1       2.155   4.338  18.009  0.00  0.00    +0.000 A 
ATOM     10  C   UNL     1       1.090   3.512  18.340  0.00  0.00    +0.000 A 
ATOM     11  C   UNL     1       1.325   2.228  18.810  0.00  0.00    +0.000 A 
ATOM     12  C   UNL     1       2.637   1.758  18.937  0.00  0.00    +0.000 A 
ATOM     13  C   UNL     1       3.704   2.588  18.612  0.00  0.00    +0.000 A 
ENDBRANCH   5   8
ENDBRANCH   1   2
BRANCH   1  14
ATOM     14  C   UNL     1       8.301   7.849  18.559  0.00  0.00    +0.000 C 
BRANCH  14  15
ATOM     15  C   UNL     1       8.818   9.273  18.682  0.00  0.00    +0.000 C 
ATOM     16  C   UNL     1       9.261  10.495  18.788  0.00  0.00    +0.000 C 
BRANCH  16  17
ATOM     17  C   UNL     1       9.741  11.842  18.886  0.00  0.00    +0.000 A 
ATOM     18  C   UNL     1      10.171  12.516  17.736  0.00  0.00    +0.000 A 
ATOM     19  C   UNL     1      10.643  13.834  17.799  0.00  0.00    +0.000 A 
ATOM     20  C   UNL     1      10.661  14.428  19.058  0.00  0.00    +0.000 A 
ATOM     21  O   UNL     1      11.079  15.695  19.333  0.00  0.00    +0.000 OA
ATOM     22  C   UNL     1      10.933  15.881  20.671  0.00  0.00    +0.000 A 
ATOM     23  C   UNL     1      10.427  14.745  21.265  0.00  0.00    +0.000 A 
ATOM     24  C   UNL     1      10.245  13.795  20.225  0.00  0.00    +0.000 A 
ATOM     25  C   UNL     1       9.775  12.472  20.139  0.00  0.00    +0.000 A 
ENDBRANCH  16  17
ENDBRANCH  14  15
ENDBRANCH   1  14
TORSDOF 5
ENDMDL
MODEL 9
REMARK VINA RESULT:      -8.1      1.249      1.956
REMARK  Name = 
REMARK  5 active torsions:
REMARK  status: ('A' for Active; 'I' for Inactive)
REMARK    1  A    between atoms: C_1  and  C_12
REMARK    2  A    between atoms: C_2  and  C_3
REMARK    3  A    between atoms: C_12  and  C_13
REMARK    4  A    between atoms: C_13  and  N_14
REMARK    5  A    between atoms: C_17  and  C_18
REMARK                            x       y       z     vdW  Elec       q    Type
REMARK                         _______ _______ _______ _____ _____    ______ ____
ROOT
ATOM      1  C   UNL     1       7.380   7.607  17.286  0.00  0.00    +0.000 C 
ENDROOT
BRANCH   1   2
ATOM      2  N   UNL     1       6.155   6.991  17.812  0.00  0.00    +0.000 NA
ATOM      3  C   UNL     1       5.272   6.625  16.693  0.00  0.00    +0.000 C 
ATOM      4  C   UNL     1       4.229   5.615  17.006  0.00  0.00    +0.000 C 
ATOM      5  C   UNL     1       4.190   4.928  18.165  0.00  0.00    +0.000 C 
ATOM      6  C   UNL     1       5.211   5.194  19.239  0.00  0.00    +0.000 C 
ATOM      7  C   UNL     1       6.476   5.835  18.660  0.00  0.00    +0.000 C 
BRANCH   5   8
ATOM      8  C   UNL     1       3.168   3.905  18.402  0.00  0.00    +0.000 A 
ATOM      9  C   UNL     1       3.532   2.575  18.660  0.00  0.00    +0.000 A 
ATOM     10  C   UNL     1       2.562   1.598  18.840  0.00  0.00    +0.000 A 
ATOM     11  C   UNL     1       1.217   1.935  18.788  0.00  0.00    +0.000 A 
ATOM     12  C   UNL     1       0.835   3.263  18.568  0.00  0.00    +0.000 A 
ATOM     13  C   UNL     1       1.807   4.241  18.381  0.00  0.00    +0.000 A 
ENDBRANCH   5   8
ENDBRANCH   1   2
BRANCH   1  14
ATOM     14  C   UNL     1       8.333   7.979  18.418  0.00  0.00    +0.000 C 
BRANCH  14  15
ATOM     15  C   UNL     1       8.784   9.420  18.243  0.00  0.00    +0.000 C 
ATOM     16  C   UNL     1       9.171  10.656  18.094  0.00  0.00    +0.000 C 
BRANCH  16  17
ATOM     17  C   UNL     1       9.605  12.015  17.946  0.00  0.00    +0.000 A 
ATOM     18  C   UNL     1      10.938  12.290  17.613  0.00  0.00    +0.000 A 
ATOM     19  C   UNL     1      11.392  13.607  17.459  0.00  0.00    +0.000 A 
ATOM     20  C   UNL     1      10.452  14.615  17.655  0.00  0.00    +0.000 A 
ATOM     21  O   UNL     1      10.688  15.952  17.552  0.00  0.00    +0.000 OA
ATOM     22  C   UNL     1       9.515  16.586  17.816  0.00  0.00    +0.000 A 
ATOM     23  C   UNL     1       8.522  15.671  18.091  0.00  0.00    +0.000 A 
ATOM     24  C   UNL     1       9.120  14.387  17.988  0.00  0.00    +0.000 A 
ATOM     25  C   UNL     1       8.686  13.057  18.138  0.00  0.00    +0.000 A 
ENDBRANCH  16  17
ENDBRANCH  14  15
ENDBRANCH   1  14
TORSDOF 5
ENDMDL
