MODEL 1
REMARK VINA RESULT:      -6.7      0.000      0.000
REMARK  Name = 
REMARK  6 active torsions:
REMARK  status: ('A' for Active; 'I' for Inactive)
REMARK    1  A    between atoms: C_1  and  N_2
REMARK    2  A    between atoms: C_5  and  N_6
REMARK    3  A    between atoms: N_6  and  C_7
REMARK    4  A    between atoms: N_6  and  S_8
REMARK    5  A    between atoms: S_8  and  C_11
REMARK    6  A    between atoms: C_14  and  C_15
REMARK                            x       y       z     vdW  Elec       q    Type
REMARK                         _______ _______ _______ _____ _____    ______ ____
ROOT
ATOM      1  S   UNL     1       3.253   2.843  19.786  0.00  0.00    +0.000 S 
ATOM      2  O   UNL     1       4.063   2.337  20.870  0.00  0.00    +0.000 OA
ATOM      3  O   UNL     1       2.344   1.968  19.074  0.00  0.00    +0.000 OA
ENDROOT
BRANCH   1   4
ATOM      4  C   UNL     1       4.407   3.508  18.578  0.00  0.00    +0.000 A 
ATOM      5  C   UNL     1       5.553   4.209  18.962  0.00  0.00    +0.000 A 
ATOM      6  C   UNL     1       6.406   4.733  17.968  0.00  0.00    +0.000 A 
ATOM      7  C   UNL     1       6.137   4.530  16.606  0.00  0.00    +0.000 A 
ATOM      8  C   UNL     1       5.014   3.779  16.233  0.00  0.00    +0.000 A 
ATOM      9  C   UNL     1       4.162   3.266  17.217  0.00  0.00    +0.000 A 
BRANCH   7  10
ATOM     10  C   UNL     1       7.000   5.087  15.592  0.00  0.00    +0.000 C 
ATOM     11  N   UNL     1       7.690   5.539  14.781  0.00  0.00    +0.000 NA
ENDBRANCH   7  10
ENDBRANCH   1   4
BRANCH   1  12
ATOM     12  N   UNL     1       2.262   4.149  20.413  0.00  0.00    +0.000 NA
ATOM     13  C   UNL     1       0.809   3.794  20.169  0.00  0.00    +0.000 C 
BRANCH  12  18
ATOM     14  C   UNL     1       2.037   9.374  17.998  0.00  0.00    +0.000 C 
ATOM     15  N   UNL     1       1.730   8.050  18.541  0.00  0.00    +0.000 NA
ATOM     16  C   UNL     1       2.474   7.027  17.807  0.00  0.00    +0.000 C 
ATOM     17  C   UNL     1       2.194   5.631  18.355  0.00  0.00    +0.000 C 
ATOM     18  C   UNL     1       2.549   5.541  19.851  0.00  0.00    +0.000 C 
ATOM     19  C   UNL     1       1.767   6.639  20.568  0.00  0.00    +0.000 C 
ATOM     20  C   UNL     1       2.043   8.011  19.968  0.00  0.00    +0.000 C 
ENDBRANCH  12  18
ENDBRANCH   1  12
TORSDOF 4
ENDMDL
MODEL 2
REMARK VINA RESULT:      -6.6      4.296      5.963
REMARK  Name = 
REMARK  6 active torsions:
REMARK  status: ('A' for Active; 'I' for Inactive)
REMARK    1  A    between atoms: C_1  and  N_2
REMARK    2  A    between atoms: C_5  and  N_6
REMARK    3  A    between atoms: N_6  and  C_7
REMARK    4  A    between atoms: N_6  and  S_8
REMARK    5  A    between atoms: S_8  and  C_11
REMARK    6  A    between atoms: C_14  and  C_15
REMARK                            x       y       z     vdW  Elec       q    Type
REMARK                         _______ _______ _______ _____ _____    ______ ____
ROOT
ATOM      1  S   UNL     1       0.810   8.998  21.187  0.00  0.00    +0.000 S 
ATOM      2  O   UNL     1       1.763   9.381  22.204  0.00  0.00    +0.000 OA
ATOM      3  O   UNL     1      -0.471   8.430  21.555  0.00  0.00    +0.000 OA
ENDROOT
BRANCH   1   4
ATOM      4  C   UNL     1       1.650   7.791  20.153  0.00  0.00    +0.000 A 
ATOM      5  C   UNL     1       2.193   8.136  18.913  0.00  0.00    +0.000 A 
ATOM      6  C   UNL     1       2.815   7.139  18.132  0.00  0.00    +0.000 A 
ATOM      7  C   UNL     1       2.924   5.820  18.598  0.00  0.00    +0.000 A 
ATOM      8  C   UNL     1       2.423   5.497  19.867  0.00  0.00    +0.000 A 
ATOM      9  C   UNL     1       1.798   6.483  20.639  0.00  0.00    +0.000 A 
BRANCH   7  10
ATOM     10  C   UNL     1       3.541   4.799  17.786  0.00  0.00    +0.000 C 
ATOM     11  N   UNL     1       4.031   3.980  17.132  0.00  0.00    +0.000 NA
ENDBRANCH   7  10
ENDBRANCH   1   4
BRANCH   1  12
ATOM     12  N   UNL     1       0.441  10.420  20.227  0.00  0.00    +0.000 NA
ATOM     13  C   UNL     1       0.485  11.628  21.141  0.00  0.00    +0.000 C 
BRANCH  12  18
ATOM     14  C   UNL     1      -4.022  11.345  16.704  0.00  0.00    +0.000 C 
ATOM     15  N   UNL     1      -2.734  11.380  17.397  0.00  0.00    +0.000 NA
ATOM     16  C   UNL     1      -2.935  11.723  18.805  0.00  0.00    +0.000 C 
ATOM     17  C   UNL     1      -1.614  11.753  19.568  0.00  0.00    +0.000 C 
ATOM     18  C   UNL     1      -0.889  10.398  19.474  0.00  0.00    +0.000 C 
ATOM     19  C   UNL     1      -0.723  10.075  17.991  0.00  0.00    +0.000 C 
ATOM     20  C   UNL     1      -2.057  10.093  17.257  0.00  0.00    +0.000 C 
ENDBRANCH  12  18
ENDBRANCH   1  12
TORSDOF 4
ENDMDL
MODEL 3
REMARK VINA RESULT:      -6.5      0.971      1.428
REMARK  Name = 
REMARK  6 active torsions:
REMARK  status: ('A' for Active; 'I' for Inactive)
REMARK    1  A    between atoms: C_1  and  N_2
REMARK    2  A    between atoms: C_5  and  N_6
REMARK    3  A    between atoms: N_6  and  C_7
REMARK    4  A    between atoms: N_6  and  S_8
REMARK    5  A    between atoms: S_8  and  C_11
REMARK    6  A    between atoms: C_14  and  C_15
REMARK                            x       y       z     vdW  Elec       q    Type
REMARK                         _______ _______ _______ _____ _____    ______ ____
ROOT
ATOM      1  S   UNL     1       3.291   3.421  19.192  0.00  0.00    +0.000 S 
ATOM      2  O   UNL     1       3.915   2.374  19.968  0.00  0.00    +0.000 OA
ATOM      3  O   UNL     1       2.041   3.180  18.501  0.00  0.00    +0.000 OA
ENDROOT
BRANCH   1   4
ATOM      4  C   UNL     1       4.500   3.904  17.952  0.00  0.00    +0.000 A 
ATOM      5  C   UNL     1       5.786   4.322  18.302  0.00  0.00    +0.000 A 
ATOM      6  C   UNL     1       6.682   4.717  17.287  0.00  0.00    +0.000 A 
ATOM      7  C   UNL     1       6.310   4.662  15.934  0.00  0.00    +0.000 A 
ATOM      8  C   UNL     1       5.036   4.188  15.592  0.00  0.00    +0.000 A 
ATOM      9  C   UNL     1       4.143   3.805  16.598  0.00  0.00    +0.000 A 
BRANCH   7  10
ATOM     10  C   UNL     1       7.222   5.088  14.900  0.00  0.00    +0.000 C 
ATOM     11  N   UNL     1       7.951   5.434  14.070  0.00  0.00    +0.000 NA
ENDBRANCH   7  10
ENDBRANCH   1   4
BRANCH   1  12
ATOM     12  N   UNL     1       2.989   4.781  20.260  0.00  0.00    +0.000 NA
ATOM     13  C   UNL     1       2.228   4.269  21.467  0.00  0.00    +0.000 C 
BRANCH  12  18
ATOM     14  C   UNL     1       1.187   9.947  18.459  0.00  0.00    +0.000 C 
ATOM     15  N   UNL     1       1.933   8.831  19.042  0.00  0.00    +0.000 NA
ATOM     16  C   UNL     1       1.137   8.195  20.091  0.00  0.00    +0.000 C 
ATOM     17  C   UNL     1       1.875   7.014  20.715  0.00  0.00    +0.000 C 
ATOM     18  C   UNL     1       2.241   5.964  19.648  0.00  0.00    +0.000 C 
ATOM     19  C   UNL     1       3.048   6.679  18.568  0.00  0.00    +0.000 C 
ATOM     20  C   UNL     1       2.296   7.874  17.999  0.00  0.00    +0.000 C 
ENDBRANCH  12  18
ENDBRANCH   1  12
TORSDOF 4
ENDMDL
MODEL 4
REMARK VINA RESULT:      -6.5      0.254      1.111
REMARK  Name = 
REMARK  6 active torsions:
REMARK  status: ('A' for Active; 'I' for Inactive)
REMARK    1  A    between atoms: C_1  and  N_2
REMARK    2  A    between atoms: C_5  and  N_6
REMARK    3  A    between atoms: N_6  and  C_7
REMARK    4  A    between atoms: N_6  and  S_8
REMARK    5  A    between atoms: S_8  and  C_11
REMARK    6  A    between atoms: C_14  and  C_15
REMARK                            x       y       z     vdW  Elec       q    Type
REMARK                         _______ _______ _______ _____ _____    ______ ____
ROOT
ATOM      1  S   UNL     1       3.377   2.722  19.643  0.00  0.00    +0.000 S 
ATOM      2  O   UNL     1       4.254   2.423  20.752  0.00  0.00    +0.000 OA
ATOM      3  O   UNL     1       2.591   1.676  19.023  0.00  0.00    +0.000 OA
ENDROOT
BRANCH   1   4
ATOM      4  C   UNL     1       4.422   3.433  18.364  0.00  0.00    +0.000 A 
ATOM      5  C   UNL     1       4.089   3.346  17.010  0.00  0.00    +0.000 A 
ATOM      6  C   UNL     1       4.962   3.897  16.049  0.00  0.00    +0.000 A 
ATOM      7  C   UNL     1       6.138   4.558  16.437  0.00  0.00    +0.000 A 
ATOM      8  C   UNL     1       6.435   4.686  17.801  0.00  0.00    +0.000 A 
ATOM      9  C   UNL     1       5.574   4.132  18.755  0.00  0.00    +0.000 A 
BRANCH   7  10
ATOM     10  C   UNL     1       7.040   5.100  15.450  0.00  0.00    +0.000 C 
ATOM     11  N   UNL     1       7.764   5.540  14.661  0.00  0.00    +0.000 NA
ENDBRANCH   7  10
ENDBRANCH   1   4
BRANCH   1  12
ATOM     12  N   UNL     1       2.221   3.931  20.177  0.00  0.00    +0.000 NA
ATOM     13  C   UNL     1       0.849   3.521  19.678  0.00  0.00    +0.000 C 
BRANCH  12  18
ATOM     14  C   UNL     1       1.999   9.371  18.295  0.00  0.00    +0.000 C 
ATOM     15  N   UNL     1       1.691   8.000  18.706  0.00  0.00    +0.000 NA
ATOM     16  C   UNL     1       2.426   7.053  17.869  0.00  0.00    +0.000 C 
ATOM     17  C   UNL     1       2.144   5.610  18.277  0.00  0.00    +0.000 C 
ATOM     18  C   UNL     1       2.509   5.370  19.754  0.00  0.00    +0.000 C 
ATOM     19  C   UNL     1       1.737   6.395  20.583  0.00  0.00    +0.000 C 
ATOM     20  C   UNL     1       2.014   7.819  20.120  0.00  0.00    +0.000 C 
ENDBRANCH  12  18
ENDBRANCH   1  12
TORSDOF 4
ENDMDL
MODEL 5
REMARK VINA RESULT:      -6.4      1.668      2.412
REMARK  Name = 
REMARK  6 active torsions:
REMARK  status: ('A' for Active; 'I' for Inactive)
REMARK    1  A    between atoms: C_1  and  N_2
REMARK    2  A    between atoms: C_5  and  N_6
REMARK    3  A    between atoms: N_6  and  C_7
REMARK    4  A    between atoms: N_6  and  S_8
REMARK    5  A    between atoms: S_8  and  C_11
REMARK    6  A    between atoms: C_14  and  C_15
REMARK                            x       y       z     vdW  Elec       q    Type
REMARK                         _______ _______ _______ _____ _____    ______ ____
ROOT
ATOM      1  S   UNL     1       2.667   4.553  18.419  0.00  0.00    +0.000 S 
ATOM      2  O   UNL     1       2.916   3.318  19.127  0.00  0.00    +0.000 OA
ATOM      3  O   UNL     1       1.425   4.754  17.702  0.00  0.00    +0.000 OA
ENDROOT
BRANCH   1   4
ATOM      4  C   UNL     1       4.002   4.715  17.225  0.00  0.00    +0.000 A 
ATOM      5  C   UNL     1       4.617   3.598  16.653  0.00  0.00    +0.000 A 
ATOM      6  C   UNL     1       5.680   3.787  15.744  0.00  0.00    +0.000 A 
ATOM      7  C   UNL     1       6.101   5.076  15.384  0.00  0.00    +0.000 A 
ATOM      8  C   UNL     1       5.440   6.189  15.922  0.00  0.00    +0.000 A 
ATOM      9  C   UNL     1       4.392   6.004  16.830  0.00  0.00    +0.000 A 
BRANCH   7  10
ATOM     10  C   UNL     1       7.203   5.265  14.471  0.00  0.00    +0.000 C 
ATOM     11  N   UNL     1       8.083   5.414  13.735  0.00  0.00    +0.000 NA
ENDBRANCH   7  10
ENDBRANCH   1   4
BRANCH   1  12
ATOM     12  N   UNL     1       2.767   5.871  19.574  0.00  0.00    +0.000 NA
ATOM     13  C   UNL     1       2.464   5.312  20.950  0.00  0.00    +0.000 C 
BRANCH  12  18
ATOM     14  C   UNL     1       0.432  11.102  18.974  0.00  0.00    +0.000 C 
ATOM     15  N   UNL     1       1.323   9.969  19.229  0.00  0.00    +0.000 NA
ATOM     16  C   UNL     1       0.764   9.126  20.286  0.00  0.00    +0.000 C 
ATOM     17  C   UNL     1       1.657   7.922  20.571  0.00  0.00    +0.000 C 
ATOM     18  C   UNL     1       1.866   7.074  19.302  0.00  0.00    +0.000 C 
ATOM     19  C   UNL     1       2.427   8.001  18.226  0.00  0.00    +0.000 C 
ATOM     20  C   UNL     1       1.529   9.209  17.998  0.00  0.00    +0.000 C 
ENDBRANCH  12  18
ENDBRANCH   1  12
TORSDOF 4
ENDMDL
MODEL 6
REMARK VINA RESULT:      -6.4      1.618      2.173
REMARK  Name = 
REMARK  6 active torsions:
REMARK  status: ('A' for Active; 'I' for Inactive)
REMARK    1  A    between atoms: C_1  and  N_2
REMARK    2  A    between atoms: C_5  and  N_6
REMARK    3  A    between atoms: N_6  and  C_7
REMARK    4  A    between atoms: N_6  and  S_8
REMARK    5  A    between atoms: S_8  and  C_11
REMARK    6  A    between atoms: C_14  and  C_15
REMARK                            x       y       z     vdW  Elec       q    Type
REMARK                         _______ _______ _______ _____ _____    ______ ____
ROOT
ATOM      1  S   UNL     1       3.478   3.226  17.571  0.00  0.00    +0.000 S 
ATOM      2  O   UNL     1       3.825   1.848  17.833  0.00  0.00    +0.000 OA
ATOM      3  O   UNL     1       2.221   3.563  16.937  0.00  0.00    +0.000 OA
ENDROOT
BRANCH   1   4
ATOM      4  C   UNL     1       4.791   3.876  16.529  0.00  0.00    +0.000 A 
ATOM      5  C   UNL     1       5.870   4.586  17.061  0.00  0.00    +0.000 A 
ATOM      6  C   UNL     1       6.856   5.097  16.190  0.00  0.00    +0.000 A 
ATOM      7  C   UNL     1       6.783   4.872  14.806  0.00  0.00    +0.000 A 
ATOM      8  C   UNL     1       5.725   4.112  14.290  0.00  0.00    +0.000 A 
ATOM      9  C   UNL     1       4.742   3.612  15.151  0.00  0.00    +0.000 A 
BRANCH   7  10
ATOM     10  C   UNL     1       7.781   5.415  13.917  0.00  0.00    +0.000 C 
ATOM     11  N   UNL     1       8.579   5.848  13.199  0.00  0.00    +0.000 NA
ENDBRANCH   7  10
ENDBRANCH   1   4
BRANCH   1  12
ATOM     12  N   UNL     1       3.483   4.086  19.102  0.00  0.00    +0.000 NA
ATOM     13  C   UNL     1       3.124   3.099  20.195  0.00  0.00    +0.000 C 
BRANCH  12  18
ATOM     14  C   UNL     1       0.983   9.149  20.243  0.00  0.00    +0.000 C 
ATOM     15  N   UNL     1       1.889   8.003  20.163  0.00  0.00    +0.000 NA
ATOM     16  C   UNL     1       1.244   6.818  20.728  0.00  0.00    +0.000 C 
ATOM     17  C   UNL     1       2.152   5.594  20.648  0.00  0.00    +0.000 C 
ATOM     18  C   UNL     1       2.564   5.304  19.192  0.00  0.00    +0.000 C 
ATOM     19  C   UNL     1       3.210   6.573  18.643  0.00  0.00    +0.000 C 
ATOM     20  C   UNL     1       2.289   7.778  18.776  0.00  0.00    +0.000 C 
ENDBRANCH  12  18
ENDBRANCH   1  12
TORSDOF 4
ENDMDL
MODEL 7
REMARK VINA RESULT:      -6.3      1.364      1.936
REMARK  Name = 
REMARK  6 active torsions:
REMARK  status: ('A' for Active; 'I' for Inactive)
REMARK    1  A    between atoms: C_1  and  N_2
REMARK    2  A    between atoms: C_5  and  N_6
REMARK    3  A    between atoms: N_6  and  C_7
REMARK    4  A    between atoms: N_6  and  S_8
REMARK    5  A    between atoms: S_8  and  C_11
REMARK    6  A    between atoms: C_14  and  C_15
REMARK                            x       y       z     vdW  Elec       q    Type
REMARK                         _______ _______ _______ _____ _____    ______ ____
ROOT
ATOM      1  S   UNL     1       4.578   3.894  19.118  0.00  0.00    +0.000 S 
ATOM      2  O   UNL     1       5.378   4.534  20.137  0.00  0.00    +0.000 OA
ATOM      3  O   UNL     1       4.361   2.462  19.142  0.00  0.00    +0.000 OA
ENDROOT
BRANCH   1   4
ATOM      4  C   UNL     1       5.367   4.287  17.551  0.00  0.00    +0.000 A 
ATOM      5  C   UNL     1       5.044   3.608  16.373  0.00  0.00    +0.000 A 
ATOM      6  C   UNL     1       5.718   3.940  15.179  0.00  0.00    +0.000 A 
ATOM      7  C   UNL     1       6.680   4.962  15.154  0.00  0.00    +0.000 A 
ATOM      8  C   UNL     1       6.957   5.673  16.329  0.00  0.00    +0.000 A 
ATOM      9  C   UNL     1       6.296   5.339  17.516  0.00  0.00    +0.000 A 
BRANCH   7  10
ATOM     10  C   UNL     1       7.383   5.283  13.935  0.00  0.00    +0.000 C 
ATOM     11  N   UNL     1       7.946   5.535  12.956  0.00  0.00    +0.000 NA
ENDBRANCH   7  10
ENDBRANCH   1   4
BRANCH   1  12
ATOM     12  N   UNL     1       2.978   4.617  19.151  0.00  0.00    +0.000 NA
ATOM     13  C   UNL     1       2.218   4.131  17.933  0.00  0.00    +0.000 C 
BRANCH  12  18
ATOM     14  C   UNL     1       1.567  10.195  18.864  0.00  0.00    +0.000 C 
ATOM     15  N   UNL     1       1.580   8.732  18.813  0.00  0.00    +0.000 NA
ATOM     16  C   UNL     1       2.615   8.275  17.886  0.00  0.00    +0.000 C 
ATOM     17  C   UNL     1       2.671   6.752  17.816  0.00  0.00    +0.000 C 
ATOM     18  C   UNL     1       2.930   6.143  19.207  0.00  0.00    +0.000 C 
ATOM     19  C   UNL     1       1.840   6.666  20.140  0.00  0.00    +0.000 C 
ATOM     20  C   UNL     1       1.790   8.187  20.152  0.00  0.00    +0.000 C 
ENDBRANCH  12  18
ENDBRANCH   1  12
TORSDOF 4
ENDMDL
MODEL 8
REMARK VINA RESULT:      -6.2      1.663      5.883
REMARK  Name = 
REMARK  6 active torsions:
REMARK  status: ('A' for Active; 'I' for Inactive)
REMARK    1  A    between atoms: C_1  and  N_2
REMARK    2  A    between atoms: C_5  and  N_6
REMARK    3  A    between atoms: N_6  and  C_7
REMARK    4  A    between atoms: N_6  and  S_8
REMARK    5  A    between atoms: S_8  and  C_11
REMARK    6  A    between atoms: C_14  and  C_15
REMARK                            x       y       z     vdW  Elec       q    Type
REMARK                         _______ _______ _______ _____ _____    ______ ____
ROOT
ATOM      1  S   UNL     1       2.979   3.528  18.073  0.00  0.00    +0.000 S 
ATOM      2  O   UNL     1       2.381   3.583  16.759  0.00  0.00    +0.000 OA
ATOM      3  O   UNL     1       2.676   2.437  18.975  0.00  0.00    +0.000 OA
ENDROOT
BRANCH   1   4
ATOM      4  C   UNL     1       2.499   5.051  18.899  0.00  0.00    +0.000 A 
ATOM      5  C   UNL     1       2.661   6.300  18.293  0.00  0.00    +0.000 A 
ATOM      6  C   UNL     1       2.293   7.463  19.002  0.00  0.00    +0.000 A 
ATOM      7  C   UNL     1       1.736   7.378  20.287  0.00  0.00    +0.000 A 
ATOM      8  C   UNL     1       1.527   6.118  20.863  0.00  0.00    +0.000 A 
ATOM      9  C   UNL     1       1.900   4.964  20.165  0.00  0.00    +0.000 A 
BRANCH   7  10
ATOM     10  C   UNL     1       1.381   8.571  21.017  0.00  0.00    +0.000 C 
ATOM     11  N   UNL     1       1.103   9.529  21.604  0.00  0.00    +0.000 NA
ENDBRANCH   7  10
ENDBRANCH   1   4
BRANCH   1  12
ATOM     12  N   UNL     1       4.723   3.509  17.873  0.00  0.00    +0.000 NA
ATOM     13  C   UNL     1       5.345   4.093  19.127  0.00  0.00    +0.000 C 
BRANCH  12  18
ATOM     14  C   UNL     1       7.861   5.500  13.472  0.00  0.00    +0.000 C 
ATOM     15  N   UNL     1       7.360   4.776  14.641  0.00  0.00    +0.000 NA
ATOM     16  C   UNL     1       7.109   5.713  15.736  0.00  0.00    +0.000 C 
ATOM     17  C   UNL     1       6.568   4.998  16.971  0.00  0.00    +0.000 C 
ATOM     18  C   UNL     1       5.269   4.237  16.646  0.00  0.00    +0.000 C 
ATOM     19  C   UNL     1       5.575   3.293  15.487  0.00  0.00    +0.000 C 
ATOM     20  C   UNL     1       6.149   4.037  14.289  0.00  0.00    +0.000 C 
ENDBRANCH  12  18
ENDBRANCH   1  12
TORSDOF 4
ENDMDL
MODEL 9
REMARK VINA RESULT:      -6.2      1.204      2.025
REMARK  Name = 
REMARK  6 active torsions:
REMARK  status: ('A' for Active; 'I' for Inactive)
REMARK    1  A    between atoms: C_1  and  N_2
REMARK    2  A    between atoms: C_5  and  N_6
REMARK    3  A    between atoms: N_6  and  C_7
REMARK    4  A    between atoms: N_6  and  S_8
REMARK    5  A    between atoms: S_8  and  C_11
REMARK    6  A    between atoms: C_14  and  C_15
REMARK                            x       y       z     vdW  Elec       q    Type
REMARK                         _______ _______ _______ _____ _____    ______ ____
ROOT
ATOM      1  S   UNL     1       3.569   3.623  18.661  0.00  0.00    +0.000 S 
ATOM      2  O   UNL     1       4.246   2.575  19.390  0.00  0.00    +0.000 OA
ATOM      3  O   UNL     1       2.280   3.380  18.047  0.00  0.00    +0.000 OA
ENDROOT
BRANCH   1   4
ATOM      4  C   UNL     1       4.697   4.122  17.352  0.00  0.00    +0.000 A 
ATOM      5  C   UNL     1       4.307   4.137  16.011  0.00  0.00    +0.000 A 
ATOM      6  C   UNL     1       5.244   4.510  15.025  0.00  0.00    +0.000 A 
ATOM      7  C   UNL     1       6.546   4.897  15.377  0.00  0.00    +0.000 A 
ATOM      8  C   UNL     1       6.910   4.931  16.730  0.00  0.00    +0.000 A 
ATOM      9  C   UNL     1       5.984   4.553  17.709  0.00  0.00    +0.000 A 
BRANCH   7  10
ATOM     10  C   UNL     1       7.509   5.257  14.363  0.00  0.00    +0.000 C 
ATOM     11  N   UNL     1       8.277   5.549  13.549  0.00  0.00    +0.000 NA
ENDBRANCH   7  10
ENDBRANCH   1   4
BRANCH   1  12
ATOM     12  N   UNL     1       3.326   4.974  19.755  0.00  0.00    +0.000 NA
ATOM     13  C   UNL     1       2.677   4.444  21.019  0.00  0.00    +0.000 C 
BRANCH  12  18
ATOM     14  C   UNL     1       1.201  10.112  18.249  0.00  0.00    +0.000 C 
ATOM     15  N   UNL     1       2.016   9.014  18.769  0.00  0.00    +0.000 NA
ATOM     16  C   UNL     1       1.264   8.271  19.779  0.00  0.00    +0.000 C 
ATOM     17  C   UNL     1       2.076   7.104  20.335  0.00  0.00    +0.000 C 
ATOM     18  C   UNL     1       2.504   6.141  19.211  0.00  0.00    +0.000 C 
ATOM     19  C   UNL     1       3.263   6.966  18.174  0.00  0.00    +0.000 C 
ATOM     20  C   UNL     1       2.435   8.142  17.673  0.00  0.00    +0.000 C 
ENDBRANCH  12  18
ENDBRANCH   1  12
TORSDOF 4
ENDMDL
