MODEL 1
REMARK VINA RESULT:      -7.0      0.000      0.000
REMARK  Name = 
REMARK  6 active torsions:
REMARK  status: ('A' for Active; 'I' for Inactive)
REMARK    1  A    between atoms: C_1  and  N_2
REMARK    2  A    between atoms: N_2  and  C_3
REMARK    3  A    between atoms: C_3  and  C_4
REMARK    4  A    between atoms: C_9  and  O_10
REMARK    5  A    between atoms: O_10  and  C_11
REMARK    6  A    between atoms: C_11  and  C_12
REMARK                            x       y       z     vdW  Elec       q    Type
REMARK                         _______ _______ _______ _____ _____    ______ ____
ROOT
ATOM      1  C   UNL     1       6.084   5.336  18.820  0.00  0.00    +0.000 A 
ATOM      2  C   UNL     1       7.366   5.813  19.170  0.00  0.00    +0.000 A 
ATOM      3  C   UNL     1       7.973   6.836  18.445  0.00  0.00    +0.000 A 
ATOM      4  C   UNL     1       7.312   7.414  17.367  0.00  0.00    +0.000 A 
ATOM      5  C   UNL     1       6.055   6.952  16.992  0.00  0.00    +0.000 A 
ATOM      6  C   UNL     1       5.422   5.894  17.696  0.00  0.00    +0.000 A 
ENDROOT
BRANCH   1   7
ATOM      7  C   UNL     1       5.461   4.259  19.683  0.00  0.00    +0.000 C 
BRANCH   7   9
ATOM      8  C   UNL     1       4.390   2.122  19.785  0.00  0.00    +0.000 C 
ATOM      9  N   UNL     1       5.183   3.026  18.942  0.00  0.00    +0.000 NA
ATOM     10  H   UNL     1       6.092   2.554  18.725  0.00  0.00    +0.000 HD
ENDBRANCH   7   9
ENDBRANCH   1   7
BRANCH   6  11
ATOM     11  O   UNL     1       4.216   5.403  17.285  0.00  0.00    +0.000 OA
BRANCH  11  12
ATOM     12  C   UNL     1       3.007   5.887  17.769  0.00  0.00    +0.000 C 
BRANCH  12  13
ATOM     13  C   UNL     1       2.188   4.866  18.513  0.00  0.00    +0.000 A 
ATOM     14  C   UNL     1       1.654   3.723  17.894  0.00  0.00    +0.000 A 
ATOM     15  C   UNL     1       0.866   2.831  18.630  0.00  0.00    +0.000 A 
ATOM     16  C   UNL     1       0.600   3.078  19.982  0.00  0.00    +0.000 A 
ATOM     17  C   UNL     1       1.127   4.212  20.602  0.00  0.00    +0.000 A 
ATOM     18  C   UNL     1       1.924   5.096  19.880  0.00  0.00    +0.000 A 
ATOM     19  F   UNL     1       2.417   6.199  20.500  0.00  0.00    +0.000 F 
ENDBRANCH  12  13
ENDBRANCH  11  12
ENDBRANCH   6  11
TORSDOF 5
ENDMDL
MODEL 2
REMARK VINA RESULT:      -7.0      2.266      3.048
REMARK  Name = 
REMARK  6 active torsions:
REMARK  status: ('A' for Active; 'I' for Inactive)
REMARK    1  A    between atoms: C_1  and  N_2
REMARK    2  A    between atoms: N_2  and  C_3
REMARK    3  A    between atoms: C_3  and  C_4
REMARK    4  A    between atoms: C_9  and  O_10
REMARK    5  A    between atoms: O_10  and  C_11
REMARK    6  A    between atoms: C_11  and  C_12
REMARK                            x       y       z     vdW  Elec       q    Type
REMARK                         _______ _______ _______ _____ _____    ______ ____
ROOT
ATOM      1  C   UNL     1       6.092   5.828  16.820  0.00  0.00    +0.000 A 
ATOM      2  C   UNL     1       7.266   6.533  17.162  0.00  0.00    +0.000 A 
ATOM      3  C   UNL     1       7.785   6.479  18.454  0.00  0.00    +0.000 A 
ATOM      4  C   UNL     1       7.155   5.712  19.427  0.00  0.00    +0.000 A 
ATOM      5  C   UNL     1       5.987   5.020  19.120  0.00  0.00    +0.000 A 
ATOM      6  C   UNL     1       5.421   5.077  17.820  0.00  0.00    +0.000 A 
ENDROOT
BRANCH   1   7
ATOM      7  C   UNL     1       5.613   5.889  15.385  0.00  0.00    +0.000 C 
BRANCH   7   9
ATOM      8  C   UNL     1       6.247   3.915  14.190  0.00  0.00    +0.000 C 
ATOM      9  N   UNL     1       6.578   5.323  14.438  0.00  0.00    +0.000 NA
ATOM     10  H   UNL     1       7.531   5.362  14.869  0.00  0.00    +0.000 HD
ENDBRANCH   7   9
ENDBRANCH   1   7
BRANCH   6  11
ATOM     11  O   UNL     1       4.242   4.446  17.542  0.00  0.00    +0.000 OA
BRANCH  11  12
ATOM     12  C   UNL     1       3.960   3.159  17.982  0.00  0.00    +0.000 C 
BRANCH  12  13
ATOM     13  C   UNL     1       2.980   3.099  19.122  0.00  0.00    +0.000 A 
ATOM     14  C   UNL     1       1.652   3.547  19.009  0.00  0.00    +0.000 A 
ATOM     15  C   UNL     1       0.800   3.502  20.118  0.00  0.00    +0.000 A 
ATOM     16  C   UNL     1       1.268   3.021  21.345  0.00  0.00    +0.000 A 
ATOM     17  C   UNL     1       2.585   2.575  21.465  0.00  0.00    +0.000 A 
ATOM     18  C   UNL     1       3.434   2.602  20.362  0.00  0.00    +0.000 A 
ATOM     19  F   UNL     1       4.715   2.175  20.504  0.00  0.00    +0.000 F 
ENDBRANCH  12  13
ENDBRANCH  11  12
ENDBRANCH   6  11
TORSDOF 5
ENDMDL
MODEL 3
REMARK VINA RESULT:      -6.9      1.891      2.486
REMARK  Name = 
REMARK  6 active torsions:
REMARK  status: ('A' for Active; 'I' for Inactive)
REMARK    1  A    between atoms: C_1  and  N_2
REMARK    2  A    between atoms: N_2  and  C_3
REMARK    3  A    between atoms: C_3  and  C_4
REMARK    4  A    between atoms: C_9  and  O_10
REMARK    5  A    between atoms: O_10  and  C_11
REMARK    6  A    between atoms: C_11  and  C_12
REMARK                            x       y       z     vdW  Elec       q    Type
REMARK                         _______ _______ _______ _____ _____    ______ ____
ROOT
ATOM      1  C   UNL     1       4.757   4.294  17.050  0.00  0.00    +0.000 A 
ATOM      2  C   UNL     1       5.191   4.053  15.729  0.00  0.00    +0.000 A 
ATOM      3  C   UNL     1       5.513   5.107  14.876  0.00  0.00    +0.000 A 
ATOM      4  C   UNL     1       5.423   6.419  15.324  0.00  0.00    +0.000 A 
ATOM      5  C   UNL     1       4.982   6.685  16.617  0.00  0.00    +0.000 A 
ATOM      6  C   UNL     1       4.622   5.634  17.500  0.00  0.00    +0.000 A 
ENDROOT
BRANCH   1   7
ATOM      7  C   UNL     1       4.474   3.102  17.939  0.00  0.00    +0.000 C 
BRANCH   7   9
ATOM      8  C   UNL     1       4.683   2.114  20.109  0.00  0.00    +0.000 C 
ATOM      9  N   UNL     1       5.200   3.155  19.212  0.00  0.00    +0.000 NA
ATOM     10  H   UNL     1       5.024   4.086  19.658  0.00  0.00    +0.000 HD
ENDBRANCH   7   9
ENDBRANCH   1   7
BRANCH   6  11
ATOM     11  O   UNL     1       4.131   5.903  18.746  0.00  0.00    +0.000 OA
BRANCH  11  12
ATOM     12  C   UNL     1       2.775   6.064  18.996  0.00  0.00    +0.000 C 
BRANCH  12  13
ATOM     13  C   UNL     1       2.132   4.890  19.686  0.00  0.00    +0.000 A 
ATOM     14  C   UNL     1       2.309   4.623  21.055  0.00  0.00    +0.000 A 
ATOM     15  C   UNL     1       1.718   3.493  21.631  0.00  0.00    +0.000 A 
ATOM     16  C   UNL     1       0.957   2.620  20.845  0.00  0.00    +0.000 A 
ATOM     17  C   UNL     1       0.778   2.879  19.485  0.00  0.00    +0.000 A 
ATOM     18  C   UNL     1       1.350   4.010  18.909  0.00  0.00    +0.000 A 
ATOM     19  F   UNL     1       1.174   4.236  17.582  0.00  0.00    +0.000 F 
ENDBRANCH  12  13
ENDBRANCH  11  12
ENDBRANCH   6  11
TORSDOF 5
ENDMDL
MODEL 4
REMARK VINA RESULT:      -6.9      1.444      1.640
REMARK  Name = 
REMARK  6 active torsions:
REMARK  status: ('A' for Active; 'I' for Inactive)
REMARK    1  A    between atoms: C_1  and  N_2
REMARK    2  A    between atoms: N_2  and  C_3
REMARK    3  A    between atoms: C_3  and  C_4
REMARK    4  A    between atoms: C_9  and  O_10
REMARK    5  A    between atoms: O_10  and  C_11
REMARK    6  A    between atoms: C_11  and  C_12
REMARK                            x       y       z     vdW  Elec       q    Type
REMARK                         _______ _______ _______ _____ _____    ______ ____
ROOT
ATOM      1  C   UNL     1       5.410   4.690  17.681  0.00  0.00    +0.000 A 
ATOM      2  C   UNL     1       6.179   4.033  16.696  0.00  0.00    +0.000 A 
ATOM      3  C   UNL     1       6.319   4.571  15.418  0.00  0.00    +0.000 A 
ATOM      4  C   UNL     1       5.709   5.779  15.099  0.00  0.00    +0.000 A 
ATOM      5  C   UNL     1       4.932   6.438  16.047  0.00  0.00    +0.000 A 
ATOM      6  C   UNL     1       4.750   5.902  17.348  0.00  0.00    +0.000 A 
ENDROOT
BRANCH   1   7
ATOM      7  C   UNL     1       5.343   4.076  19.063  0.00  0.00    +0.000 C 
BRANCH   7   9
ATOM      8  C   UNL     1       4.427   2.293  20.370  0.00  0.00    +0.000 C 
ATOM      9  N   UNL     1       4.928   2.670  19.043  0.00  0.00    +0.000 NA
ATOM     10  H   UNL     1       5.765   2.078  18.832  0.00  0.00    +0.000 HD
ENDBRANCH   7   9
ENDBRANCH   1   7
BRANCH   6  11
ATOM     11  O   UNL     1       3.937   6.521  18.253  0.00  0.00    +0.000 OA
BRANCH  11  12
ATOM     12  C   UNL     1       2.551   6.442  18.191  0.00  0.00    +0.000 C 
BRANCH  12  13
ATOM     13  C   UNL     1       1.983   5.150  18.716  0.00  0.00    +0.000 A 
ATOM     14  C   UNL     1       1.708   4.049  17.887  0.00  0.00    +0.000 A 
ATOM     15  C   UNL     1       1.142   2.889  18.428  0.00  0.00    +0.000 A 
ATOM     16  C   UNL     1       0.840   2.824  19.793  0.00  0.00    +0.000 A 
ATOM     17  C   UNL     1       1.111   3.915  20.621  0.00  0.00    +0.000 A 
ATOM     18  C   UNL     1       1.688   5.067  20.093  0.00  0.00    +0.000 A 
ATOM     19  F   UNL     1       1.931   6.120  20.914  0.00  0.00    +0.000 F 
ENDBRANCH  12  13
ENDBRANCH  11  12
ENDBRANCH   6  11
TORSDOF 5
ENDMDL
MODEL 5
REMARK VINA RESULT:      -6.9      2.175      3.067
REMARK  Name = 
REMARK  6 active torsions:
REMARK  status: ('A' for Active; 'I' for Inactive)
REMARK    1  A    between atoms: C_1  and  N_2
REMARK    2  A    between atoms: N_2  and  C_3
REMARK    3  A    between atoms: C_3  and  C_4
REMARK    4  A    between atoms: C_9  and  O_10
REMARK    5  A    between atoms: O_10  and  C_11
REMARK    6  A    between atoms: C_11  and  C_12
REMARK                            x       y       z     vdW  Elec       q    Type
REMARK                         _______ _______ _______ _____ _____    ______ ____
ROOT
ATOM      1  C   UNL     1       6.058   5.582  16.624  0.00  0.00    +0.000 A 
ATOM      2  C   UNL     1       7.239   6.275  16.965  0.00  0.00    +0.000 A 
ATOM      3  C   UNL     1       7.685   6.326  18.284  0.00  0.00    +0.000 A 
ATOM      4  C   UNL     1       6.973   5.678  19.287  0.00  0.00    +0.000 A 
ATOM      5  C   UNL     1       5.797   5.001  18.979  0.00  0.00    +0.000 A 
ATOM      6  C   UNL     1       5.304   4.953  17.649  0.00  0.00    +0.000 A 
ENDROOT
BRANCH   1   7
ATOM      7  C   UNL     1       5.660   5.522  15.164  0.00  0.00    +0.000 C 
BRANCH   7   9
ATOM      8  C   UNL     1       6.259   3.923  13.488  0.00  0.00    +0.000 C 
ATOM      9  N   UNL     1       5.445   4.153  14.688  0.00  0.00    +0.000 NA
ATOM     10  H   UNL     1       4.438   4.046  14.422  0.00  0.00    +0.000 HD
ENDBRANCH   7   9
ENDBRANCH   1   7
BRANCH   6  11
ATOM     11  O   UNL     1       4.118   4.341  17.364  0.00  0.00    +0.000 OA
BRANCH  11  12
ATOM     12  C   UNL     1       3.801   3.070  17.827  0.00  0.00    +0.000 C 
BRANCH  12  13
ATOM     13  C   UNL     1       2.957   3.061  19.073  0.00  0.00    +0.000 A 
ATOM     14  C   UNL     1       3.431   2.590  20.310  0.00  0.00    +0.000 A 
ATOM     15  C   UNL     1       2.585   2.569  21.424  0.00  0.00    +0.000 A 
ATOM     16  C   UNL     1       1.261   3.008  21.310  0.00  0.00    +0.000 A 
ATOM     17  C   UNL     1       0.784   3.476  20.084  0.00  0.00    +0.000 A 
ATOM     18  C   UNL     1       1.624   3.515  18.975  0.00  0.00    +0.000 A 
ATOM     19  F   UNL     1       1.135   3.962  17.791  0.00  0.00    +0.000 F 
ENDBRANCH  12  13
ENDBRANCH  11  12
ENDBRANCH   6  11
TORSDOF 5
ENDMDL
MODEL 6
REMARK VINA RESULT:      -6.9      1.842      5.599
REMARK  Name = 
REMARK  6 active torsions:
REMARK  status: ('A' for Active; 'I' for Inactive)
REMARK    1  A    between atoms: C_1  and  N_2
REMARK    2  A    between atoms: N_2  and  C_3
REMARK    3  A    between atoms: C_3  and  C_4
REMARK    4  A    between atoms: C_9  and  O_10
REMARK    5  A    between atoms: O_10  and  C_11
REMARK    6  A    between atoms: C_11  and  C_12
REMARK                            x       y       z     vdW  Elec       q    Type
REMARK                         _______ _______ _______ _____ _____    ______ ____
ROOT
ATOM      1  C   UNL     1       2.213   5.132  19.326  0.00  0.00    +0.000 A 
ATOM      2  C   UNL     1       1.346   4.654  20.333  0.00  0.00    +0.000 A 
ATOM      3  C   UNL     1       0.757   3.395  20.232  0.00  0.00    +0.000 A 
ATOM      4  C   UNL     1       1.028   2.583  19.138  0.00  0.00    +0.000 A 
ATOM      5  C   UNL     1       1.867   3.037  18.125  0.00  0.00    +0.000 A 
ATOM      6  C   UNL     1       2.461   4.324  18.186  0.00  0.00    +0.000 A 
ENDROOT
BRANCH   1   7
ATOM      7  C   UNL     1       2.861   6.487  19.524  0.00  0.00    +0.000 C 
BRANCH   7   9
ATOM      8  C   UNL     1       1.918   8.447  18.527  0.00  0.00    +0.000 C 
ATOM      9  N   UNL     1       2.829   7.315  18.316  0.00  0.00    +0.000 NA
ATOM     10  H   UNL     1       2.454   6.740  17.526  0.00  0.00    +0.000 HD
ENDBRANCH   7   9
ENDBRANCH   1   7
BRANCH   6  11
ATOM     11  O   UNL     1       3.233   4.789  17.160  0.00  0.00    +0.000 OA
BRANCH  11  12
ATOM     12  C   UNL     1       4.497   4.282  16.885  0.00  0.00    +0.000 C 
BRANCH  12  13
ATOM     13  C   UNL     1       5.627   5.116  17.427  0.00  0.00    +0.000 A 
ATOM     14  C   UNL     1       6.288   6.090  16.660  0.00  0.00    +0.000 A 
ATOM     15  C   UNL     1       7.359   6.806  17.207  0.00  0.00    +0.000 A 
ATOM     16  C   UNL     1       7.781   6.549  18.515  0.00  0.00    +0.000 A 
ATOM     17  C   UNL     1       7.130   5.582  19.283  0.00  0.00    +0.000 A 
ATOM     18  C   UNL     1       6.053   4.877  18.751  0.00  0.00    +0.000 A 
ATOM     19  F   UNL     1       5.442   3.932  19.510  0.00  0.00    +0.000 F 
ENDBRANCH  12  13
ENDBRANCH  11  12
ENDBRANCH   6  11
TORSDOF 5
ENDMDL
MODEL 7
REMARK VINA RESULT:      -6.8      2.396      3.185
REMARK  Name = 
REMARK  6 active torsions:
REMARK  status: ('A' for Active; 'I' for Inactive)
REMARK    1  A    between atoms: C_1  and  N_2
REMARK    2  A    between atoms: N_2  and  C_3
REMARK    3  A    between atoms: C_3  and  C_4
REMARK    4  A    between atoms: C_9  and  O_10
REMARK    5  A    between atoms: O_10  and  C_11
REMARK    6  A    between atoms: C_11  and  C_12
REMARK                            x       y       z     vdW  Elec       q    Type
REMARK                         _______ _______ _______ _____ _____    ______ ____
ROOT
ATOM      1  C   UNL     1       6.273   5.249  16.495  0.00  0.00    +0.000 A 
ATOM      2  C   UNL     1       7.238   6.194  16.904  0.00  0.00    +0.000 A 
ATOM      3  C   UNL     1       7.539   6.373  18.253  0.00  0.00    +0.000 A 
ATOM      4  C   UNL     1       6.897   5.608  19.219  0.00  0.00    +0.000 A 
ATOM      5  C   UNL     1       5.930   4.681  18.843  0.00  0.00    +0.000 A 
ATOM      6  C   UNL     1       5.584   4.494  17.479  0.00  0.00    +0.000 A 
ENDROOT
BRANCH   1   7
ATOM      7  C   UNL     1       6.033   5.068  15.010  0.00  0.00    +0.000 C 
BRANCH   7   9
ATOM      8  C   UNL     1       6.109   3.631  13.099  0.00  0.00    +0.000 C 
ATOM      9  N   UNL     1       6.301   3.701  14.553  0.00  0.00    +0.000 NA
ATOM     10  H   UNL     1       5.610   3.057  15.003  0.00  0.00    +0.000 HD
ENDBRANCH   7   9
ENDBRANCH   1   7
BRANCH   6  11
ATOM     11  O   UNL     1       4.590   3.627  17.122  0.00  0.00    +0.000 OA
BRANCH  11  12
ATOM     12  C   UNL     1       3.251   3.996  17.090  0.00  0.00    +0.000 C 
BRANCH  12  13
ATOM     13  C   UNL     1       2.540   3.848  18.408  0.00  0.00    +0.000 A 
ATOM     14  C   UNL     1       2.120   4.950  19.173  0.00  0.00    +0.000 A 
ATOM     15  C   UNL     1       1.500   4.749  20.411  0.00  0.00    +0.000 A 
ATOM     16  C   UNL     1       1.304   3.451  20.897  0.00  0.00    +0.000 A 
ATOM     17  C   UNL     1       1.719   2.353  20.142  0.00  0.00    +0.000 A 
ATOM     18  C   UNL     1       2.323   2.545  18.903  0.00  0.00    +0.000 A 
ATOM     19  F   UNL     1       2.730   1.462  18.191  0.00  0.00    +0.000 F 
ENDBRANCH  12  13
ENDBRANCH  11  12
ENDBRANCH   6  11
TORSDOF 5
ENDMDL
MODEL 8
REMARK VINA RESULT:      -6.8      2.146      2.895
REMARK  Name = 
REMARK  6 active torsions:
REMARK  status: ('A' for Active; 'I' for Inactive)
REMARK    1  A    between atoms: C_1  and  N_2
REMARK    2  A    between atoms: N_2  and  C_3
REMARK    3  A    between atoms: C_3  and  C_4
REMARK    4  A    between atoms: C_9  and  O_10
REMARK    5  A    between atoms: O_10  and  C_11
REMARK    6  A    between atoms: C_11  and  C_12
REMARK                            x       y       z     vdW  Elec       q    Type
REMARK                         _______ _______ _______ _____ _____    ______ ____
ROOT
ATOM      1  C   UNL     1       6.156   5.180  16.401  0.00  0.00    +0.000 A 
ATOM      2  C   UNL     1       7.087   6.170  16.787  0.00  0.00    +0.000 A 
ATOM      3  C   UNL     1       7.411   6.365  18.128  0.00  0.00    +0.000 A 
ATOM      4  C   UNL     1       6.827   5.573  19.110  0.00  0.00    +0.000 A 
ATOM      5  C   UNL     1       5.895   4.602  18.757  0.00  0.00    +0.000 A 
ATOM      6  C   UNL     1       5.526   4.396  17.402  0.00  0.00    +0.000 A 
ENDROOT
BRANCH   1   7
ATOM      7  C   UNL     1       5.890   4.986  14.923  0.00  0.00    +0.000 C 
BRANCH   7   9
ATOM      8  C   UNL     1       6.163   3.613  12.983  0.00  0.00    +0.000 C 
ATOM      9  N   UNL     1       6.272   3.654  14.446  0.00  0.00    +0.000 NA
ATOM     10  H   UNL     1       5.602   2.953  14.841  0.00  0.00    +0.000 HD
ENDBRANCH   7   9
ENDBRANCH   1   7
BRANCH   6  11
ATOM     11  O   UNL     1       4.565   3.485  17.069  0.00  0.00    +0.000 OA
BRANCH  11  12
ATOM     12  C   UNL     1       3.210   3.791  17.071  0.00  0.00    +0.000 C 
BRANCH  12  13
ATOM     13  C   UNL     1       2.553   3.666  18.420  0.00  0.00    +0.000 A 
ATOM     14  C   UNL     1       2.289   2.425  19.025  0.00  0.00    +0.000 A 
ATOM     15  C   UNL     1       1.638   2.373  20.262  0.00  0.00    +0.000 A 
ATOM     16  C   UNL     1       1.239   3.554  20.898  0.00  0.00    +0.000 A 
ATOM     17  C   UNL     1       1.498   4.790  20.302  0.00  0.00    +0.000 A 
ATOM     18  C   UNL     1       2.159   4.850  19.078  0.00  0.00    +0.000 A 
ATOM     19  F   UNL     1       2.389   6.062  18.510  0.00  0.00    +0.000 F 
ENDBRANCH  12  13
ENDBRANCH  11  12
ENDBRANCH   6  11
TORSDOF 5
ENDMDL
MODEL 9
REMARK VINA RESULT:      -6.8      2.220      5.766
REMARK  Name = 
REMARK  6 active torsions:
REMARK  status: ('A' for Active; 'I' for Inactive)
REMARK    1  A    between atoms: C_1  and  N_2
REMARK    2  A    between atoms: N_2  and  C_3
REMARK    3  A    between atoms: C_3  and  C_4
REMARK    4  A    between atoms: C_9  and  O_10
REMARK    5  A    between atoms: O_10  and  C_11
REMARK    6  A    between atoms: C_11  and  C_12
REMARK                            x       y       z     vdW  Elec       q    Type
REMARK                         _______ _______ _______ _____ _____    ______ ____
ROOT
ATOM      1  C   UNL     1       2.076   5.092  19.562  0.00  0.00    +0.000 A 
ATOM      2  C   UNL     1       1.351   4.448  20.588  0.00  0.00    +0.000 A 
ATOM      3  C   UNL     1       1.041   3.092  20.504  0.00  0.00    +0.000 A 
ATOM      4  C   UNL     1       1.458   2.348  19.407  0.00  0.00    +0.000 A 
ATOM      5  C   UNL     1       2.160   2.962  18.375  0.00  0.00    +0.000 A 
ATOM      6  C   UNL     1       2.468   4.347  18.420  0.00  0.00    +0.000 A 
ENDROOT
BRANCH   1   7
ATOM      7  C   UNL     1       2.424   6.555  19.741  0.00  0.00    +0.000 C 
BRANCH   7   9
ATOM      8  C   UNL     1       1.368   8.510  20.629  0.00  0.00    +0.000 C 
ATOM      9  N   UNL     1       1.810   7.144  20.935  0.00  0.00    +0.000 NA
ATOM     10  H   UNL     1       2.533   7.198  21.691  0.00  0.00    +0.000 HD
ENDBRANCH   7   9
ENDBRANCH   1   7
BRANCH   6  11
ATOM     11  O   UNL     1       3.103   4.957  17.375  0.00  0.00    +0.000 OA
BRANCH  11  12
ATOM     12  C   UNL     1       4.306   4.494  16.858  0.00  0.00    +0.000 C 
BRANCH  12  13
ATOM     13  C   UNL     1       5.519   5.216  17.380  0.00  0.00    +0.000 A 
ATOM     14  C   UNL     1       6.272   4.747  18.470  0.00  0.00    +0.000 A 
ATOM     15  C   UNL     1       7.367   5.484  18.936  0.00  0.00    +0.000 A 
ATOM     16  C   UNL     1       7.710   6.695  18.324  0.00  0.00    +0.000 A 
ATOM     17  C   UNL     1       6.966   7.167  17.242  0.00  0.00    +0.000 A 
ATOM     18  C   UNL     1       5.885   6.431  16.763  0.00  0.00    +0.000 A 
ATOM     19  F   UNL     1       5.168   6.915  15.717  0.00  0.00    +0.000 F 
ENDBRANCH  12  13
ENDBRANCH  11  12
ENDBRANCH   6  11
TORSDOF 5
ENDMDL
