MODEL 1
REMARK VINA RESULT:      -7.2      0.000      0.000
REMARK  Name = 
REMARK  8 active torsions:
REMARK  status: ('A' for Active; 'I' for Inactive)
REMARK    1  A    between atoms: C_1  and  C_2
REMARK    2  A    between atoms: C_2  and  C_3
REMARK    3  A    between atoms: C_3  and  C_4
REMARK    4  A    between atoms: C_4  and  C_5
REMARK    5  A    between atoms: C_5  and  C_6
REMARK    6  A    between atoms: C_6  and  C_7
REMARK    7  A    between atoms: C_7  and  N_8
REMARK    8  A    between atoms: N_20  and  C_21
REMARK                            x       y       z     vdW  Elec       q    Type
REMARK                         _______ _______ _______ _____ _____    ______ ____
ROOT
ATOM      1  N   UNL     1       5.505   5.118  16.373  0.00  0.00    +0.000 NA
ATOM      2  C   UNL     1       4.878   3.784  16.556  0.00  0.00    +0.000 C 
ATOM      3  C   UNL     1       4.380   3.553  18.011  0.00  0.00    +0.000 C 
ATOM      4  C   UNL     1       3.640   4.764  18.466  0.00  0.00    +0.000 A 
ATOM      5  C   UNL     1       3.723   5.979  17.827  0.00  0.00    +0.000 A 
ATOM      6  C   UNL     1       2.904   6.894  18.536  0.00  0.00    +0.000 A 
ATOM      7  C   UNL     1       2.588   8.255  18.345  0.00  0.00    +0.000 A 
ATOM      8  C   UNL     1       1.719   8.884  19.238  0.00  0.00    +0.000 A 
ATOM      9  I   UNL     1       1.241  10.889  18.950  0.00  0.00    +0.000 I 
ATOM     10  C   UNL     1       1.170   8.187  20.309  0.00  0.00    +0.000 A 
ATOM     11  C   UNL     1       1.476   6.835  20.518  0.00  0.00    +0.000 A 
ATOM     12  C   UNL     1       2.344   6.199  19.616  0.00  0.00    +0.000 A 
ATOM     13  N   UNL     1       2.823   4.900  19.555  0.00  0.00    +0.000 N 
ATOM     14  C   UNL     1       2.522   3.835  20.486  0.00  0.00    +0.000 C 
ATOM     15  C   UNL     1       4.524   6.212  16.593  0.00  0.00    +0.000 C 
ENDROOT
BRANCH   1  16
ATOM     16  C   UNL     1       6.122   5.234  15.038  0.00  0.00    +0.000 C 
BRANCH  16  17
ATOM     17  C   UNL     1       5.372   4.396  13.995  0.00  0.00    +0.000 C 
BRANCH  17  18
ATOM     18  C   UNL     1       6.287   3.493  13.172  0.00  0.00    +0.000 C 
BRANCH  18  19
ATOM     19  C   UNL     1       5.487   2.895  12.011  0.00  0.00    +0.000 C 
BRANCH  19  20
ATOM     20  C   UNL     1       4.144   3.591  11.822  0.00  0.00    +0.000 C 
BRANCH  20  22
ATOM     21  C   UNL     1       2.984   4.164   9.665  0.00  0.00    +0.000 C 
ATOM     22  C   UNL     1       3.421   3.043  10.591  0.00  0.00    +0.000 C 
ENDBRANCH  20  22
ENDBRANCH  19  20
ENDBRANCH  18  19
ENDBRANCH  17  18
ENDBRANCH  16  17
ENDBRANCH   1  16
TORSDOF 6
ENDMDL
MODEL 2
REMARK VINA RESULT:      -7.0      0.944      1.399
REMARK  Name = 
REMARK  8 active torsions:
REMARK  status: ('A' for Active; 'I' for Inactive)
REMARK    1  A    between atoms: C_1  and  C_2
REMARK    2  A    between atoms: C_2  and  C_3
REMARK    3  A    between atoms: C_3  and  C_4
REMARK    4  A    between atoms: C_4  and  C_5
REMARK    5  A    between atoms: C_5  and  C_6
REMARK    6  A    between atoms: C_6  and  C_7
REMARK    7  A    between atoms: C_7  and  N_8
REMARK    8  A    between atoms: N_20  and  C_21
REMARK                            x       y       z     vdW  Elec       q    Type
REMARK                         _______ _______ _______ _____ _____    ______ ____
ROOT
ATOM      1  N   UNL     1       4.933   4.118  17.147  0.00  0.00    +0.000 NA
ATOM      2  C   UNL     1       4.232   2.912  17.656  0.00  0.00    +0.000 C 
ATOM      3  C   UNL     1       3.829   3.044  19.153  0.00  0.00    +0.000 C 
ATOM      4  C   UNL     1       3.211   4.382  19.370  0.00  0.00    +0.000 A 
ATOM      5  C   UNL     1       3.329   5.418  18.474  0.00  0.00    +0.000 A 
ATOM      6  C   UNL     1       2.629   6.530  19.009  0.00  0.00    +0.000 A 
ATOM      7  C   UNL     1       2.394   7.839  18.539  0.00  0.00    +0.000 A 
ATOM      8  C   UNL     1       1.640   8.717  19.320  0.00  0.00    +0.000 A 
ATOM      9  I   UNL     1       1.280  10.644  18.623  0.00  0.00    +0.000 I 
ATOM     10  C   UNL     1       1.126   8.316  20.549  0.00  0.00    +0.000 A 
ATOM     11  C   UNL     1       1.353   7.021  21.034  0.00  0.00    +0.000 A 
ATOM     12  C   UNL     1       2.106   6.135  20.247  0.00  0.00    +0.000 A 
ATOM     13  N   UNL     1       2.489   4.818  20.448  0.00  0.00    +0.000 N 
ATOM     14  C   UNL     1       2.185   4.008  21.607  0.00  0.00    +0.000 C 
ATOM     15  C   UNL     1       4.049   5.311  17.175  0.00  0.00    +0.000 C 
ENDROOT
BRANCH   1  16
ATOM     16  C   UNL     1       5.456   3.890  15.786  0.00  0.00    +0.000 C 
BRANCH  16  17
ATOM     17  C   UNL     1       6.709   4.733  15.514  0.00  0.00    +0.000 C 
BRANCH  17  18
ATOM     18  C   UNL     1       7.080   4.805  14.035  0.00  0.00    +0.000 C 
BRANCH  18  19
ATOM     19  C   UNL     1       5.967   4.156  13.208  0.00  0.00    +0.000 C 
BRANCH  19  20
ATOM     20  C   UNL     1       6.517   3.215  12.142  0.00  0.00    +0.000 C 
BRANCH  20  22
ATOM     21  C   UNL     1       4.140   3.212  11.322  0.00  0.00    +0.000 C 
ATOM     22  C   UNL     1       5.394   2.381  11.527  0.00  0.00    +0.000 C 
ENDBRANCH  20  22
ENDBRANCH  19  20
ENDBRANCH  18  19
ENDBRANCH  17  18
ENDBRANCH  16  17
ENDBRANCH   1  16
TORSDOF 6
ENDMDL
MODEL 3
REMARK VINA RESULT:      -7.0      2.192      3.140
REMARK  Name = 
REMARK  8 active torsions:
REMARK  status: ('A' for Active; 'I' for Inactive)
REMARK    1  A    between atoms: C_1  and  C_2
REMARK    2  A    between atoms: C_2  and  C_3
REMARK    3  A    between atoms: C_3  and  C_4
REMARK    4  A    between atoms: C_4  and  C_5
REMARK    5  A    between atoms: C_5  and  C_6
REMARK    6  A    between atoms: C_6  and  C_7
REMARK    7  A    between atoms: C_7  and  N_8
REMARK    8  A    between atoms: N_20  and  C_21
REMARK                            x       y       z     vdW  Elec       q    Type
REMARK                         _______ _______ _______ _____ _____    ______ ____
ROOT
ATOM      1  N   UNL     1       5.302   4.675  15.396  0.00  0.00    +0.000 NA
ATOM      2  C   UNL     1       5.816   6.068  15.430  0.00  0.00    +0.000 C 
ATOM      3  C   UNL     1       4.736   7.091  15.881  0.00  0.00    +0.000 C 
ATOM      4  C   UNL     1       4.033   6.554  17.079  0.00  0.00    +0.000 A 
ATOM      5  C   UNL     1       4.100   5.236  17.462  0.00  0.00    +0.000 A 
ATOM      6  C   UNL     1       3.307   5.085  18.628  0.00  0.00    +0.000 A 
ATOM      7  C   UNL     1       3.017   3.985  19.462  0.00  0.00    +0.000 A 
ATOM      8  C   UNL     1       2.185   4.171  20.567  0.00  0.00    +0.000 A 
ATOM      9  I   UNL     1       1.765   2.553  21.807  0.00  0.00    +0.000 I 
ATOM     10  C   UNL     1       1.641   5.420  20.849  0.00  0.00    +0.000 A 
ATOM     11  C   UNL     1       1.915   6.524  20.029  0.00  0.00    +0.000 A 
ATOM     12  C   UNL     1       2.757   6.339  18.920  0.00  0.00    +0.000 A 
ATOM     13  N   UNL     1       3.208   7.218  17.947  0.00  0.00    +0.000 N 
ATOM     14  C   UNL     1       2.875   8.621  17.844  0.00  0.00    +0.000 C 
ATOM     15  C   UNL     1       4.911   4.208  16.751  0.00  0.00    +0.000 C 
ENDROOT
BRANCH   1  16
ATOM     16  C   UNL     1       6.293   3.760  14.796  0.00  0.00    +0.000 C 
BRANCH  16  17
ATOM     17  C   UNL     1       6.835   4.307  13.469  0.00  0.00    +0.000 C 
BRANCH  17  18
ATOM     18  C   UNL     1       6.420   3.475  12.258  0.00  0.00    +0.000 C 
BRANCH  18  19
ATOM     19  C   UNL     1       4.904   3.579  12.077  0.00  0.00    +0.000 C 
BRANCH  19  20
ATOM     20  C   UNL     1       4.400   2.697  10.939  0.00  0.00    +0.000 C 
BRANCH  20  22
ATOM     21  C   UNL     1       3.005   4.323   9.621  0.00  0.00    +0.000 C 
ATOM     22  C   UNL     1       2.985   3.104  10.526  0.00  0.00    +0.000 C 
ENDBRANCH  20  22
ENDBRANCH  19  20
ENDBRANCH  18  19
ENDBRANCH  17  18
ENDBRANCH  16  17
ENDBRANCH   1  16
TORSDOF 6
ENDMDL
MODEL 4
REMARK VINA RESULT:      -6.8      2.440      4.149
REMARK  Name = 
REMARK  8 active torsions:
REMARK  status: ('A' for Active; 'I' for Inactive)
REMARK    1  A    between atoms: C_1  and  C_2
REMARK    2  A    between atoms: C_2  and  C_3
REMARK    3  A    between atoms: C_3  and  C_4
REMARK    4  A    between atoms: C_4  and  C_5
REMARK    5  A    between atoms: C_5  and  C_6
REMARK    6  A    between atoms: C_6  and  C_7
REMARK    7  A    between atoms: C_7  and  N_8
REMARK    8  A    between atoms: N_20  and  C_21
REMARK                            x       y       z     vdW  Elec       q    Type
REMARK                         _______ _______ _______ _____ _____    ______ ____
ROOT
ATOM      1  N   UNL     1       4.891   4.309  17.120  0.00  0.00    +0.000 NA
ATOM      2  C   UNL     1       4.192   3.070  17.547  0.00  0.00    +0.000 C 
ATOM      3  C   UNL     1       3.765   3.111  19.042  0.00  0.00    +0.000 C 
ATOM      4  C   UNL     1       3.132   4.429  19.327  0.00  0.00    +0.000 A 
ATOM      5  C   UNL     1       3.255   5.517  18.496  0.00  0.00    +0.000 A 
ATOM      6  C   UNL     1       2.538   6.591  19.084  0.00  0.00    +0.000 A 
ATOM      7  C   UNL     1       2.299   7.923  18.688  0.00  0.00    +0.000 A 
ATOM      8  C   UNL     1       1.525   8.748  19.506  0.00  0.00    +0.000 A 
ATOM      9  I   UNL     1       1.160  10.710  18.917  0.00  0.00    +0.000 I 
ATOM     10  C   UNL     1       0.996   8.272  20.701  0.00  0.00    +0.000 A 
ATOM     11  C   UNL     1       1.226   6.952  21.113  0.00  0.00    +0.000 A 
ATOM     12  C   UNL     1       1.999   6.120  20.288  0.00  0.00    +0.000 A 
ATOM     13  N   UNL     1       2.390   4.796  20.417  0.00  0.00    +0.000 N 
ATOM     14  C   UNL     1       2.075   3.918  21.522  0.00  0.00    +0.000 C 
ATOM     15  C   UNL     1       3.996   5.492  17.204  0.00  0.00    +0.000 C 
ENDROOT
BRANCH   1  16
ATOM     16  C   UNL     1       5.436   4.165  15.757  0.00  0.00    +0.000 C 
BRANCH  16  17
ATOM     17  C   UNL     1       6.925   4.533  15.703  0.00  0.00    +0.000 C 
BRANCH  17  18
ATOM     18  C   UNL     1       7.237   5.888  16.331  0.00  0.00    +0.000 C 
BRANCH  18  19
ATOM     19  C   UNL     1       7.495   5.697  17.828  0.00  0.00    +0.000 C 
BRANCH  19  20
ATOM     20  C   UNL     1       8.073   6.952  18.476  0.00  0.00    +0.000 C 
BRANCH  20  22
ATOM     21  C   UNL     1       8.420   9.429  18.214  0.00  0.00    +0.000 C 
ATOM     22  C   UNL     1       7.802   8.181  17.608  0.00  0.00    +0.000 C 
ENDBRANCH  20  22
ENDBRANCH  19  20
ENDBRANCH  18  19
ENDBRANCH  17  18
ENDBRANCH  16  17
ENDBRANCH   1  16
TORSDOF 6
ENDMDL
MODEL 5
REMARK VINA RESULT:      -6.7      3.588      7.370
REMARK  Name = 
REMARK  8 active torsions:
REMARK  status: ('A' for Active; 'I' for Inactive)
REMARK    1  A    between atoms: C_1  and  C_2
REMARK    2  A    between atoms: C_2  and  C_3
REMARK    3  A    between atoms: C_3  and  C_4
REMARK    4  A    between atoms: C_4  and  C_5
REMARK    5  A    between atoms: C_5  and  C_6
REMARK    6  A    between atoms: C_6  and  C_7
REMARK    7  A    between atoms: C_7  and  N_8
REMARK    8  A    between atoms: N_20  and  C_21
REMARK                            x       y       z     vdW  Elec       q    Type
REMARK                         _______ _______ _______ _____ _____    ______ ____
ROOT
ATOM      1  N   UNL     1       1.206   9.081  19.005  0.00  0.00    +0.000 NA
ATOM      2  C   UNL     1       1.299   8.867  20.472  0.00  0.00    +0.000 C 
ATOM      3  C   UNL     1       1.232   7.363  20.861  0.00  0.00    +0.000 C 
ATOM      4  C   UNL     1       2.137   6.592  19.962  0.00  0.00    +0.000 A 
ATOM      5  C   UNL     1       2.636   7.097  18.785  0.00  0.00    +0.000 A 
ATOM      6  C   UNL     1       3.442   6.091  18.193  0.00  0.00    +0.000 A 
ATOM      7  C   UNL     1       4.209   6.041  17.011  0.00  0.00    +0.000 A 
ATOM      8  C   UNL     1       4.915   4.876  16.707  0.00  0.00    +0.000 A 
ATOM      9  I   UNL     1       6.059   4.804  14.969  0.00  0.00    +0.000 I 
ATOM     10  C   UNL     1       4.867   3.772  17.551  0.00  0.00    +0.000 A 
ATOM     11  C   UNL     1       4.106   3.801  18.728  0.00  0.00    +0.000 A 
ATOM     12  C   UNL     1       3.400   4.975  19.039  0.00  0.00    +0.000 A 
ATOM     13  N   UNL     1       2.583   5.306  20.108  0.00  0.00    +0.000 N 
ATOM     14  C   UNL     1       2.239   4.445  21.217  0.00  0.00    +0.000 C 
ATOM     15  C   UNL     1       2.363   8.477  18.295  0.00  0.00    +0.000 C 
ENDROOT
BRANCH   1  16
ATOM     16  C   UNL     1       1.093  10.517  18.686  0.00  0.00    +0.000 C 
BRANCH  16  17
ATOM     17  C   UNL     1      -0.252  11.093  19.149  0.00  0.00    +0.000 C 
BRANCH  17  18
ATOM     18  C   UNL     1      -1.457  10.338  18.593  0.00  0.00    +0.000 C 
BRANCH  18  19
ATOM     19  C   UNL     1      -1.815  10.910  17.219  0.00  0.00    +0.000 C 
BRANCH  19  20
ATOM     20  C   UNL     1      -2.690   9.958  16.411  0.00  0.00    +0.000 C 
BRANCH  20  22
ATOM     21  C   UNL     1      -4.675  11.454  16.792  0.00  0.00    +0.000 C 
ATOM     22  C   UNL     1      -3.847  10.711  15.757  0.00  0.00    +0.000 C 
ENDBRANCH  20  22
ENDBRANCH  19  20
ENDBRANCH  18  19
ENDBRANCH  17  18
ENDBRANCH  16  17
ENDBRANCH   1  16
TORSDOF 6
ENDMDL
MODEL 6
REMARK VINA RESULT:      -6.7      0.884      1.429
REMARK  Name = 
REMARK  8 active torsions:
REMARK  status: ('A' for Active; 'I' for Inactive)
REMARK    1  A    between atoms: C_1  and  C_2
REMARK    2  A    between atoms: C_2  and  C_3
REMARK    3  A    between atoms: C_3  and  C_4
REMARK    4  A    between atoms: C_4  and  C_5
REMARK    5  A    between atoms: C_5  and  C_6
REMARK    6  A    between atoms: C_6  and  C_7
REMARK    7  A    between atoms: C_7  and  N_8
REMARK    8  A    between atoms: N_20  and  C_21
REMARK                            x       y       z     vdW  Elec       q    Type
REMARK                         _______ _______ _______ _____ _____    ______ ____
ROOT
ATOM      1  N   UNL     1       5.383   5.119  16.557  0.00  0.00    +0.000 NA
ATOM      2  C   UNL     1       4.818   3.796  16.926  0.00  0.00    +0.000 C 
ATOM      3  C   UNL     1       4.409   3.719  18.424  0.00  0.00    +0.000 C 
ATOM      4  C   UNL     1       3.649   4.950  18.781  0.00  0.00    +0.000 A 
ATOM      5  C   UNL     1       3.652   6.085  18.005  0.00  0.00    +0.000 A 
ATOM      6  C   UNL     1       2.838   7.050  18.652  0.00  0.00    +0.000 A 
ATOM      7  C   UNL     1       2.461   8.369  18.326  0.00  0.00    +0.000 A 
ATOM      8  C   UNL     1       1.618   9.070  19.191  0.00  0.00    +0.000 A 
ATOM      9  I   UNL     1       1.050  11.012  18.706  0.00  0.00    +0.000 I 
ATOM     10  C   UNL     1       1.155   8.484  20.365  0.00  0.00    +0.000 A 
ATOM     11  C   UNL     1       1.523   7.175  20.708  0.00  0.00    +0.000 A 
ATOM     12  C   UNL     1       2.365   6.467  19.835  0.00  0.00    +0.000 A 
ATOM     13  N   UNL     1       2.888   5.185  19.894  0.00  0.00    +0.000 N 
ATOM     14  C   UNL     1       2.678   4.226  20.955  0.00  0.00    +0.000 C 
ATOM     15  C   UNL     1       4.375   6.199  16.708  0.00  0.00    +0.000 C 
ENDROOT
BRANCH   1  16
ATOM     16  C   UNL     1       5.922   5.099  15.184  0.00  0.00    +0.000 C 
BRANCH  16  17
ATOM     17  C   UNL     1       5.447   3.863  14.408  0.00  0.00    +0.000 C 
BRANCH  17  18
ATOM     18  C   UNL     1       6.128   3.700  13.052  0.00  0.00    +0.000 C 
BRANCH  18  19
ATOM     19  C   UNL     1       5.060   3.676  11.956  0.00  0.00    +0.000 C 
BRANCH  19  20
ATOM     20  C   UNL     1       4.896   2.289  11.345  0.00  0.00    +0.000 C 
BRANCH  20  22
ATOM     21  C   UNL     1       6.060   0.064  11.204  0.00  0.00    +0.000 C 
ATOM     22  C   UNL     1       6.243   1.570  11.269  0.00  0.00    +0.000 C 
ENDBRANCH  20  22
ENDBRANCH  19  20
ENDBRANCH  18  19
ENDBRANCH  17  18
ENDBRANCH  16  17
ENDBRANCH   1  16
TORSDOF 6
ENDMDL
MODEL 7
REMARK VINA RESULT:      -6.5      3.554      7.524
REMARK  Name = 
REMARK  8 active torsions:
REMARK  status: ('A' for Active; 'I' for Inactive)
REMARK    1  A    between atoms: C_1  and  C_2
REMARK    2  A    between atoms: C_2  and  C_3
REMARK    3  A    between atoms: C_3  and  C_4
REMARK    4  A    between atoms: C_4  and  C_5
REMARK    5  A    between atoms: C_5  and  C_6
REMARK    6  A    between atoms: C_6  and  C_7
REMARK    7  A    between atoms: C_7  and  N_8
REMARK    8  A    between atoms: N_20  and  C_21
REMARK                            x       y       z     vdW  Elec       q    Type
REMARK                         _______ _______ _______ _____ _____    ______ ____
ROOT
ATOM      1  N   UNL     1       1.423   9.005  18.849  0.00  0.00    +0.000 NA
ATOM      2  C   UNL     1       1.487   8.800  20.319  0.00  0.00    +0.000 C 
ATOM      3  C   UNL     1       1.342   7.304  20.720  0.00  0.00    +0.000 C 
ATOM      4  C   UNL     1       2.218   6.482  19.839  0.00  0.00    +0.000 A 
ATOM      5  C   UNL     1       2.755   6.951  18.664  0.00  0.00    +0.000 A 
ATOM      6  C   UNL     1       3.518   5.902  18.091  0.00  0.00    +0.000 A 
ATOM      7  C   UNL     1       4.296   5.804  16.918  0.00  0.00    +0.000 A 
ATOM      8  C   UNL     1       4.947   4.603  16.633  0.00  0.00    +0.000 A 
ATOM      9  I   UNL     1       6.106   4.459  14.910  0.00  0.00    +0.000 I 
ATOM     10  C   UNL     1       4.834   3.509  17.485  0.00  0.00    +0.000 A 
ATOM     11  C   UNL     1       4.062   3.587  18.653  0.00  0.00    +0.000 A 
ATOM     12  C   UNL     1       3.411   4.797  18.945  0.00  0.00    +0.000 A 
ATOM     13  N   UNL     1       2.598   5.177  20.001  0.00  0.00    +0.000 N 
ATOM     14  C   UNL     1       2.199   4.344  21.113  0.00  0.00    +0.000 C 
ATOM     15  C   UNL     1       2.557   8.338  18.159  0.00  0.00    +0.000 C 
ENDROOT
BRANCH   1  16
ATOM     16  C   UNL     1       1.384  10.442  18.517  0.00  0.00    +0.000 C 
BRANCH  16  17
ATOM     17  C   UNL     1       0.515  11.227  19.510  0.00  0.00    +0.000 C 
BRANCH  17  18
ATOM     18  C   UNL     1       0.091  12.598  18.990  0.00  0.00    +0.000 C 
BRANCH  18  19
ATOM     19  C   UNL     1      -1.197  12.447  18.176  0.00  0.00    +0.000 C 
BRANCH  19  20
ATOM     20  C   UNL     1      -2.209  11.539  18.867  0.00  0.00    +0.000 C 
BRANCH  20  22
ATOM     21  C   UNL     1      -2.013   9.881  16.986  0.00  0.00    +0.000 C 
ATOM     22  C   UNL     1      -2.967  10.697  17.841  0.00  0.00    +0.000 C 
ENDBRANCH  20  22
ENDBRANCH  19  20
ENDBRANCH  18  19
ENDBRANCH  17  18
ENDBRANCH  16  17
ENDBRANCH   1  16
TORSDOF 6
ENDMDL
MODEL 8
REMARK VINA RESULT:      -6.5      2.288      3.866
REMARK  Name = 
REMARK  8 active torsions:
REMARK  status: ('A' for Active; 'I' for Inactive)
REMARK    1  A    between atoms: C_1  and  C_2
REMARK    2  A    between atoms: C_2  and  C_3
REMARK    3  A    between atoms: C_3  and  C_4
REMARK    4  A    between atoms: C_4  and  C_5
REMARK    5  A    between atoms: C_5  and  C_6
REMARK    6  A    between atoms: C_6  and  C_7
REMARK    7  A    between atoms: C_7  and  N_8
REMARK    8  A    between atoms: N_20  and  C_21
REMARK                            x       y       z     vdW  Elec       q    Type
REMARK                         _______ _______ _______ _____ _____    ______ ____
ROOT
ATOM      1  N   UNL     1       4.683   4.367  16.884  0.00  0.00    +0.000 NA
ATOM      2  C   UNL     1       4.004   3.139  17.370  0.00  0.00    +0.000 C 
ATOM      3  C   UNL     1       3.686   3.195  18.891  0.00  0.00    +0.000 C 
ATOM      4  C   UNL     1       3.086   4.521  19.209  0.00  0.00    +0.000 A 
ATOM      5  C   UNL     1       3.160   5.602  18.362  0.00  0.00    +0.000 A 
ATOM      6  C   UNL     1       2.497   6.687  18.991  0.00  0.00    +0.000 A 
ATOM      7  C   UNL     1       2.243   8.018  18.602  0.00  0.00    +0.000 A 
ATOM      8  C   UNL     1       1.537   8.857  19.466  0.00  0.00    +0.000 A 
ATOM      9  I   UNL     1       1.149  10.818  18.889  0.00  0.00    +0.000 I 
ATOM     10  C   UNL     1       1.089   8.396  20.700  0.00  0.00    +0.000 A 
ATOM     11  C   UNL     1       1.336   7.076  21.106  0.00  0.00    +0.000 A 
ATOM     12  C   UNL     1       2.041   6.230  20.234  0.00  0.00    +0.000 A 
ATOM     13  N   UNL     1       2.427   4.904  20.346  0.00  0.00    +0.000 N 
ATOM     14  C   UNL     1       2.184   4.037  21.478  0.00  0.00    +0.000 C 
ATOM     15  C   UNL     1       3.807   5.560  17.022  0.00  0.00    +0.000 C 
ENDROOT
BRANCH   1  16
ATOM     16  C   UNL     1       5.128   4.208  15.486  0.00  0.00    +0.000 C 
BRANCH  16  17
ATOM     17  C   UNL     1       6.646   3.998  15.398  0.00  0.00    +0.000 C 
BRANCH  17  18
ATOM     18  C   UNL     1       7.419   4.696  16.514  0.00  0.00    +0.000 C 
BRANCH  18  19
ATOM     19  C   UNL     1       7.308   6.211  16.327  0.00  0.00    +0.000 C 
BRANCH  19  20
ATOM     20  C   UNL     1       7.303   6.956  17.658  0.00  0.00    +0.000 C 
BRANCH  20  22
ATOM     21  C   UNL     1       6.686   5.462  19.584  0.00  0.00    +0.000 C 
ATOM     22  C   UNL     1       7.827   6.059  18.780  0.00  0.00    +0.000 C 
ENDBRANCH  20  22
ENDBRANCH  19  20
ENDBRANCH  18  19
ENDBRANCH  17  18
ENDBRANCH  16  17
ENDBRANCH   1  16
TORSDOF 6
ENDMDL
MODEL 9
REMARK VINA RESULT:      -6.5      2.365      3.467
REMARK  Name = 
REMARK  8 active torsions:
REMARK  status: ('A' for Active; 'I' for Inactive)
REMARK    1  A    between atoms: C_1  and  C_2
REMARK    2  A    between atoms: C_2  and  C_3
REMARK    3  A    between atoms: C_3  and  C_4
REMARK    4  A    between atoms: C_4  and  C_5
REMARK    5  A    between atoms: C_5  and  C_6
REMARK    6  A    between atoms: C_6  and  C_7
REMARK    7  A    between atoms: C_7  and  N_8
REMARK    8  A    between atoms: N_20  and  C_21
REMARK                            x       y       z     vdW  Elec       q    Type
REMARK                         _______ _______ _______ _____ _____    ______ ____
ROOT
ATOM      1  N   UNL     1       5.180   4.686  15.244  0.00  0.00    +0.000 NA
ATOM      2  C   UNL     1       5.758   6.053  15.295  0.00  0.00    +0.000 C 
ATOM      3  C   UNL     1       4.737   7.114  15.795  0.00  0.00    +0.000 C 
ATOM      4  C   UNL     1       4.039   6.582  16.999  0.00  0.00    +0.000 A 
ATOM      5  C   UNL     1       4.056   5.254  17.351  0.00  0.00    +0.000 A 
ATOM      6  C   UNL     1       3.285   5.113  18.534  0.00  0.00    +0.000 A 
ATOM      7  C   UNL     1       2.964   4.009  19.351  0.00  0.00    +0.000 A 
ATOM      8  C   UNL     1       2.169   4.207  20.481  0.00  0.00    +0.000 A 
ATOM      9  I   UNL     1       1.705   2.583  21.696  0.00  0.00    +0.000 I 
ATOM     10  C   UNL     1       1.690   5.473  20.803  0.00  0.00    +0.000 A 
ATOM     11  C   UNL     1       1.995   6.581  20.000  0.00  0.00    +0.000 A 
ATOM     12  C   UNL     1       2.800   6.384  18.867  0.00  0.00    +0.000 A 
ATOM     13  N   UNL     1       3.268   7.263  17.902  0.00  0.00    +0.000 N 
ATOM     14  C   UNL     1       2.997   8.682  17.836  0.00  0.00    +0.000 C 
ATOM     15  C   UNL     1       4.801   4.207  16.598  0.00  0.00    +0.000 C 
ENDROOT
BRANCH   1  16
ATOM     16  C   UNL     1       6.112   3.741  14.600  0.00  0.00    +0.000 C 
BRANCH  16  17
ATOM     17  C   UNL     1       6.975   4.435  13.538  0.00  0.00    +0.000 C 
BRANCH  17  18
ATOM     18  C   UNL     1       6.998   3.699  12.201  0.00  0.00    +0.000 C 
BRANCH  18  19
ATOM     19  C   UNL     1       5.560   3.508  11.712  0.00  0.00    +0.000 C 
BRANCH  19  20
ATOM     20  C   UNL     1       5.198   2.035  11.553  0.00  0.00    +0.000 C 
BRANCH  20  22
ATOM     21  C   UNL     1       6.172  -0.266  11.267  0.00  0.00    +0.000 C 
ATOM     22  C   UNL     1       6.417   1.225  11.111  0.00  0.00    +0.000 C 
ENDBRANCH  20  22
ENDBRANCH  19  20
ENDBRANCH  18  19
ENDBRANCH  17  18
ENDBRANCH  16  17
ENDBRANCH   1  16
TORSDOF 6
ENDMDL
