MODEL 1
REMARK VINA RESULT:      -8.5      0.000      0.000
REMARK  Name = 
REMARK  10 active torsions:
REMARK  status: ('A' for Active; 'I' for Inactive)
REMARK    1  A    between atoms: O_1  and  C_2
REMARK    2  A    between atoms: C_2  and  C_3
REMARK    3  A    between atoms: C_5  and  C_6
REMARK    4  A    between atoms: C_9  and  C_10
REMARK    5  A    between atoms: C_14  and  C_15
REMARK    6  A    between atoms: C_15  and  C_16
REMARK    7  A    between atoms: C_19  and  C_20
REMARK    8  A    between atoms: C_27  and  O_28
REMARK    9  A    between atoms: C_29  and  O_30
REMARK   10  A    between atoms: C_31  and  O_32
REMARK                            x       y       z     vdW  Elec       q    Type
REMARK                         _______ _______ _______ _____ _____    ______ ____
ROOT
ATOM      1  C   UNL     1       2.257   6.372  19.809  0.00  0.00    +0.000 A 
ATOM      2  C   UNL     1       1.196   5.460  19.781  0.00  0.00    +0.000 A 
ATOM      3  C   UNL     1       1.434   4.100  19.566  0.00  0.00    +0.000 A 
ATOM      4  C   UNL     1       2.737   3.607  19.380  0.00  0.00    +0.000 A 
ATOM      5  C   UNL     1       3.820   4.515  19.423  0.00  0.00    +0.000 A 
ATOM      6  C   UNL     1       3.559   5.885  19.636  0.00  0.00    +0.000 A 
ENDROOT
BRANCH   1   9
ATOM      7  C   UNL     1       0.722   9.314  21.464  0.00  0.00    +0.000 C 
ATOM      8  O   UNL     1       0.974   7.958  21.069  0.00  0.00    +0.000 OA
ATOM      9  C   UNL     1       1.987   7.847  20.059  0.00  0.00    +0.000 C 
ATOM     10  C   UNL     1       1.543   8.571  18.766  0.00  0.00    +0.000 C 
ATOM     11  C   UNL     1       1.144  10.020  19.095  0.00  0.00    +0.000 C 
ATOM     12  C   UNL     1       0.158  10.093  20.269  0.00  0.00    +0.000 C 
BRANCH  10  13
ATOM     13  O   UNL     1       2.572   8.569  17.767  0.00  0.00    +0.000 OA
ATOM     14  H   UNL     1       2.469   9.353  17.203  0.00  0.00    +0.000 HD
ENDBRANCH  10  13
BRANCH  11  15
ATOM     15  O   UNL     1       0.584  10.678  17.946  0.00  0.00    +0.000 OA
ATOM     16  H   UNL     1       1.314  11.029  17.407  0.00  0.00    +0.000 HD
ENDBRANCH  11  15
BRANCH  12  17
ATOM     17  O   UNL     1      -0.118  11.444  20.645  0.00  0.00    +0.000 OA
ATOM     18  H   UNL     1      -0.902  11.751  20.155  0.00  0.00    +0.000 HD
ENDBRANCH  12  17
BRANCH   7  19
ATOM     19  C   UNL     1      -0.274   9.330  22.635  0.00  0.00    +0.000 C 
BRANCH  19  20
ATOM     20  O   UNL     1       0.389   9.679  23.850  0.00  0.00    +0.000 OA
ATOM     21  H   UNL     1      -0.300   9.752  24.533  0.00  0.00    +0.000 HD
ENDBRANCH  19  20
ENDBRANCH   7  19
ENDBRANCH   1   9
BRANCH   4  22
ATOM     22  C   UNL     1       2.918   2.125  19.108  0.00  0.00    +0.000 C 
ATOM     23  F   UNL     1       3.923   1.562  19.842  0.00  0.00    +0.000 F 
ATOM     24  F   UNL     1       1.803   1.405  19.418  0.00  0.00    +0.000 F 
ATOM     25  F   UNL     1       3.213   1.835  17.817  0.00  0.00    +0.000 F 
ENDBRANCH   4  22
BRANCH   5  26
ATOM     26  C   UNL     1       5.269   4.082  19.285  0.00  0.00    +0.000 C 
BRANCH  26  27
ATOM     27  C   UNL     1       5.899   4.554  18.004  0.00  0.00    +0.000 A 
ATOM     28  N   UNL     1       6.721   5.576  17.921  0.00  0.00    +0.000 NA
ATOM     29  C   UNL     1       7.114   5.756  16.608  0.00  0.00    +0.000 A 
ATOM     30  C   UNL     1       6.614   4.844  15.699  0.00  0.00    +0.000 A 
ATOM     31  S   UNL     1       5.586   3.743  16.519  0.00  0.00    +0.000 S 
BRANCH  30  32
ATOM     32  C   UNL     1       6.896   4.779  14.295  0.00  0.00    +0.000 A 
ATOM     33  C   UNL     1       6.371   3.944  13.320  0.00  0.00    +0.000 A 
ATOM     34  C   UNL     1       7.010   4.263  12.097  0.00  0.00    +0.000 A 
ATOM     35  C   UNL     1       7.882   5.282  12.383  0.00  0.00    +0.000 A 
ATOM     36  O   UNL     1       7.820   5.604  13.697  0.00  0.00    +0.000 OA
ENDBRANCH  30  32
ENDBRANCH  26  27
ENDBRANCH   5  26
TORSDOF 10
ENDMDL
MODEL 2
REMARK VINA RESULT:      -8.3      1.011      1.291
REMARK  Name = 
REMARK  10 active torsions:
REMARK  status: ('A' for Active; 'I' for Inactive)
REMARK    1  A    between atoms: O_1  and  C_2
REMARK    2  A    between atoms: C_2  and  C_3
REMARK    3  A    between atoms: C_5  and  C_6
REMARK    4  A    between atoms: C_9  and  C_10
REMARK    5  A    between atoms: C_14  and  C_15
REMARK    6  A    between atoms: C_15  and  C_16
REMARK    7  A    between atoms: C_19  and  C_20
REMARK    8  A    between atoms: C_27  and  O_28
REMARK    9  A    between atoms: C_29  and  O_30
REMARK   10  A    between atoms: C_31  and  O_32
REMARK                            x       y       z     vdW  Elec       q    Type
REMARK                         _______ _______ _______ _____ _____    ______ ____
ROOT
ATOM      1  C   UNL     1       2.108   6.800  20.136  0.00  0.00    +0.000 A 
ATOM      2  C   UNL     1       1.164   5.880  20.608  0.00  0.00    +0.000 A 
ATOM      3  C   UNL     1       1.457   4.514  20.636  0.00  0.00    +0.000 A 
ATOM      4  C   UNL     1       2.701   4.024  20.202  0.00  0.00    +0.000 A 
ATOM      5  C   UNL     1       3.670   4.944  19.740  0.00  0.00    +0.000 A 
ATOM      6  C   UNL     1       3.354   6.319  19.714  0.00  0.00    +0.000 A 
ENDROOT
BRANCH   1   9
ATOM      7  C   UNL     1       0.603   9.960  21.361  0.00  0.00    +0.000 C 
ATOM      8  O   UNL     1       0.886   8.562  21.209  0.00  0.00    +0.000 OA
ATOM      9  C   UNL     1       1.784   8.284  20.126  0.00  0.00    +0.000 C 
ATOM     10  C   UNL     1       1.157   8.720  18.780  0.00  0.00    +0.000 C 
ATOM     11  C   UNL     1       0.716  10.191  18.866  0.00  0.00    +0.000 C 
ATOM     12  C   UNL     1      -0.134  10.464  20.114  0.00  0.00    +0.000 C 
BRANCH  10  13
ATOM     13  O   UNL     1       2.066   8.552  17.683  0.00  0.00    +0.000 OA
ATOM     14  H   UNL     1       2.407   9.422  17.417  0.00  0.00    +0.000 HD
ENDBRANCH  10  13
BRANCH  11  15
ATOM     15  O   UNL     1      -0.006  10.586  17.687  0.00  0.00    +0.000 OA
ATOM     16  H   UNL     1       0.587  11.116  17.128  0.00  0.00    +0.000 HD
ENDBRANCH  11  15
BRANCH  12  17
ATOM     17  O   UNL     1      -0.444  11.854  20.250  0.00  0.00    +0.000 OA
ATOM     18  H   UNL     1      -1.314  12.021  19.847  0.00  0.00    +0.000 HD
ENDBRANCH  12  17
BRANCH   7  19
ATOM     19  C   UNL     1      -0.254  10.177  22.617  0.00  0.00    +0.000 C 
BRANCH  19  20
ATOM     20  O   UNL     1       0.427   9.695  23.776  0.00  0.00    +0.000 OA
ATOM     21  H   UNL     1       1.327   9.458  23.492  0.00  0.00    +0.000 HD
ENDBRANCH  19  20
ENDBRANCH   7  19
ENDBRANCH   1   9
BRANCH   4  22
ATOM     22  C   UNL     1       2.935   2.524  20.220  0.00  0.00    +0.000 C 
ATOM     23  F   UNL     1       3.045   1.982  18.971  0.00  0.00    +0.000 F 
ATOM     24  F   UNL     1       4.093   2.192  20.857  0.00  0.00    +0.000 F 
ATOM     25  F   UNL     1       1.949   1.822  20.828  0.00  0.00    +0.000 F 
ENDBRANCH   4  22
BRANCH   5  26
ATOM     26  C   UNL     1       5.062   4.527  19.297  0.00  0.00    +0.000 C 
BRANCH  26  27
ATOM     27  C   UNL     1       5.191   4.424  17.803  0.00  0.00    +0.000 A 
ATOM     28  N   UNL     1       4.225   4.022  17.006  0.00  0.00    +0.000 NA
ATOM     29  C   UNL     1       4.666   4.030  15.697  0.00  0.00    +0.000 A 
ATOM     30  C   UNL     1       5.958   4.473  15.497  0.00  0.00    +0.000 A 
ATOM     31  S   UNL     1       6.657   4.860  17.015  0.00  0.00    +0.000 S 
BRANCH  30  32
ATOM     32  C   UNL     1       6.639   4.619  14.244  0.00  0.00    +0.000 A 
ATOM     33  C   UNL     1       6.412   3.989  13.029  0.00  0.00    +0.000 A 
ATOM     34  C   UNL     1       7.386   4.462  12.116  0.00  0.00    +0.000 A 
ATOM     35  C   UNL     1       8.150   5.363  12.814  0.00  0.00    +0.000 A 
ATOM     36  O   UNL     1       7.710   5.469  14.090  0.00  0.00    +0.000 OA
ENDBRANCH  30  32
ENDBRANCH  26  27
ENDBRANCH   5  26
TORSDOF 10
ENDMDL
MODEL 3
REMARK VINA RESULT:      -8.0      0.700      1.048
REMARK  Name = 
REMARK  10 active torsions:
REMARK  status: ('A' for Active; 'I' for Inactive)
REMARK    1  A    between atoms: O_1  and  C_2
REMARK    2  A    between atoms: C_2  and  C_3
REMARK    3  A    between atoms: C_5  and  C_6
REMARK    4  A    between atoms: C_9  and  C_10
REMARK    5  A    between atoms: C_14  and  C_15
REMARK    6  A    between atoms: C_15  and  C_16
REMARK    7  A    between atoms: C_19  and  C_20
REMARK    8  A    between atoms: C_27  and  O_28
REMARK    9  A    between atoms: C_29  and  O_30
REMARK   10  A    between atoms: C_31  and  O_32
REMARK                            x       y       z     vdW  Elec       q    Type
REMARK                         _______ _______ _______ _____ _____    ______ ____
ROOT
ATOM      1  C   UNL     1       2.348   6.449  19.663  0.00  0.00    +0.000 A 
ATOM      2  C   UNL     1       1.282   5.541  19.656  0.00  0.00    +0.000 A 
ATOM      3  C   UNL     1       1.513   4.177  19.462  0.00  0.00    +0.000 A 
ATOM      4  C   UNL     1       2.813   3.674  19.278  0.00  0.00    +0.000 A 
ATOM      5  C   UNL     1       3.900   4.577  19.301  0.00  0.00    +0.000 A 
ATOM      6  C   UNL     1       3.647   5.952  19.493  0.00  0.00    +0.000 A 
ENDROOT
BRANCH   1   9
ATOM      7  C   UNL     1       0.975   9.433  21.383  0.00  0.00    +0.000 C 
ATOM      8  O   UNL     1       1.199   8.066  21.010  0.00  0.00    +0.000 OA
ATOM      9  C   UNL     1       2.086   7.928  19.891  0.00  0.00    +0.000 C 
ATOM     10  C   UNL     1       1.480   8.598  18.635  0.00  0.00    +0.000 C 
ATOM     11  C   UNL     1       1.100  10.054  18.957  0.00  0.00    +0.000 C 
ATOM     12  C   UNL     1       0.260  10.159  20.237  0.00  0.00    +0.000 C 
BRANCH  10  13
ATOM     13  O   UNL     1       2.382   8.570  17.520  0.00  0.00    +0.000 OA
ATOM     14  H   UNL     1       2.857   7.721  17.518  0.00  0.00    +0.000 HD
ENDBRANCH  10  13
BRANCH  11  15
ATOM     15  O   UNL     1       0.396  10.661  17.860  0.00  0.00    +0.000 OA
ATOM     16  H   UNL     1      -0.028  11.475  18.181  0.00  0.00    +0.000 HD
ENDBRANCH  11  15
BRANCH  12  17
ATOM     17  O   UNL     1       0.009  11.521  20.594  0.00  0.00    +0.000 OA
ATOM     18  H   UNL     1       0.449  11.709  21.442  0.00  0.00    +0.000 HD
ENDBRANCH  12  17
BRANCH   7  19
ATOM     19  C   UNL     1       0.125   9.482  22.663  0.00  0.00    +0.000 C 
BRANCH  19  20
ATOM     20  O   UNL     1      -0.854   8.443  22.652  0.00  0.00    +0.000 OA
ATOM     21  H   UNL     1      -1.140   8.320  23.574  0.00  0.00    +0.000 HD
ENDBRANCH  19  20
ENDBRANCH   7  19
ENDBRANCH   1   9
BRANCH   4  22
ATOM     22  C   UNL     1       2.985   2.187  19.030  0.00  0.00    +0.000 C 
ATOM     23  F   UNL     1       1.906   1.448  19.419  0.00  0.00    +0.000 F 
ATOM     24  F   UNL     1       3.155   1.902  17.708  0.00  0.00    +0.000 F 
ATOM     25  F   UNL     1       4.044   1.641  19.676  0.00  0.00    +0.000 F 
ENDBRANCH   4  22
BRANCH   5  26
ATOM     26  C   UNL     1       5.347   4.135  19.163  0.00  0.00    +0.000 C 
BRANCH  26  27
ATOM     27  C   UNL     1       5.940   4.491  17.829  0.00  0.00    +0.000 A 
ATOM     28  N   UNL     1       6.834   5.438  17.649  0.00  0.00    +0.000 NA
ATOM     29  C   UNL     1       7.166   5.520  16.310  0.00  0.00    +0.000 A 
ATOM     30  C   UNL     1       6.549   4.607  15.479  0.00  0.00    +0.000 A 
ATOM     31  S   UNL     1       5.485   3.634  16.407  0.00  0.00    +0.000 S 
BRANCH  30  32
ATOM     32  C   UNL     1       6.748   4.450  14.067  0.00  0.00    +0.000 A 
ATOM     33  C   UNL     1       7.551   5.172  13.196  0.00  0.00    +0.000 A 
ATOM     34  C   UNL     1       7.360   4.635  11.899  0.00  0.00    +0.000 A 
ATOM     35  C   UNL     1       6.462   3.608  12.045  0.00  0.00    +0.000 A 
ATOM     36  O   UNL     1       6.091   3.484  13.341  0.00  0.00    +0.000 OA
ENDBRANCH  30  32
ENDBRANCH  26  27
ENDBRANCH   5  26
TORSDOF 10
ENDMDL
MODEL 4
REMARK VINA RESULT:      -7.9      5.189      9.373
REMARK  Name = 
REMARK  10 active torsions:
REMARK  status: ('A' for Active; 'I' for Inactive)
REMARK    1  A    between atoms: O_1  and  C_2
REMARK    2  A    between atoms: C_2  and  C_3
REMARK    3  A    between atoms: C_5  and  C_6
REMARK    4  A    between atoms: C_9  and  C_10
REMARK    5  A    between atoms: C_14  and  C_15
REMARK    6  A    between atoms: C_15  and  C_16
REMARK    7  A    between atoms: C_19  and  C_20
REMARK    8  A    between atoms: C_27  and  O_28
REMARK    9  A    between atoms: C_29  and  O_30
REMARK   10  A    between atoms: C_31  and  O_32
REMARK                            x       y       z     vdW  Elec       q    Type
REMARK                         _______ _______ _______ _____ _____    ______ ____
ROOT
ATOM      1  C   UNL     1       2.242   7.311  18.902  0.00  0.00    +0.000 A 
ATOM      2  C   UNL     1       2.082   7.023  20.262  0.00  0.00    +0.000 A 
ATOM      3  C   UNL     1       1.454   7.936  21.112  0.00  0.00    +0.000 A 
ATOM      4  C   UNL     1       0.958   9.161  20.631  0.00  0.00    +0.000 A 
ATOM      5  C   UNL     1       1.096   9.457  19.256  0.00  0.00    +0.000 A 
ATOM      6  C   UNL     1       1.738   8.524  18.414  0.00  0.00    +0.000 A 
ENDROOT
BRANCH   1   9
ATOM      7  C   UNL     1       3.748   4.061  17.945  0.00  0.00    +0.000 C 
ATOM      8  O   UNL     1       3.212   5.124  18.745  0.00  0.00    +0.000 OA
ATOM      9  C   UNL     1       2.913   6.303  17.984  0.00  0.00    +0.000 C 
ATOM     10  C   UNL     1       4.202   6.879  17.352  0.00  0.00    +0.000 C 
ATOM     11  C   UNL     1       4.921   5.782  16.550  0.00  0.00    +0.000 C 
ATOM     12  C   UNL     1       5.100   4.495  17.367  0.00  0.00    +0.000 C 
BRANCH  10  13
ATOM     13  O   UNL     1       3.929   8.001  16.501  0.00  0.00    +0.000 OA
ATOM     14  H   UNL     1       3.047   7.894  16.108  0.00  0.00    +0.000 HD
ENDBRANCH  10  13
BRANCH  11  15
ATOM     15  O   UNL     1       6.199   6.240  16.073  0.00  0.00    +0.000 OA
ATOM     16  H   UNL     1       6.095   6.534  15.152  0.00  0.00    +0.000 HD
ENDBRANCH  11  15
BRANCH  12  17
ATOM     17  O   UNL     1       5.663   3.443  16.579  0.00  0.00    +0.000 OA
ATOM     18  H   UNL     1       6.117   2.817  17.171  0.00  0.00    +0.000 HD
ENDBRANCH  12  17
BRANCH   7  19
ATOM     19  C   UNL     1       3.914   2.801  18.811  0.00  0.00    +0.000 C 
BRANCH  19  20
ATOM     20  O   UNL     1       5.207   2.778  19.416  0.00  0.00    +0.000 OA
ATOM     21  H   UNL     1       5.536   3.694  19.406  0.00  0.00    +0.000 HD
ENDBRANCH  19  20
ENDBRANCH   7  19
ENDBRANCH   1   9
BRANCH   4  22
ATOM     22  C   UNL     1       0.325  10.124  21.619  0.00  0.00    +0.000 C 
ATOM     23  F   UNL     1      -1.036  10.179  21.519  0.00  0.00    +0.000 F 
ATOM     24  F   UNL     1       0.574   9.772  22.912  0.00  0.00    +0.000 F 
ATOM     25  F   UNL     1       0.746  11.405  21.484  0.00  0.00    +0.000 F 
ENDBRANCH   4  22
BRANCH   5  26
ATOM     26  C   UNL     1       0.551  10.725  18.623  0.00  0.00    +0.000 C 
BRANCH  26  27
ATOM     27  C   UNL     1      -0.880  10.589  18.185  0.00  0.00    +0.000 A 
ATOM     28  N   UNL     1      -1.308   9.677  17.339  0.00  0.00    +0.000 NA
ATOM     29  C   UNL     1      -2.667   9.827  17.138  0.00  0.00    +0.000 A 
ATOM     30  C   UNL     1      -3.276  10.833  17.860  0.00  0.00    +0.000 A 
ATOM     31  S   UNL     1      -2.093  11.644  18.799  0.00  0.00    +0.000 S 
BRANCH  30  32
ATOM     32  C   UNL     1      -4.671  11.170  17.869  0.00  0.00    +0.000 A 
ATOM     33  C   UNL     1      -5.332  12.237  17.279  0.00  0.00    +0.000 A 
ATOM     34  C   UNL     1      -6.702  12.129  17.619  0.00  0.00    +0.000 A 
ATOM     35  C   UNL     1      -6.811  10.998  18.388  0.00  0.00    +0.000 A 
ATOM     36  O   UNL     1      -5.600  10.411  18.541  0.00  0.00    +0.000 OA
ENDBRANCH  30  32
ENDBRANCH  26  27
ENDBRANCH   5  26
TORSDOF 10
ENDMDL
MODEL 5
REMARK VINA RESULT:      -7.8      0.898      1.196
REMARK  Name = 
REMARK  10 active torsions:
REMARK  status: ('A' for Active; 'I' for Inactive)
REMARK    1  A    between atoms: O_1  and  C_2
REMARK    2  A    between atoms: C_2  and  C_3
REMARK    3  A    between atoms: C_5  and  C_6
REMARK    4  A    between atoms: C_9  and  C_10
REMARK    5  A    between atoms: C_14  and  C_15
REMARK    6  A    between atoms: C_15  and  C_16
REMARK    7  A    between atoms: C_19  and  C_20
REMARK    8  A    between atoms: C_27  and  O_28
REMARK    9  A    between atoms: C_29  and  O_30
REMARK   10  A    between atoms: C_31  and  O_32
REMARK                            x       y       z     vdW  Elec       q    Type
REMARK                         _______ _______ _______ _____ _____    ______ ____
ROOT
ATOM      1  C   UNL     1       2.107   6.705  20.084  0.00  0.00    +0.000 A 
ATOM      2  C   UNL     1       1.134   5.726  20.319  0.00  0.00    +0.000 A 
ATOM      3  C   UNL     1       1.437   4.372  20.161  0.00  0.00    +0.000 A 
ATOM      4  C   UNL     1       2.720   3.950  19.770  0.00  0.00    +0.000 A 
ATOM      5  C   UNL     1       3.717   4.927  19.546  0.00  0.00    +0.000 A 
ATOM      6  C   UNL     1       3.391   6.291  19.706  0.00  0.00    +0.000 A 
ENDROOT
BRANCH   1   9
ATOM      7  C   UNL     1       0.452   9.640  21.631  0.00  0.00    +0.000 C 
ATOM      8  O   UNL     1       0.763   8.282  21.291  0.00  0.00    +0.000 OA
ATOM      9  C   UNL     1       1.770   8.174  20.275  0.00  0.00    +0.000 C 
ATOM     10  C   UNL     1       1.279   8.821  18.958  0.00  0.00    +0.000 C 
ATOM     11  C   UNL     1       0.815  10.262  19.230  0.00  0.00    +0.000 C 
ATOM     12  C   UNL     1      -0.160  10.339  20.412  0.00  0.00    +0.000 C 
BRANCH  10  13
ATOM     13  O   UNL     1       2.297   8.824  17.947  0.00  0.00    +0.000 OA
ATOM     14  H   UNL     1       3.128   9.148  18.333  0.00  0.00    +0.000 HD
ENDBRANCH  10  13
BRANCH  11  15
ATOM     15  O   UNL     1       0.213  10.844  18.060  0.00  0.00    +0.000 OA
ATOM     16  H   UNL     1      -0.716  10.559  18.020  0.00  0.00    +0.000 HD
ENDBRANCH  11  15
BRANCH  12  17
ATOM     17  O   UNL     1      -0.497  11.692  20.733  0.00  0.00    +0.000 OA
ATOM     18  H   UNL     1      -0.426  12.232  19.925  0.00  0.00    +0.000 HD
ENDBRANCH  12  17
BRANCH   7  19
ATOM     19  C   UNL     1      -0.532   9.660  22.812  0.00  0.00    +0.000 C 
BRANCH  19  20
ATOM     20  O   UNL     1      -0.548  10.949  23.426  0.00  0.00    +0.000 OA
ATOM     21  H   UNL     1      -0.124  10.849  24.296  0.00  0.00    +0.000 HD
ENDBRANCH  19  20
ENDBRANCH   7  19
ENDBRANCH   1   9
BRANCH   4  22
ATOM     22  C   UNL     1       2.967   2.465  19.576  0.00  0.00    +0.000 C 
ATOM     23  F   UNL     1       3.338   2.144  18.301  0.00  0.00    +0.000 F 
ATOM     24  F   UNL     1       3.974   2.003  20.368  0.00  0.00    +0.000 F 
ATOM     25  F   UNL     1       1.887   1.690  19.840  0.00  0.00    +0.000 F 
ENDBRANCH   4  22
BRANCH   5  26
ATOM     26  C   UNL     1       5.147   4.579  19.171  0.00  0.00    +0.000 C 
BRANCH  26  27
ATOM     27  C   UNL     1       5.460   4.872  17.730  0.00  0.00    +0.000 A 
ATOM     28  N   UNL     1       5.558   6.085  17.230  0.00  0.00    +0.000 NA
ATOM     29  C   UNL     1       5.843   6.011  15.880  0.00  0.00    +0.000 A 
ATOM     30  C   UNL     1       5.997   4.740  15.364  0.00  0.00    +0.000 A 
ATOM     31  S   UNL     1       5.738   3.594  16.613  0.00  0.00    +0.000 S 
BRANCH  30  32
ATOM     32  C   UNL     1       6.335   4.389  14.015  0.00  0.00    +0.000 A 
ATOM     33  C   UNL     1       7.334   4.886  13.191  0.00  0.00    +0.000 A 
ATOM     34  C   UNL     1       7.220   4.228  11.942  0.00  0.00    +0.000 A 
ATOM     35  C   UNL     1       6.168   3.357  12.069  0.00  0.00    +0.000 A 
ATOM     36  O   UNL     1       5.632   3.441  13.310  0.00  0.00    +0.000 OA
ENDBRANCH  30  32
ENDBRANCH  26  27
ENDBRANCH   5  26
TORSDOF 10
ENDMDL
MODEL 6
REMARK VINA RESULT:      -7.8      5.240      9.377
REMARK  Name = 
REMARK  10 active torsions:
REMARK  status: ('A' for Active; 'I' for Inactive)
REMARK    1  A    between atoms: O_1  and  C_2
REMARK    2  A    between atoms: C_2  and  C_3
REMARK    3  A    between atoms: C_5  and  C_6
REMARK    4  A    between atoms: C_9  and  C_10
REMARK    5  A    between atoms: C_14  and  C_15
REMARK    6  A    between atoms: C_15  and  C_16
REMARK    7  A    between atoms: C_19  and  C_20
REMARK    8  A    between atoms: C_27  and  O_28
REMARK    9  A    between atoms: C_29  and  O_30
REMARK   10  A    between atoms: C_31  and  O_32
REMARK                            x       y       z     vdW  Elec       q    Type
REMARK                         _______ _______ _______ _____ _____    ______ ____
ROOT
ATOM      1  C   UNL     1       2.205   6.940  19.095  0.00  0.00    +0.000 A 
ATOM      2  C   UNL     1       1.978   6.832  20.472  0.00  0.00    +0.000 A 
ATOM      3  C   UNL     1       1.430   7.900  21.187  0.00  0.00    +0.000 A 
ATOM      4  C   UNL     1       1.084   9.105  20.551  0.00  0.00    +0.000 A 
ATOM      5  C   UNL     1       1.291   9.222  19.157  0.00  0.00    +0.000 A 
ATOM      6  C   UNL     1       1.851   8.134  18.453  0.00  0.00    +0.000 A 
ENDROOT
BRANCH   1   9
ATOM      7  C   UNL     1       2.430   3.440  17.893  0.00  0.00    +0.000 C 
ATOM      8  O   UNL     1       2.035   4.590  18.654  0.00  0.00    +0.000 OA
ATOM      9  C   UNL     1       2.787   5.767  18.325  0.00  0.00    +0.000 C 
ATOM     10  C   UNL     1       4.285   5.559  18.650  0.00  0.00    +0.000 C 
ATOM     11  C   UNL     1       4.792   4.280  17.963  0.00  0.00    +0.000 C 
ATOM     12  C   UNL     1       3.880   3.078  18.240  0.00  0.00    +0.000 C 
BRANCH  10  13
ATOM     13  O   UNL     1       5.085   6.678  18.241  0.00  0.00    +0.000 OA
ATOM     14  H   UNL     1       6.017   6.491  18.442  0.00  0.00    +0.000 HD
ENDBRANCH  10  13
BRANCH  11  15
ATOM     15  O   UNL     1       6.139   3.974  18.364  0.00  0.00    +0.000 OA
ATOM     16  H   UNL     1       6.729   4.656  18.002  0.00  0.00    +0.000 HD
ENDBRANCH  11  15
BRANCH  12  17
ATOM     17  O   UNL     1       4.291   1.921  17.506  0.00  0.00    +0.000 OA
ATOM     18  H   UNL     1       4.217   2.112  16.554  0.00  0.00    +0.000 HD
ENDBRANCH  12  17
BRANCH   7  19
ATOM     19  C   UNL     1       1.492   2.266  18.213  0.00  0.00    +0.000 C 
BRANCH  19  20
ATOM     20  O   UNL     1       2.043   1.453  19.249  0.00  0.00    +0.000 OA
ATOM     21  H   UNL     1       1.294   1.125  19.775  0.00  0.00    +0.000 HD
ENDBRANCH  19  20
ENDBRANCH   7  19
ENDBRANCH   1   9
BRANCH   4  22
ATOM     22  C   UNL     1       0.534  10.239  21.397  0.00  0.00    +0.000 C 
ATOM     23  F   UNL     1       0.713  10.046  22.736  0.00  0.00    +0.000 F 
ATOM     24  F   UNL     1       1.141  11.427  21.122  0.00  0.00    +0.000 F 
ATOM     25  F   UNL     1      -0.797  10.445  21.240  0.00  0.00    +0.000 F 
ENDBRANCH   4  22
BRANCH   5  26
ATOM     26  C   UNL     1       0.906  10.458  18.363  0.00  0.00    +0.000 C 
BRANCH  26  27
ATOM     27  C   UNL     1      -0.565  10.523  18.065  0.00  0.00    +0.000 A 
ATOM     28  N   UNL     1      -1.232   9.579  17.437  0.00  0.00    +0.000 NA
ATOM     29  C   UNL     1      -2.558   9.947  17.313  0.00  0.00    +0.000 A 
ATOM     30  C   UNL     1      -2.904  11.158  17.878  0.00  0.00    +0.000 A 
ATOM     31  S   UNL     1      -1.504  11.877  18.561  0.00  0.00    +0.000 S 
BRANCH  30  32
ATOM     32  C   UNL     1      -4.210  11.749  17.927  0.00  0.00    +0.000 A 
ATOM     33  C   UNL     1      -4.970  12.136  19.021  0.00  0.00    +0.000 A 
ATOM     34  C   UNL     1      -6.202  12.632  18.527  0.00  0.00    +0.000 A 
ATOM     35  C   UNL     1      -6.128  12.534  17.162  0.00  0.00    +0.000 A 
ATOM     36  O   UNL     1      -4.936  12.009  16.789  0.00  0.00    +0.000 OA
ENDBRANCH  30  32
ENDBRANCH  26  27
ENDBRANCH   5  26
TORSDOF 10
ENDMDL
MODEL 7
REMARK VINA RESULT:      -7.8      4.973      9.289
REMARK  Name = 
REMARK  10 active torsions:
REMARK  status: ('A' for Active; 'I' for Inactive)
REMARK    1  A    between atoms: O_1  and  C_2
REMARK    2  A    between atoms: C_2  and  C_3
REMARK    3  A    between atoms: C_5  and  C_6
REMARK    4  A    between atoms: C_9  and  C_10
REMARK    5  A    between atoms: C_14  and  C_15
REMARK    6  A    between atoms: C_15  and  C_16
REMARK    7  A    between atoms: C_19  and  C_20
REMARK    8  A    between atoms: C_27  and  O_28
REMARK    9  A    between atoms: C_29  and  O_30
REMARK   10  A    between atoms: C_31  and  O_32
REMARK                            x       y       z     vdW  Elec       q    Type
REMARK                         _______ _______ _______ _____ _____    ______ ____
ROOT
ATOM      1  C   UNL     1       2.490   6.950  18.739  0.00  0.00    +0.000 A 
ATOM      2  C   UNL     1       2.226   6.528  20.047  0.00  0.00    +0.000 A 
ATOM      3  C   UNL     1       1.603   7.384  20.958  0.00  0.00    +0.000 A 
ATOM      4  C   UNL     1       1.219   8.686  20.592  0.00  0.00    +0.000 A 
ATOM      5  C   UNL     1       1.464   9.121  19.269  0.00  0.00    +0.000 A 
ATOM      6  C   UNL     1       2.098   8.242  18.364  0.00  0.00    +0.000 A 
ENDROOT
BRANCH   1   9
ATOM      7  C   UNL     1       3.411   3.676  17.264  0.00  0.00    +0.000 C 
ATOM      8  O   UNL     1       2.922   4.657  18.188  0.00  0.00    +0.000 OA
ATOM      9  C   UNL     1       3.153   6.004  17.752  0.00  0.00    +0.000 C 
ATOM     10  C   UNL     1       4.671   6.280  17.632  0.00  0.00    +0.000 C 
ATOM     11  C   UNL     1       5.323   5.211  16.737  0.00  0.00    +0.000 C 
ATOM     12  C   UNL     1       4.937   3.789  17.166  0.00  0.00    +0.000 C 
BRANCH  10  13
ATOM     13  O   UNL     1       4.941   7.585  17.101  0.00  0.00    +0.000 OA
ATOM     14  H   UNL     1       5.902   7.733  17.097  0.00  0.00    +0.000 HD
ENDBRANCH  10  13
BRANCH  11  15
ATOM     15  O   UNL     1       6.754   5.347  16.724  0.00  0.00    +0.000 OA
ATOM     16  H   UNL     1       7.019   5.722  15.867  0.00  0.00    +0.000 HD
ENDBRANCH  11  15
BRANCH  12  17
ATOM     17  O   UNL     1       5.451   2.807  16.263  0.00  0.00    +0.000 OA
ATOM     18  H   UNL     1       5.322   3.123  15.351  0.00  0.00    +0.000 HD
ENDBRANCH  12  17
BRANCH   7  19
ATOM     19  C   UNL     1       3.006   2.273  17.743  0.00  0.00    +0.000 C 
BRANCH  19  20
ATOM     20  O   UNL     1       4.057   1.684  18.509  0.00  0.00    +0.000 OA
ATOM     21  H   UNL     1       4.770   1.467  17.884  0.00  0.00    +0.000 HD
ENDBRANCH  19  20
ENDBRANCH   7  19
ENDBRANCH   1   9
BRANCH   4  22
ATOM     22  C   UNL     1       0.587   9.578  21.645  0.00  0.00    +0.000 C 
ATOM     23  F   UNL     1       1.015  10.873  21.581  0.00  0.00    +0.000 F 
ATOM     24  F   UNL     1      -0.769   9.643  21.517  0.00  0.00    +0.000 F 
ATOM     25  F   UNL     1       0.831   9.183  22.918  0.00  0.00    +0.000 F 
ENDBRANCH   4  22
BRANCH   5  26
ATOM     26  C   UNL     1       1.043  10.486  18.754  0.00  0.00    +0.000 C 
BRANCH  26  27
ATOM     27  C   UNL     1      -0.404  10.537  18.351  0.00  0.00    +0.000 A 
ATOM     28  N   UNL     1      -0.988   9.638  17.589  0.00  0.00    +0.000 NA
ATOM     29  C   UNL     1      -2.313   9.977  17.398  0.00  0.00    +0.000 A 
ATOM     30  C   UNL     1      -2.744  11.117  18.046  0.00  0.00    +0.000 A 
ATOM     31  S   UNL     1      -1.426  11.808  18.899  0.00  0.00    +0.000 S 
BRANCH  30  32
ATOM     32  C   UNL     1      -4.071  11.662  18.050  0.00  0.00    +0.000 A 
ATOM     33  C   UNL     1      -4.859  12.075  19.114  0.00  0.00    +0.000 A 
ATOM     34  C   UNL     1      -6.101  12.500  18.582  0.00  0.00    +0.000 A 
ATOM     35  C   UNL     1      -6.005  12.336  17.224  0.00  0.00    +0.000 A 
ATOM     36  O   UNL     1      -4.791  11.837  16.892  0.00  0.00    +0.000 OA
ENDBRANCH  30  32
ENDBRANCH  26  27
ENDBRANCH   5  26
TORSDOF 10
ENDMDL
MODEL 8
REMARK VINA RESULT:      -7.4      5.267      9.491
REMARK  Name = 
REMARK  10 active torsions:
REMARK  status: ('A' for Active; 'I' for Inactive)
REMARK    1  A    between atoms: O_1  and  C_2
REMARK    2  A    between atoms: C_2  and  C_3
REMARK    3  A    between atoms: C_5  and  C_6
REMARK    4  A    between atoms: C_9  and  C_10
REMARK    5  A    between atoms: C_14  and  C_15
REMARK    6  A    between atoms: C_15  and  C_16
REMARK    7  A    between atoms: C_19  and  C_20
REMARK    8  A    between atoms: C_27  and  O_28
REMARK    9  A    between atoms: C_29  and  O_30
REMARK   10  A    between atoms: C_31  and  O_32
REMARK                            x       y       z     vdW  Elec       q    Type
REMARK                         _______ _______ _______ _____ _____    ______ ____
ROOT
ATOM      1  C   UNL     1       2.181   7.468  19.712  0.00  0.00    +0.000 A 
ATOM      2  C   UNL     1       1.815   7.427  21.063  0.00  0.00    +0.000 A 
ATOM      3  C   UNL     1       1.061   8.459  21.626  0.00  0.00    +0.000 A 
ATOM      4  C   UNL     1       0.643   9.561  20.860  0.00  0.00    +0.000 A 
ATOM      5  C   UNL     1       0.991   9.608  19.490  0.00  0.00    +0.000 A 
ATOM      6  C   UNL     1       1.757   8.558  18.940  0.00  0.00    +0.000 A 
ENDROOT
BRANCH   1   9
ATOM      7  C   UNL     1       4.780   5.905  17.580  0.00  0.00    +0.000 C 
ATOM      8  O   UNL     1       3.888   6.882  18.134  0.00  0.00    +0.000 OA
ATOM      9  C   UNL     1       2.988   6.332  19.106  0.00  0.00    +0.000 C 
ATOM     10  C   UNL     1       2.071   5.270  18.454  0.00  0.00    +0.000 C 
ATOM     11  C   UNL     1       2.930   4.218  17.731  0.00  0.00    +0.000 C 
ATOM     12  C   UNL     1       3.968   4.863  16.801  0.00  0.00    +0.000 C 
BRANCH  10  13
ATOM     13  O   UNL     1       1.225   4.624  19.415  0.00  0.00    +0.000 OA
ATOM     14  H   UNL     1       1.192   5.165  20.222  0.00  0.00    +0.000 HD
ENDBRANCH  10  13
BRANCH  11  15
ATOM     15  O   UNL     1       2.111   3.300  16.987  0.00  0.00    +0.000 OA
ATOM     16  H   UNL     1       2.685   2.607  16.618  0.00  0.00    +0.000 HD
ENDBRANCH  11  15
BRANCH  12  17
ATOM     17  O   UNL     1       4.838   3.887  16.223  0.00  0.00    +0.000 OA
ATOM     18  H   UNL     1       4.596   3.008  16.567  0.00  0.00    +0.000 HD
ENDBRANCH  12  17
BRANCH   7  19
ATOM     19  C   UNL     1       5.790   6.600  16.653  0.00  0.00    +0.000 C 
BRANCH  19  20
ATOM     20  O   UNL     1       5.314   6.600  15.307  0.00  0.00    +0.000 OA
ATOM     21  H   UNL     1       5.922   7.163  14.796  0.00  0.00    +0.000 HD
ENDBRANCH  19  20
ENDBRANCH   7  19
ENDBRANCH   1   9
BRANCH   4  22
ATOM     22  C   UNL     1      -0.136  10.667  21.548  0.00  0.00    +0.000 C 
ATOM     23  F   UNL     1      -0.048  10.620  22.909  0.00  0.00    +0.000 F 
ATOM     24  F   UNL     1       0.316  11.906  21.203  0.00  0.00    +0.000 F 
ATOM     25  F   UNL     1      -1.464  10.656  21.274  0.00  0.00    +0.000 F 
ENDBRANCH   4  22
BRANCH   5  26
ATOM     26  C   UNL     1       0.547  10.724  18.561  0.00  0.00    +0.000 C 
BRANCH  26  27
ATOM     27  C   UNL     1      -0.895  10.607  18.157  0.00  0.00    +0.000 A 
ATOM     28  N   UNL     1      -1.387   9.604  17.463  0.00  0.00    +0.000 NA
ATOM     29  C   UNL     1      -2.737   9.800  17.249  0.00  0.00    +0.000 A 
ATOM     30  C   UNL     1      -3.278  10.939  17.812  0.00  0.00    +0.000 A 
ATOM     31  S   UNL     1      -2.037  11.812  18.610  0.00  0.00    +0.000 S 
BRANCH  30  32
ATOM     32  C   UNL     1      -4.651  11.353  17.777  0.00  0.00    +0.000 A 
ATOM     33  C   UNL     1      -5.726  10.935  18.546  0.00  0.00    +0.000 A 
ATOM     34  C   UNL     1      -6.872  11.630  18.088  0.00  0.00    +0.000 A 
ATOM     35  C   UNL     1      -6.439  12.444  17.073  0.00  0.00    +0.000 A 
ATOM     36  O   UNL     1      -5.107  12.290  16.879  0.00  0.00    +0.000 OA
ENDBRANCH  30  32
ENDBRANCH  26  27
ENDBRANCH   5  26
TORSDOF 10
ENDMDL
MODEL 9
REMARK VINA RESULT:      -7.3      2.397      3.156
REMARK  Name = 
REMARK  10 active torsions:
REMARK  status: ('A' for Active; 'I' for Inactive)
REMARK    1  A    between atoms: O_1  and  C_2
REMARK    2  A    between atoms: C_2  and  C_3
REMARK    3  A    between atoms: C_5  and  C_6
REMARK    4  A    between atoms: C_9  and  C_10
REMARK    5  A    between atoms: C_14  and  C_15
REMARK    6  A    between atoms: C_15  and  C_16
REMARK    7  A    between atoms: C_19  and  C_20
REMARK    8  A    between atoms: C_27  and  O_28
REMARK    9  A    between atoms: C_29  and  O_30
REMARK   10  A    between atoms: C_31  and  O_32
REMARK                            x       y       z     vdW  Elec       q    Type
REMARK                         _______ _______ _______ _____ _____    ______ ____
ROOT
ATOM      1  C   UNL     1       2.254   6.376  19.693  0.00  0.00    +0.000 A 
ATOM      2  C   UNL     1       1.406   5.376  20.181  0.00  0.00    +0.000 A 
ATOM      3  C   UNL     1       1.646   4.033  19.883  0.00  0.00    +0.000 A 
ATOM      4  C   UNL     1       2.743   3.644  19.094  0.00  0.00    +0.000 A 
ATOM      5  C   UNL     1       3.619   4.642  18.609  0.00  0.00    +0.000 A 
ATOM      6  C   UNL     1       3.357   5.994  18.917  0.00  0.00    +0.000 A 
ENDROOT
BRANCH   1   9
ATOM      7  C   UNL     1       0.756   9.213  21.552  0.00  0.00    +0.000 C 
ATOM      8  O   UNL     1       0.998   7.884  21.070  0.00  0.00    +0.000 OA
ATOM      9  C   UNL     1       1.992   7.833  20.037  0.00  0.00    +0.000 C 
ATOM     10  C   UNL     1       1.526   8.635  18.799  0.00  0.00    +0.000 C 
ATOM     11  C   UNL     1       1.136  10.061  19.222  0.00  0.00    +0.000 C 
ATOM     12  C   UNL     1       0.172  10.063  20.417  0.00  0.00    +0.000 C 
BRANCH  10  13
ATOM     13  O   UNL     1       2.537   8.692  17.782  0.00  0.00    +0.000 OA
ATOM     14  H   UNL     1       2.980   9.556  17.824  0.00  0.00    +0.000 HD
ENDBRANCH  10  13
BRANCH  11  15
ATOM     15  O   UNL     1       0.557  10.789  18.126  0.00  0.00    +0.000 OA
ATOM     16  H   UNL     1      -0.195  10.277  17.781  0.00  0.00    +0.000 HD
ENDBRANCH  11  15
BRANCH  12  17
ATOM     17  O   UNL     1      -0.094  11.390  20.879  0.00  0.00    +0.000 OA
ATOM     18  H   UNL     1       0.306  11.502  21.759  0.00  0.00    +0.000 HD
ENDBRANCH  12  17
BRANCH   7  19
ATOM     19  C   UNL     1      -0.218   9.159  22.739  0.00  0.00    +0.000 C 
BRANCH  19  20
ATOM     20  O   UNL     1      -0.208  10.398  23.449  0.00  0.00    +0.000 OA
ATOM     21  H   UNL     1       0.569  10.892  23.137  0.00  0.00    +0.000 HD
ENDBRANCH  19  20
ENDBRANCH   7  19
ENDBRANCH   1   9
BRANCH   4  22
ATOM     22  C   UNL     1       2.918   2.171  18.774  0.00  0.00    +0.000 C 
ATOM     23  F   UNL     1       1.943   1.383  19.315  0.00  0.00    +0.000 F 
ATOM     24  F   UNL     1       2.872   1.927  17.434  0.00  0.00    +0.000 F 
ATOM     25  F   UNL     1       4.088   1.648  19.216  0.00  0.00    +0.000 F 
ENDBRANCH   4  22
BRANCH   5  26
ATOM     26  C   UNL     1       4.861   4.328  17.793  0.00  0.00    +0.000 C 
BRANCH  26  27
ATOM     27  C   UNL     1       6.003   5.259  18.089  0.00  0.00    +0.000 A 
ATOM     28  N   UNL     1       7.139   4.882  18.633  0.00  0.00    +0.000 NA
ATOM     29  C   UNL     1       7.972   5.973  18.781  0.00  0.00    +0.000 A 
ATOM     30  C   UNL     1       7.479   7.176  18.316  0.00  0.00    +0.000 A 
ATOM     31  S   UNL     1       5.897   6.932  17.702  0.00  0.00    +0.000 S 
BRANCH  30  32
ATOM     32  C   UNL     1       8.152   8.443  18.309  0.00  0.00    +0.000 A 
ATOM     33  C   UNL     1       8.101   9.472  17.381  0.00  0.00    +0.000 A 
ATOM     34  C   UNL     1       8.980  10.489  17.826  0.00  0.00    +0.000 A 
ATOM     35  C   UNL     1       9.514  10.037  19.005  0.00  0.00    +0.000 A 
ATOM     36  O   UNL     1       9.022   8.812  19.308  0.00  0.00    +0.000 OA
ENDBRANCH  30  32
ENDBRANCH  26  27
ENDBRANCH   5  26
TORSDOF 10
ENDMDL
