MODEL 1
REMARK VINA RESULT:      -8.5      0.000      0.000
REMARK  Name = 
REMARK  5 active torsions:
REMARK  status: ('A' for Active; 'I' for Inactive)
REMARK    1  A    between atoms: C_1  and  C_2
REMARK    2  A    between atoms: C_6  and  C_7
REMARK    3  A    between atoms: C_10  and  C_11
REMARK    4  A    between atoms: C_11  and  N_12
REMARK    5  A    between atoms: N_17  and  C_18
REMARK                            x       y       z     vdW  Elec       q    Type
REMARK                         _______ _______ _______ _____ _____    ______ ____
ROOT
ATOM      1  C   UNL     1       3.911   4.757  18.739  0.00  0.00    +0.000 C 
ENDROOT
BRANCH   1   2
ATOM      2  N   UNL     1       2.969   5.907  18.708  0.00  0.00    +0.000 NA
ATOM      3  C   UNL     1       3.540   7.058  18.003  0.00  0.00    +0.000 C 
ATOM      4  C   UNL     1       2.469   8.109  17.757  0.00  0.00    +0.000 C 
ATOM      5  C   UNL     1       1.769   8.512  19.035  0.00  0.00    +0.000 A 
ATOM      6  N   UNL     1       1.195   9.674  19.059  0.00  0.00    +0.000 NA
ATOM      7  N   UNL     1       0.529  10.036  20.205  0.00  0.00    +0.000 N 
ATOM      8  C   UNL     1      -0.088  11.345  20.215  0.00  0.00    +0.000 C 
ATOM      9  C   UNL     1       0.416   9.233  21.329  0.00  0.00    +0.000 A 
ATOM     10  O   UNL     1      -0.169   9.542  22.364  0.00  0.00    +0.000 OA
ATOM     11  C   UNL     1       1.076   7.917  21.247  0.00  0.00    +0.000 A 
ATOM     12  C   UNL     1       1.748   7.543  20.153  0.00  0.00    +0.000 A 
ATOM     13  C   UNL     1       2.521   6.269  20.061  0.00  0.00    +0.000 C 
ENDBRANCH   1   2
BRANCH   1  17
ATOM     14  C   UNL     1       6.121   4.572  15.929  0.00  0.00    +0.000 A 
ATOM     15  N   UNL     1       7.031   4.614  16.918  0.00  0.00    +0.000 NA
ATOM     16  O   UNL     1       6.263   4.738  18.075  0.00  0.00    +0.000 OA
ATOM     17  C   UNL     1       4.960   4.754  17.674  0.00  0.00    +0.000 A 
ATOM     18  N   UNL     1       4.818   4.670  16.372  0.00  0.00    +0.000 NA
BRANCH  14  24
ATOM     19  C   UNL     1       5.328   2.401  11.479  0.00  0.00    +0.000 C 
ATOM     20  C   UNL     1       6.073   3.384  12.333  0.00  0.00    +0.000 A 
ATOM     21  C   UNL     1       7.110   4.156  11.799  0.00  0.00    +0.000 A 
ATOM     22  C   UNL     1       7.801   5.063  12.600  0.00  0.00    +0.000 A 
ATOM     23  C   UNL     1       7.467   5.197  13.948  0.00  0.00    +0.000 A 
ATOM     24  C   UNL     1       6.439   4.426  14.513  0.00  0.00    +0.000 A 
ATOM     25  C   UNL     1       5.743   3.525  13.692  0.00  0.00    +0.000 A 
ENDBRANCH  14  24
ENDBRANCH   1  17
TORSDOF 3
ENDMDL
MODEL 2
REMARK VINA RESULT:      -8.5      2.366      8.344
REMARK  Name = 
REMARK  5 active torsions:
REMARK  status: ('A' for Active; 'I' for Inactive)
REMARK    1  A    between atoms: C_1  and  C_2
REMARK    2  A    between atoms: C_6  and  C_7
REMARK    3  A    between atoms: C_10  and  C_11
REMARK    4  A    between atoms: C_11  and  N_12
REMARK    5  A    between atoms: N_17  and  C_18
REMARK                            x       y       z     vdW  Elec       q    Type
REMARK                         _______ _______ _______ _____ _____    ______ ____
ROOT
ATOM      1  C   UNL     1       4.633   3.638  19.589  0.00  0.00    +0.000 C 
ENDROOT
BRANCH   1   2
ATOM      2  N   UNL     1       5.593   3.866  18.478  0.00  0.00    +0.000 NA
ATOM      3  C   UNL     1       6.150   5.222  18.509  0.00  0.00    +0.000 C 
ATOM      4  C   UNL     1       7.312   5.337  17.536  0.00  0.00    +0.000 C 
ATOM      5  C   UNL     1       6.923   4.911  16.138  0.00  0.00    +0.000 A 
ATOM      6  N   UNL     1       7.628   5.378  15.155  0.00  0.00    +0.000 NA
ATOM      7  N   UNL     1       7.301   4.971  13.884  0.00  0.00    +0.000 N 
ATOM      8  C   UNL     1       8.091   5.519  12.802  0.00  0.00    +0.000 C 
ATOM      9  C   UNL     1       6.280   4.083  13.586  0.00  0.00    +0.000 A 
ATOM     10  O   UNL     1       5.970   3.714  12.456  0.00  0.00    +0.000 OA
ATOM     11  C   UNL     1       5.515   3.573  14.739  0.00  0.00    +0.000 A 
ATOM     12  C   UNL     1       5.797   3.964  15.987  0.00  0.00    +0.000 A 
ATOM     13  C   UNL     1       4.986   3.560  17.175  0.00  0.00    +0.000 C 
ENDBRANCH   1   2
BRANCH   1  17
ATOM     14  C   UNL     1       2.373   6.405  19.820  0.00  0.00    +0.000 A 
ATOM     15  N   UNL     1       1.761   5.554  20.662  0.00  0.00    +0.000 NA
ATOM     16  O   UNL     1       2.548   4.404  20.607  0.00  0.00    +0.000 OA
ATOM     17  C   UNL     1       3.564   4.673  19.740  0.00  0.00    +0.000 A 
ATOM     18  N   UNL     1       3.498   5.877  19.220  0.00  0.00    +0.000 NA
BRANCH  14  24
ATOM     19  C   UNL     1       0.140  10.644  21.300  0.00  0.00    +0.000 C 
ATOM     20  C   UNL     1       0.846   9.846  20.245  0.00  0.00    +0.000 A 
ATOM     21  C   UNL     1       1.065  10.377  18.970  0.00  0.00    +0.000 A 
ATOM     22  C   UNL     1       1.718   9.627  17.993  0.00  0.00    +0.000 A 
ATOM     23  C   UNL     1       2.148   8.331  18.282  0.00  0.00    +0.000 A 
ATOM     24  C   UNL     1       1.930   7.769  19.549  0.00  0.00    +0.000 A 
ATOM     25  C   UNL     1       1.283   8.539  20.527  0.00  0.00    +0.000 A 
ENDBRANCH  14  24
ENDBRANCH   1  17
TORSDOF 3
ENDMDL
MODEL 3
REMARK VINA RESULT:      -8.5      1.224      1.827
REMARK  Name = 
REMARK  5 active torsions:
REMARK  status: ('A' for Active; 'I' for Inactive)
REMARK    1  A    between atoms: C_1  and  C_2
REMARK    2  A    between atoms: C_6  and  C_7
REMARK    3  A    between atoms: C_10  and  C_11
REMARK    4  A    between atoms: C_11  and  N_12
REMARK    5  A    between atoms: N_17  and  C_18
REMARK                            x       y       z     vdW  Elec       q    Type
REMARK                         _______ _______ _______ _____ _____    ______ ____
ROOT
ATOM      1  C   UNL     1       4.006   3.958  18.769  0.00  0.00    +0.000 C 
ENDROOT
BRANCH   1   2
ATOM      2  N   UNL     1       3.451   5.171  19.424  0.00  0.00    +0.000 NA
ATOM      3  C   UNL     1       2.270   4.860  20.235  0.00  0.00    +0.000 C 
ATOM      4  C   UNL     1       1.890   6.055  21.093  0.00  0.00    +0.000 C 
ATOM      5  C   UNL     1       1.701   7.307  20.267  0.00  0.00    +0.000 A 
ATOM      6  N   UNL     1       0.954   8.243  20.766  0.00  0.00    +0.000 NA
ATOM      7  N   UNL     1       0.802   9.397  20.035  0.00  0.00    +0.000 N 
ATOM      8  C   UNL     1      -0.050  10.419  20.603  0.00  0.00    +0.000 C 
ATOM      9  C   UNL     1       1.409   9.633  18.812  0.00  0.00    +0.000 A 
ATOM     10  O   UNL     1       1.279  10.655  18.143  0.00  0.00    +0.000 OA
ATOM     11  C   UNL     1       2.256   8.543  18.294  0.00  0.00    +0.000 A 
ATOM     12  C   UNL     1       2.409   7.400  18.972  0.00  0.00    +0.000 A 
ATOM     13  C   UNL     1       3.169   6.228  18.442  0.00  0.00    +0.000 C 
ENDBRANCH   1   2
BRANCH   1  17
ATOM     14  C   UNL     1       6.137   4.324  15.917  0.00  0.00    +0.000 A 
ATOM     15  N   UNL     1       7.036   4.554  16.890  0.00  0.00    +0.000 NA
ATOM     16  O   UNL     1       6.286   4.482  18.063  0.00  0.00    +0.000 OA
ATOM     17  C   UNL     1       5.004   4.210  17.686  0.00  0.00    +0.000 A 
ATOM     18  N   UNL     1       4.856   4.118  16.384  0.00  0.00    +0.000 NA
BRANCH  14  24
ATOM     19  C   UNL     1       5.379   2.412  11.343  0.00  0.00    +0.000 C 
ATOM     20  C   UNL     1       6.099   3.364  12.253  0.00  0.00    +0.000 A 
ATOM     21  C   UNL     1       7.105   4.201  11.762  0.00  0.00    +0.000 A 
ATOM     22  C   UNL     1       7.773   5.079  12.615  0.00  0.00    +0.000 A 
ATOM     23  C   UNL     1       7.445   5.117  13.971  0.00  0.00    +0.000 A 
ATOM     24  C   UNL     1       6.448   4.278  14.492  0.00  0.00    +0.000 A 
ATOM     25  C   UNL     1       5.776   3.408  13.620  0.00  0.00    +0.000 A 
ENDBRANCH  14  24
ENDBRANCH   1  17
TORSDOF 3
ENDMDL
MODEL 4
REMARK VINA RESULT:      -8.5      5.074      7.112
REMARK  Name = 
REMARK  5 active torsions:
REMARK  status: ('A' for Active; 'I' for Inactive)
REMARK    1  A    between atoms: C_1  and  C_2
REMARK    2  A    between atoms: C_6  and  C_7
REMARK    3  A    between atoms: C_10  and  C_11
REMARK    4  A    between atoms: C_11  and  N_12
REMARK    5  A    between atoms: N_17  and  C_18
REMARK                            x       y       z     vdW  Elec       q    Type
REMARK                         _______ _______ _______ _____ _____    ______ ____
ROOT
ATOM      1  C   UNL     1       6.337   7.024  16.472  0.00  0.00    +0.000 C 
ENDROOT
BRANCH   1   2
ATOM      2  N   UNL     1       5.592   5.859  17.017  0.00  0.00    +0.000 NA
ATOM      3  C   UNL     1       5.168   4.940  15.957  0.00  0.00    +0.000 C 
ATOM      4  C   UNL     1       4.650   3.644  16.559  0.00  0.00    +0.000 C 
ATOM      5  C   UNL     1       3.557   3.888  17.573  0.00  0.00    +0.000 A 
ATOM      6  N   UNL     1       2.733   2.915  17.809  0.00  0.00    +0.000 NA
ATOM      7  N   UNL     1       1.755   3.118  18.752  0.00  0.00    +0.000 N 
ATOM      8  C   UNL     1       0.837   2.023  18.984  0.00  0.00    +0.000 C 
ATOM      9  C   UNL     1       1.602   4.287  19.480  0.00  0.00    +0.000 A 
ATOM     10  O   UNL     1       0.731   4.488  20.322  0.00  0.00    +0.000 OA
ATOM     11  C   UNL     1       2.570   5.359  19.183  0.00  0.00    +0.000 A 
ATOM     12  C   UNL     1       3.522   5.200  18.258  0.00  0.00    +0.000 A 
ATOM     13  C   UNL     1       4.457   6.290  17.846  0.00  0.00    +0.000 C 
ENDBRANCH   1   2
BRANCH   1  17
ATOM     14  C   UNL     1       8.550   8.996  18.478  0.00  0.00    +0.000 A 
ATOM     15  N   UNL     1       8.723   7.803  19.074  0.00  0.00    +0.000 NA
ATOM     16  O   UNL     1       7.853   6.957  18.387  0.00  0.00    +0.000 OA
ATOM     17  C   UNL     1       7.240   7.720  17.438  0.00  0.00    +0.000 A 
ATOM     18  N   UNL     1       7.620   8.977  17.459  0.00  0.00    +0.000 NA
BRANCH  14  24
ATOM     19  C   UNL     1      11.108  13.104  17.162  0.00  0.00    +0.000 C 
ATOM     20  C   UNL     1      10.516  12.225  18.223  0.00  0.00    +0.000 A 
ATOM     21  C   UNL     1      10.665  12.536  19.578  0.00  0.00    +0.000 A 
ATOM     22  C   UNL     1      10.116  11.711  20.558  0.00  0.00    +0.000 A 
ATOM     23  C   UNL     1       9.421  10.559  20.189  0.00  0.00    +0.000 A 
ATOM     24  C   UNL     1       9.266  10.216  18.837  0.00  0.00    +0.000 A 
ATOM     25  C   UNL     1       9.814  11.062  17.860  0.00  0.00    +0.000 A 
ENDBRANCH  14  24
ENDBRANCH   1  17
TORSDOF 3
ENDMDL
MODEL 5
REMARK VINA RESULT:      -8.2      5.035      7.229
REMARK  Name = 
REMARK  5 active torsions:
REMARK  status: ('A' for Active; 'I' for Inactive)
REMARK    1  A    between atoms: C_1  and  C_2
REMARK    2  A    between atoms: C_6  and  C_7
REMARK    3  A    between atoms: C_10  and  C_11
REMARK    4  A    between atoms: C_11  and  N_12
REMARK    5  A    between atoms: N_17  and  C_18
REMARK                            x       y       z     vdW  Elec       q    Type
REMARK                         _______ _______ _______ _____ _____    ______ ____
ROOT
ATOM      1  C   UNL     1       6.382   6.984  16.455  0.00  0.00    +0.000 C 
ENDROOT
BRANCH   1   2
ATOM      2  N   UNL     1       5.629   5.829  17.011  0.00  0.00    +0.000 NA
ATOM      3  C   UNL     1       5.189   4.909  15.958  0.00  0.00    +0.000 C 
ATOM      4  C   UNL     1       4.663   3.621  16.570  0.00  0.00    +0.000 C 
ATOM      5  C   UNL     1       3.579   3.881  17.591  0.00  0.00    +0.000 A 
ATOM      6  N   UNL     1       2.748   2.917  17.837  0.00  0.00    +0.000 NA
ATOM      7  N   UNL     1       1.778   3.135  18.786  0.00  0.00    +0.000 N 
ATOM      8  C   UNL     1       0.851   2.050  19.030  0.00  0.00    +0.000 C 
ATOM      9  C   UNL     1       1.642   4.309  19.509  0.00  0.00    +0.000 A 
ATOM     10  O   UNL     1       0.778   4.523  20.356  0.00  0.00    +0.000 OA
ATOM     11  C   UNL     1       2.618   5.370  19.200  0.00  0.00    +0.000 A 
ATOM     12  C   UNL     1       3.561   5.196  18.269  0.00  0.00    +0.000 A 
ATOM     13  C   UNL     1       4.504   6.275  17.845  0.00  0.00    +0.000 C 
ENDBRANCH   1   2
BRANCH   1  17
ATOM     14  C   UNL     1       8.548   9.007  18.461  0.00  0.00    +0.000 A 
ATOM     15  N   UNL     1       8.740   7.821  19.064  0.00  0.00    +0.000 NA
ATOM     16  O   UNL     1       7.889   6.955  18.377  0.00  0.00    +0.000 OA
ATOM     17  C   UNL     1       7.267   7.702  17.422  0.00  0.00    +0.000 A 
ATOM     18  N   UNL     1       7.624   8.965  17.438  0.00  0.00    +0.000 NA
BRANCH  14  24
ATOM     19  C   UNL     1       9.690  12.559  21.811  0.00  0.00    +0.000 C 
ATOM     20  C   UNL     1       9.812  11.986  20.431  0.00  0.00    +0.000 A 
ATOM     21  C   UNL     1      10.562  12.638  19.448  0.00  0.00    +0.000 A 
ATOM     22  C   UNL     1      10.667  12.101  18.165  0.00  0.00    +0.000 A 
ATOM     23  C   UNL     1      10.010  10.910  17.854  0.00  0.00    +0.000 A 
ATOM     24  C   UNL     1       9.240  10.241  18.817  0.00  0.00    +0.000 A 
ATOM     25  C   UNL     1       9.154  10.786  20.108  0.00  0.00    +0.000 A 
ENDBRANCH  14  24
ENDBRANCH   1  17
TORSDOF 3
ENDMDL
MODEL 6
REMARK VINA RESULT:      -7.9      3.614      6.322
REMARK  Name = 
REMARK  5 active torsions:
REMARK  status: ('A' for Active; 'I' for Inactive)
REMARK    1  A    between atoms: C_1  and  C_2
REMARK    2  A    between atoms: C_6  and  C_7
REMARK    3  A    between atoms: C_10  and  C_11
REMARK    4  A    between atoms: C_11  and  N_12
REMARK    5  A    between atoms: N_17  and  C_18
REMARK                            x       y       z     vdW  Elec       q    Type
REMARK                         _______ _______ _______ _____ _____    ______ ____
ROOT
ATOM      1  C   UNL     1       0.570  10.614  19.277  0.00  0.00    +0.000 C 
ENDROOT
BRANCH   1   2
ATOM      2  N   UNL     1      -0.898  10.526  19.059  0.00  0.00    +0.000 NA
ATOM      3  C   UNL     1      -1.226  10.323  17.645  0.00  0.00    +0.000 C 
ATOM      4  C   UNL     1      -2.698   9.974  17.490  0.00  0.00    +0.000 C 
ATOM      5  C   UNL     1      -3.594  11.001  18.143  0.00  0.00    +0.000 A 
ATOM      6  N   UNL     1      -4.814  11.088  17.711  0.00  0.00    +0.000 NA
ATOM      7  N   UNL     1      -5.645  11.997  18.320  0.00  0.00    +0.000 N 
ATOM      8  C   UNL     1      -6.995  12.090  17.808  0.00  0.00    +0.000 C 
ATOM      9  C   UNL     1      -5.270  12.813  19.376  0.00  0.00    +0.000 A 
ATOM     10  O   UNL     1      -5.998  13.635  19.928  0.00  0.00    +0.000 OA
ATOM     11  C   UNL     1      -3.878  12.667  19.838  0.00  0.00    +0.000 A 
ATOM     12  C   UNL     1      -3.039  11.805  19.254  0.00  0.00    +0.000 A 
ATOM     13  C   UNL     1      -1.593  11.696  19.614  0.00  0.00    +0.000 C 
ENDBRANCH   1   2
BRANCH   1  17
ATOM     14  C   UNL     1       2.230   7.457  18.980  0.00  0.00    +0.000 A 
ATOM     15  N   UNL     1       1.922   7.417  20.288  0.00  0.00    +0.000 NA
ATOM     16  O   UNL     1       1.303   8.645  20.524  0.00  0.00    +0.000 OA
ATOM     17  C   UNL     1       1.293   9.307  19.332  0.00  0.00    +0.000 A 
ATOM     18  N   UNL     1       1.859   8.632  18.359  0.00  0.00    +0.000 NA
BRANCH  14  24
ATOM     19  C   UNL     1       5.936   5.798  16.037  0.00  0.00    +0.000 C 
ATOM     20  C   UNL     1       4.678   5.543  16.814  0.00  0.00    +0.000 A 
ATOM     21  C   UNL     1       4.088   4.276  16.825  0.00  0.00    +0.000 A 
ATOM     22  C   UNL     1       2.916   4.048  17.545  0.00  0.00    +0.000 A 
ATOM     23  C   UNL     1       2.319   5.093  18.252  0.00  0.00    +0.000 A 
ATOM     24  C   UNL     1       2.884   6.377  18.248  0.00  0.00    +0.000 A 
ATOM     25  C   UNL     1       4.070   6.590  17.529  0.00  0.00    +0.000 A 
ENDBRANCH  14  24
ENDBRANCH   1  17
TORSDOF 3
ENDMDL
MODEL 7
REMARK VINA RESULT:      -7.9      0.745      1.545
REMARK  Name = 
REMARK  5 active torsions:
REMARK  status: ('A' for Active; 'I' for Inactive)
REMARK    1  A    between atoms: C_1  and  C_2
REMARK    2  A    between atoms: C_6  and  C_7
REMARK    3  A    between atoms: C_10  and  C_11
REMARK    4  A    between atoms: C_11  and  N_12
REMARK    5  A    between atoms: N_17  and  C_18
REMARK                            x       y       z     vdW  Elec       q    Type
REMARK                         _______ _______ _______ _____ _____    ______ ____
ROOT
ATOM      1  C   UNL     1       3.116   4.945  18.792  0.00  0.00    +0.000 C 
ENDROOT
BRANCH   1   2
ATOM      2  N   UNL     1       2.344   6.213  18.866  0.00  0.00    +0.000 NA
ATOM      3  C   UNL     1       2.944   7.264  18.038  0.00  0.00    +0.000 C 
ATOM      4  C   UNL     1       1.998   8.449  17.923  0.00  0.00    +0.000 C 
ATOM      5  C   UNL     1       1.572   8.964  19.279  0.00  0.00    +0.000 A 
ATOM      6  N   UNL     1       1.170  10.195  19.349  0.00  0.00    +0.000 NA
ATOM      7  N   UNL     1       0.750  10.662  20.571  0.00  0.00    +0.000 N 
ATOM      8  C   UNL     1       0.324  12.044  20.628  0.00  0.00    +0.000 C 
ATOM      9  C   UNL     1       0.712   9.900  21.728  0.00  0.00    +0.000 A 
ATOM     10  O   UNL     1       0.345  10.303  22.829  0.00  0.00    +0.000 OA
ATOM     11  C   UNL     1       1.167   8.504  21.593  0.00  0.00    +0.000 A 
ATOM     12  C   UNL     1       1.599   8.025  20.422  0.00  0.00    +0.000 A 
ATOM     13  C   UNL     1       2.170   6.654  20.257  0.00  0.00    +0.000 C 
ENDBRANCH   1   2
BRANCH   1  17
ATOM     14  C   UNL     1       5.632   4.752  16.253  0.00  0.00    +0.000 A 
ATOM     15  N   UNL     1       6.423   4.887  17.332  0.00  0.00    +0.000 NA
ATOM     16  O   UNL     1       5.524   5.022  18.391  0.00  0.00    +0.000 OA
ATOM     17  C   UNL     1       4.276   4.950  17.849  0.00  0.00    +0.000 A 
ATOM     18  N   UNL     1       4.284   4.800  16.545  0.00  0.00    +0.000 NA
BRANCH  14  24
ATOM     19  C   UNL     1       8.782   5.923  12.532  0.00  0.00    +0.000 C 
ATOM     20  C   UNL     1       7.636   5.112  13.059  0.00  0.00    +0.000 A 
ATOM     21  C   UNL     1       6.983   4.181  12.246  0.00  0.00    +0.000 A 
ATOM     22  C   UNL     1       5.915   3.435  12.742  0.00  0.00    +0.000 A 
ATOM     23  C   UNL     1       5.485   3.624  14.055  0.00  0.00    +0.000 A 
ATOM     24  C   UNL     1       6.113   4.560  14.889  0.00  0.00    +0.000 A 
ATOM     25  C   UNL     1       7.195   5.296  14.381  0.00  0.00    +0.000 A 
ENDBRANCH  14  24
ENDBRANCH   1  17
TORSDOF 3
ENDMDL
MODEL 8
REMARK VINA RESULT:      -7.9      3.636      6.055
REMARK  Name = 
REMARK  5 active torsions:
REMARK  status: ('A' for Active; 'I' for Inactive)
REMARK    1  A    between atoms: C_1  and  C_2
REMARK    2  A    between atoms: C_6  and  C_7
REMARK    3  A    between atoms: C_10  and  C_11
REMARK    4  A    between atoms: C_11  and  N_12
REMARK    5  A    between atoms: N_17  and  C_18
REMARK                            x       y       z     vdW  Elec       q    Type
REMARK                         _______ _______ _______ _____ _____    ______ ____
ROOT
ATOM      1  C   UNL     1       1.366   9.920  19.997  0.00  0.00    +0.000 C 
ENDROOT
BRANCH   1   2
ATOM      2  N   UNL     1       0.198  10.687  19.489  0.00  0.00    +0.000 NA
ATOM      3  C   UNL     1      -0.796  10.922  20.541  0.00  0.00    +0.000 C 
ATOM      4  C   UNL     1      -1.837  11.923  20.067  0.00  0.00    +0.000 C 
ATOM      5  C   UNL     1      -2.475  11.501  18.763  0.00  0.00    +0.000 A 
ATOM      6  N   UNL     1      -3.649  11.979  18.491  0.00  0.00    +0.000 NA
ATOM      7  N   UNL     1      -4.223  11.625  17.294  0.00  0.00    +0.000 N 
ATOM      8  C   UNL     1      -5.541  12.157  17.021  0.00  0.00    +0.000 C 
ATOM      9  C   UNL     1      -3.621  10.806  16.351  0.00  0.00    +0.000 A 
ATOM     10  O   UNL     1      -4.122  10.475  15.279  0.00  0.00    +0.000 OA
ATOM     11  C   UNL     1      -2.283  10.298  16.702  0.00  0.00    +0.000 A 
ATOM     12  C   UNL     1      -1.705  10.609  17.868  0.00  0.00    +0.000 A 
ATOM     13  C   UNL     1      -0.401  10.035  18.316  0.00  0.00    +0.000 C 
ENDBRANCH   1   2
BRANCH   1  17
ATOM     14  C   UNL     1       2.522   7.039  18.215  0.00  0.00    +0.000 A 
ATOM     15  N   UNL     1       2.998   8.001  17.404  0.00  0.00    +0.000 NA
ATOM     16  O   UNL     1       2.553   9.185  17.992  0.00  0.00    +0.000 OA
ATOM     17  C   UNL     1       1.854   8.824  19.105  0.00  0.00    +0.000 A 
ATOM     18  N   UNL     1       1.792   7.524  19.281  0.00  0.00    +0.000 NA
BRANCH  14  24
ATOM     19  C   UNL     1       1.018   2.284  18.741  0.00  0.00    +0.000 C 
ATOM     20  C   UNL     1       2.033   3.283  18.270  0.00  0.00    +0.000 A 
ATOM     21  C   UNL     1       3.226   2.865  17.673  0.00  0.00    +0.000 A 
ATOM     22  C   UNL     1       4.167   3.800  17.242  0.00  0.00    +0.000 A 
ATOM     23  C   UNL     1       3.925   5.162  17.418  0.00  0.00    +0.000 A 
ATOM     24  C   UNL     1       2.743   5.609  18.026  0.00  0.00    +0.000 A 
ATOM     25  C   UNL     1       1.798   4.658  18.444  0.00  0.00    +0.000 A 
ENDBRANCH  14  24
ENDBRANCH   1  17
TORSDOF 3
ENDMDL
MODEL 9
REMARK VINA RESULT:      -7.9      3.826      8.631
REMARK  Name = 
REMARK  5 active torsions:
REMARK  status: ('A' for Active; 'I' for Inactive)
REMARK    1  A    between atoms: C_1  and  C_2
REMARK    2  A    between atoms: C_6  and  C_7
REMARK    3  A    between atoms: C_10  and  C_11
REMARK    4  A    between atoms: C_11  and  N_12
REMARK    5  A    between atoms: N_17  and  C_18
REMARK                            x       y       z     vdW  Elec       q    Type
REMARK                         _______ _______ _______ _____ _____    ______ ____
ROOT
ATOM      1  C   UNL     1       2.861   8.892  17.867  0.00  0.00    +0.000 C 
ENDROOT
BRANCH   1   2
ATOM      2  N   UNL     1       3.236   7.511  18.269  0.00  0.00    +0.000 NA
ATOM      3  C   UNL     1       4.401   7.025  17.522  0.00  0.00    +0.000 C 
ATOM      4  C   UNL     1       4.918   5.734  18.135  0.00  0.00    +0.000 C 
ATOM      5  C   UNL     1       3.833   4.687  18.245  0.00  0.00    +0.000 A 
ATOM      6  N   UNL     1       4.206   3.446  18.302  0.00  0.00    +0.000 NA
ATOM      7  N   UNL     1       3.228   2.489  18.433  0.00  0.00    +0.000 N 
ATOM      8  C   UNL     1       3.668   1.111  18.476  0.00  0.00    +0.000 C 
ATOM      9  C   UNL     1       1.873   2.765  18.527  0.00  0.00    +0.000 A 
ATOM     10  O   UNL     1       0.986   1.923  18.639  0.00  0.00    +0.000 OA
ATOM     11  C   UNL     1       1.502   4.190  18.469  0.00  0.00    +0.000 A 
ATOM     12  C   UNL     1       2.428   5.144  18.322  0.00  0.00    +0.000 A 
ATOM     13  C   UNL     1       2.096   6.590  18.151  0.00  0.00    +0.000 C 
ENDBRANCH   1   2
BRANCH   1  17
ATOM     14  C   UNL     1      -0.529   9.988  18.214  0.00  0.00    +0.000 A 
ATOM     15  N   UNL     1      -0.148  10.053  19.502  0.00  0.00    +0.000 NA
ATOM     16  O   UNL     1       1.168   9.591  19.485  0.00  0.00    +0.000 OA
ATOM     17  C   UNL     1       1.457   9.296  18.186  0.00  0.00    +0.000 A 
ATOM     18  N   UNL     1       0.450   9.507  17.370  0.00  0.00    +0.000 NA
BRANCH  14  24
ATOM     19  C   UNL     1      -3.927  10.173  14.531  0.00  0.00    +0.000 C 
ATOM     20  C   UNL     1      -3.514  10.493  15.937  0.00  0.00    +0.000 A 
ATOM     21  C   UNL     1      -4.361  11.210  16.787  0.00  0.00    +0.000 A 
ATOM     22  C   UNL     1      -3.967  11.509  18.091  0.00  0.00    +0.000 A 
ATOM     23  C   UNL     1      -2.715  11.099  18.551  0.00  0.00    +0.000 A 
ATOM     24  C   UNL     1      -1.841  10.389  17.715  0.00  0.00    +0.000 A 
ATOM     25  C   UNL     1      -2.254  10.085  16.409  0.00  0.00    +0.000 A 
ENDBRANCH  14  24
ENDBRANCH   1  17
TORSDOF 3
ENDMDL
