MODEL 1
REMARK VINA RESULT:      -9.3      0.000      0.000
REMARK  Name = 
REMARK  11 active torsions:
REMARK  status: ('A' for Active; 'I' for Inactive)
REMARK    1  A    between atoms: C_1  and  O_2
REMARK    2  A    between atoms: O_2  and  C_3
REMARK    3  A    between atoms: C_8  and  C_9
REMARK    4  A    between atoms: C_17  and  O_18
REMARK    5  A    between atoms: O_18  and  C_19
REMARK    6  A    between atoms: C_23  and  C_24
REMARK    7  A    between atoms: C_24  and  C_25
REMARK    8  A    between atoms: C_24  and  C_28
REMARK    9  A    between atoms: C_28  and  C_29
REMARK   10  A    between atoms: C_28  and  C_30
REMARK   11  A    between atoms: C_30  and  O_32
REMARK                            x       y       z     vdW  Elec       q    Type
REMARK                         _______ _______ _______ _____ _____    ______ ____
ROOT
ATOM      1  C   UNL     1       0.141  10.788  21.379  0.00  0.00    +0.000 A 
ATOM      2  C   UNL     1       0.398   9.551  22.025  0.00  0.00    +0.000 A 
ATOM      3  C   UNL     1       1.082   8.502  21.394  0.00  0.00    +0.000 A 
ATOM      4  C   UNL     1       1.486   8.675  20.085  0.00  0.00    +0.000 A 
ATOM      5  C   UNL     1       1.218   9.874  19.419  0.00  0.00    +0.000 A 
ATOM      6  C   UNL     1       0.583  10.931  20.051  0.00  0.00    +0.000 A 
ATOM      7  C   UNL     1       1.715   9.824  18.012  0.00  0.00    +0.000 C 
ATOM      8  C   UNL     1       1.819   8.305  17.818  0.00  0.00    +0.000 C 
ATOM      9  C   UNL     1       2.252   7.730  19.189  0.00  0.00    +0.000 C 
ENDROOT
BRANCH   1  15
ATOM     10  C   UNL     1      -0.935  14.306  22.404  0.00  0.00    +0.000 A 
ATOM     11  C   UNL     1      -1.909  14.037  23.362  0.00  0.00    +0.000 A 
ATOM     12  C   UNL     1      -2.213  12.718  23.685  0.00  0.00    +0.000 A 
ATOM     13  C   UNL     1      -1.542  11.672  23.055  0.00  0.00    +0.000 A 
ATOM     14  F   UNL     1      -1.869  10.425  23.432  0.00  0.00    +0.000 F 
ATOM     15  C   UNL     1      -0.557  11.896  22.076  0.00  0.00    +0.000 A 
ATOM     16  C   UNL     1      -0.275  13.243  21.771  0.00  0.00    +0.000 A 
BRANCH  10  18
ATOM     17  C   UNL     1      -1.057  16.000  20.748  0.00  0.00    +0.000 C 
ATOM     18  O   UNL     1      -0.538  15.547  21.992  0.00  0.00    +0.000 OA
ENDBRANCH  10  18
ENDBRANCH   1  15
BRANCH   9  19
ATOM     19  O   UNL     1       1.862   6.381  19.442  0.00  0.00    +0.000 OA
BRANCH  19  20
ATOM     20  C   UNL     1       2.417   5.401  18.659  0.00  0.00    +0.000 A 
ATOM     21  C   UNL     1       1.757   4.233  18.289  0.00  0.00    +0.000 A 
ATOM     22  C   UNL     1       2.446   3.216  17.641  0.00  0.00    +0.000 A 
ATOM     23  C   UNL     1       3.785   3.387  17.298  0.00  0.00    +0.000 A 
ATOM     24  C   UNL     1       4.458   4.592  17.533  0.00  0.00    +0.000 A 
ATOM     25  C   UNL     1       3.758   5.580  18.264  0.00  0.00    +0.000 A 
BRANCH  24  26
ATOM     26  C   UNL     1       5.861   4.861  16.966  0.00  0.00    +0.000 C 
BRANCH  26  27
ATOM     27  C   UNL     1       5.947   5.243  15.497  0.00  0.00    +0.000 C 
ATOM     28  C   UNL     1       5.563   4.322  14.365  0.00  0.00    +0.000 C 
ATOM     29  C   UNL     1       6.993   4.764  14.521  0.00  0.00    +0.000 C 
ENDBRANCH  26  27
BRANCH  26  30
ATOM     30  C   UNL     1       6.735   5.793  17.871  0.00  0.00    +0.000 C 
ATOM     31  C   UNL     1       7.331   7.049  17.221  0.00  0.00    +0.000 C 
BRANCH  30  32
ATOM     32  C   UNL     1       7.892   5.002  18.471  0.00  0.00    +0.000 C 
ATOM     33  O   UNL     1       8.501   4.110  17.891  0.00  0.00    +0.000 OA
BRANCH  32  34
ATOM     34  O   UNL     1       8.200   5.356  19.735  0.00  0.00    +0.000 OA
ATOM     35  H   UNL     1       8.596   4.652  20.269  0.00  0.00    +0.000 HD
ENDBRANCH  32  34
ENDBRANCH  30  32
ENDBRANCH  26  30
ENDBRANCH  24  26
ENDBRANCH  19  20
ENDBRANCH   9  19
TORSDOF 9
ENDMDL
MODEL 2
REMARK VINA RESULT:      -9.3      3.826     10.764
REMARK  Name = 
REMARK  11 active torsions:
REMARK  status: ('A' for Active; 'I' for Inactive)
REMARK    1  A    between atoms: C_1  and  O_2
REMARK    2  A    between atoms: O_2  and  C_3
REMARK    3  A    between atoms: C_8  and  C_9
REMARK    4  A    between atoms: C_17  and  O_18
REMARK    5  A    between atoms: O_18  and  C_19
REMARK    6  A    between atoms: C_23  and  C_24
REMARK    7  A    between atoms: C_24  and  C_25
REMARK    8  A    between atoms: C_24  and  C_28
REMARK    9  A    between atoms: C_28  and  C_29
REMARK   10  A    between atoms: C_28  and  C_30
REMARK   11  A    between atoms: C_30  and  O_32
REMARK                            x       y       z     vdW  Elec       q    Type
REMARK                         _______ _______ _______ _____ _____    ______ ____
ROOT
ATOM      1  C   UNL     1       2.496   7.152  18.685  0.00  0.00    +0.000 A 
ATOM      2  C   UNL     1       2.451   8.180  17.708  0.00  0.00    +0.000 A 
ATOM      3  C   UNL     1       1.838   9.418  17.949  0.00  0.00    +0.000 A 
ATOM      4  C   UNL     1       1.229   9.623  19.172  0.00  0.00    +0.000 A 
ATOM      5  C   UNL     1       1.236   8.614  20.138  0.00  0.00    +0.000 A 
ATOM      6  C   UNL     1       1.879   7.406  19.923  0.00  0.00    +0.000 A 
ATOM      7  C   UNL     1       0.495   9.044  21.362  0.00  0.00    +0.000 C 
ATOM      8  C   UNL     1      -0.353  10.182  20.775  0.00  0.00    +0.000 C 
ATOM      9  C   UNL     1       0.528  10.855  19.695  0.00  0.00    +0.000 C 
ENDROOT
BRANCH   1  15
ATOM     10  C   UNL     1       5.187   4.446  18.543  0.00  0.00    +0.000 A 
ATOM     11  C   UNL     1       4.492   3.386  17.965  0.00  0.00    +0.000 A 
ATOM     12  C   UNL     1       3.156   3.547  17.613  0.00  0.00    +0.000 A 
ATOM     13  C   UNL     1       2.517   4.765  17.832  0.00  0.00    +0.000 A 
ATOM     14  F   UNL     1       1.235   4.857  17.446  0.00  0.00    +0.000 F 
ATOM     15  C   UNL     1       3.177   5.860  18.420  0.00  0.00    +0.000 A 
ATOM     16  C   UNL     1       4.528   5.663  18.767  0.00  0.00    +0.000 A 
BRANCH  10  18
ATOM     17  C   UNL     1       7.325   5.464  18.426  0.00  0.00    +0.000 C 
ATOM     18  O   UNL     1       6.496   4.427  18.935  0.00  0.00    +0.000 OA
ENDBRANCH  10  18
ENDBRANCH   1  15
BRANCH   9  19
ATOM     19  O   UNL     1      -0.181  11.508  18.642  0.00  0.00    +0.000 OA
BRANCH  19  20
ATOM     20  C   UNL     1      -1.459  11.086  18.379  0.00  0.00    +0.000 A 
ATOM     21  C   UNL     1      -1.766   9.906  17.708  0.00  0.00    +0.000 A 
ATOM     22  C   UNL     1      -3.076   9.638  17.330  0.00  0.00    +0.000 A 
ATOM     23  C   UNL     1      -4.098  10.517  17.680  0.00  0.00    +0.000 A 
ATOM     24  C   UNL     1      -3.858  11.650  18.466  0.00  0.00    +0.000 A 
ATOM     25  C   UNL     1      -2.508  11.942  18.768  0.00  0.00    +0.000 A 
BRANCH  24  26
ATOM     26  C   UNL     1      -5.007  12.499  19.034  0.00  0.00    +0.000 C 
BRANCH  26  27
ATOM     27  C   UNL     1      -6.388  12.271  18.444  0.00  0.00    +0.000 C 
ATOM     28  C   UNL     1      -6.861  12.885  17.149  0.00  0.00    +0.000 C 
ATOM     29  C   UNL     1      -7.524  13.265  18.446  0.00  0.00    +0.000 C 
ENDBRANCH  26  27
BRANCH  26  30
ATOM     30  C   UNL     1      -5.033  12.551  20.599  0.00  0.00    +0.000 C 
ATOM     31  C   UNL     1      -6.351  12.184  21.293  0.00  0.00    +0.000 C 
BRANCH  30  32
ATOM     32  C   UNL     1      -4.638  13.941  21.083  0.00  0.00    +0.000 C 
ATOM     33  O   UNL     1      -4.349  14.220  22.241  0.00  0.00    +0.000 OA
BRANCH  32  34
ATOM     34  O   UNL     1      -4.643  14.880  20.114  0.00  0.00    +0.000 OA
ATOM     35  H   UNL     1      -4.446  15.779  20.419  0.00  0.00    +0.000 HD
ENDBRANCH  32  34
ENDBRANCH  30  32
ENDBRANCH  26  30
ENDBRANCH  24  26
ENDBRANCH  19  20
ENDBRANCH   9  19
TORSDOF 9
ENDMDL
MODEL 3
REMARK VINA RESULT:      -9.1      3.767     10.819
REMARK  Name = 
REMARK  11 active torsions:
REMARK  status: ('A' for Active; 'I' for Inactive)
REMARK    1  A    between atoms: C_1  and  O_2
REMARK    2  A    between atoms: O_2  and  C_3
REMARK    3  A    between atoms: C_8  and  C_9
REMARK    4  A    between atoms: C_17  and  O_18
REMARK    5  A    between atoms: O_18  and  C_19
REMARK    6  A    between atoms: C_23  and  C_24
REMARK    7  A    between atoms: C_24  and  C_25
REMARK    8  A    between atoms: C_24  and  C_28
REMARK    9  A    between atoms: C_28  and  C_29
REMARK   10  A    between atoms: C_28  and  C_30
REMARK   11  A    between atoms: C_30  and  O_32
REMARK                            x       y       z     vdW  Elec       q    Type
REMARK                         _______ _______ _______ _____ _____    ______ ____
ROOT
ATOM      1  C   UNL     1       2.473   7.281  18.763  0.00  0.00    +0.000 A 
ATOM      2  C   UNL     1       2.435   8.296  17.772  0.00  0.00    +0.000 A 
ATOM      3  C   UNL     1       1.816   9.535  17.989  0.00  0.00    +0.000 A 
ATOM      4  C   UNL     1       1.193   9.755  19.203  0.00  0.00    +0.000 A 
ATOM      5  C   UNL     1       1.193   8.758  20.183  0.00  0.00    +0.000 A 
ATOM      6  C   UNL     1       1.842   7.549  19.991  0.00  0.00    +0.000 A 
ATOM      7  C   UNL     1       0.437   9.202  21.392  0.00  0.00    +0.000 C 
ATOM      8  C   UNL     1      -0.409  10.329  20.781  0.00  0.00    +0.000 C 
ATOM      9  C   UNL     1       0.482  10.991  19.701  0.00  0.00    +0.000 C 
ENDROOT
BRANCH   1  15
ATOM     10  C   UNL     1       5.155   4.562  18.743  0.00  0.00    +0.000 A 
ATOM     11  C   UNL     1       4.488   3.512  18.117  0.00  0.00    +0.000 A 
ATOM     12  C   UNL     1       3.174   3.683  17.693  0.00  0.00    +0.000 A 
ATOM     13  C   UNL     1       2.530   4.903  17.889  0.00  0.00    +0.000 A 
ATOM     14  F   UNL     1       1.271   5.006  17.434  0.00  0.00    +0.000 F 
ATOM     15  C   UNL     1       3.161   5.989  18.524  0.00  0.00    +0.000 A 
ATOM     16  C   UNL     1       4.490   5.781  18.942  0.00  0.00    +0.000 A 
BRANCH  10  18
ATOM     17  C   UNL     1       7.398   5.283  18.470  0.00  0.00    +0.000 C 
ATOM     18  O   UNL     1       6.440   4.533  19.207  0.00  0.00    +0.000 OA
ENDBRANCH  10  18
ENDBRANCH   1  15
BRANCH   9  19
ATOM     19  O   UNL     1      -0.218  11.627  18.632  0.00  0.00    +0.000 OA
BRANCH  19  20
ATOM     20  C   UNL     1      -1.477  11.171  18.336  0.00  0.00    +0.000 A 
ATOM     21  C   UNL     1      -1.739  10.124  17.458  0.00  0.00    +0.000 A 
ATOM     22  C   UNL     1      -3.045   9.839  17.081  0.00  0.00    +0.000 A 
ATOM     23  C   UNL     1      -4.104  10.556  17.631  0.00  0.00    +0.000 A 
ATOM     24  C   UNL     1      -3.901  11.532  18.615  0.00  0.00    +0.000 A 
ATOM     25  C   UNL     1      -2.559  11.857  18.921  0.00  0.00    +0.000 A 
BRANCH  24  26
ATOM     26  C   UNL     1      -5.073  12.170  19.377  0.00  0.00    +0.000 C 
BRANCH  26  27
ATOM     27  C   UNL     1      -6.036  11.223  20.075  0.00  0.00    +0.000 C 
ATOM     28  C   UNL     1      -7.133  10.467  19.367  0.00  0.00    +0.000 C 
ATOM     29  C   UNL     1      -7.482  11.512  20.393  0.00  0.00    +0.000 C 
ENDBRANCH  26  27
BRANCH  26  30
ATOM     30  C   UNL     1      -4.648  13.364  20.296  0.00  0.00    +0.000 C 
ATOM     31  C   UNL     1      -4.497  13.079  21.796  0.00  0.00    +0.000 C 
BRANCH  30  32
ATOM     32  C   UNL     1      -5.638  14.514  20.151  0.00  0.00    +0.000 C 
ATOM     33  O   UNL     1      -6.281  14.755  19.135  0.00  0.00    +0.000 OA
BRANCH  32  34
ATOM     34  O   UNL     1      -5.751  15.282  21.253  0.00  0.00    +0.000 OA
ATOM     35  H   UNL     1      -6.662  15.456  21.535  0.00  0.00    +0.000 HD
ENDBRANCH  32  34
ENDBRANCH  30  32
ENDBRANCH  26  30
ENDBRANCH  24  26
ENDBRANCH  19  20
ENDBRANCH   9  19
TORSDOF 9
ENDMDL
MODEL 4
REMARK VINA RESULT:      -8.9      3.700     10.985
REMARK  Name = 
REMARK  11 active torsions:
REMARK  status: ('A' for Active; 'I' for Inactive)
REMARK    1  A    between atoms: C_1  and  O_2
REMARK    2  A    between atoms: O_2  and  C_3
REMARK    3  A    between atoms: C_8  and  C_9
REMARK    4  A    between atoms: C_17  and  O_18
REMARK    5  A    between atoms: O_18  and  C_19
REMARK    6  A    between atoms: C_23  and  C_24
REMARK    7  A    between atoms: C_24  and  C_25
REMARK    8  A    between atoms: C_24  and  C_28
REMARK    9  A    between atoms: C_28  and  C_29
REMARK   10  A    between atoms: C_28  and  C_30
REMARK   11  A    between atoms: C_30  and  O_32
REMARK                            x       y       z     vdW  Elec       q    Type
REMARK                         _______ _______ _______ _____ _____    ______ ____
ROOT
ATOM      1  C   UNL     1       2.465   7.280  18.440  0.00  0.00    +0.000 A 
ATOM      2  C   UNL     1       2.408   8.389  17.558  0.00  0.00    +0.000 A 
ATOM      3  C   UNL     1       1.848   9.619  17.933  0.00  0.00    +0.000 A 
ATOM      4  C   UNL     1       1.305   9.735  19.198  0.00  0.00    +0.000 A 
ATOM      5  C   UNL     1       1.324   8.646  20.073  0.00  0.00    +0.000 A 
ATOM      6  C   UNL     1       1.916   7.443  19.725  0.00  0.00    +0.000 A 
ATOM      7  C   UNL     1       0.656   8.989  21.364  0.00  0.00    +0.000 C 
ATOM      8  C   UNL     1      -0.181  10.197  20.920  0.00  0.00    +0.000 C 
ATOM      9  C   UNL     1       0.670  10.936  19.858  0.00  0.00    +0.000 C 
ENDROOT
BRANCH   1  15
ATOM     10  C   UNL     1       2.902   3.589  17.562  0.00  0.00    +0.000 A 
ATOM     11  C   UNL     1       4.249   3.538  17.215  0.00  0.00    +0.000 A 
ATOM     12  C   UNL     1       5.021   4.694  17.272  0.00  0.00    +0.000 A 
ATOM     13  C   UNL     1       4.449   5.897  17.680  0.00  0.00    +0.000 A 
ATOM     14  F   UNL     1       5.257   6.967  17.735  0.00  0.00    +0.000 F 
ATOM     15  C   UNL     1       3.090   5.997  18.033  0.00  0.00    +0.000 A 
ATOM     16  C   UNL     1       2.337   4.809  17.962  0.00  0.00    +0.000 A 
BRANCH  10  18
ATOM     17  C   UNL     1       1.533   2.113  18.815  0.00  0.00    +0.000 C 
ATOM     18  O   UNL     1       2.031   2.535  17.553  0.00  0.00    +0.000 OA
ENDBRANCH  10  18
ENDBRANCH   1  15
BRANCH   9  19
ATOM     19  O   UNL     1      -0.066  11.698  18.902  0.00  0.00    +0.000 OA
BRANCH  19  20
ATOM     20  C   UNL     1      -1.357  11.317  18.642  0.00  0.00    +0.000 A 
ATOM     21  C   UNL     1      -1.704  10.259  17.808  0.00  0.00    +0.000 A 
ATOM     22  C   UNL     1      -3.033  10.048  17.462  0.00  0.00    +0.000 A 
ATOM     23  C   UNL     1      -4.032  10.853  18.003  0.00  0.00    +0.000 A 
ATOM     24  C   UNL     1      -3.747  11.846  18.948  0.00  0.00    +0.000 A 
ATOM     25  C   UNL     1      -2.381  12.093  19.220  0.00  0.00    +0.000 A 
BRANCH  24  26
ATOM     26  C   UNL     1      -4.860  12.587  19.707  0.00  0.00    +0.000 C 
BRANCH  26  27
ATOM     27  C   UNL     1      -6.087  11.776  20.091  0.00  0.00    +0.000 C 
ATOM     28  C   UNL     1      -7.262  11.544  19.174  0.00  0.00    +0.000 C 
ATOM     29  C   UNL     1      -7.443  12.339  20.439  0.00  0.00    +0.000 C 
ENDBRANCH  26  27
BRANCH  26  30
ATOM     30  C   UNL     1      -4.335  13.463  20.893  0.00  0.00    +0.000 C 
ATOM     31  C   UNL     1      -4.384  12.848  22.298  0.00  0.00    +0.000 C 
BRANCH  30  32
ATOM     32  C   UNL     1      -5.100  14.780  20.948  0.00  0.00    +0.000 C 
ATOM     33  O   UNL     1      -5.462  15.417  19.965  0.00  0.00    +0.000 OA
BRANCH  32  34
ATOM     34  O   UNL     1      -5.348  15.217  22.200  0.00  0.00    +0.000 OA
ATOM     35  H   UNL     1      -6.075  15.854  22.271  0.00  0.00    +0.000 HD
ENDBRANCH  32  34
ENDBRANCH  30  32
ENDBRANCH  26  30
ENDBRANCH  24  26
ENDBRANCH  19  20
ENDBRANCH   9  19
TORSDOF 9
ENDMDL
MODEL 5
REMARK VINA RESULT:      -8.9      4.061     10.725
REMARK  Name = 
REMARK  11 active torsions:
REMARK  status: ('A' for Active; 'I' for Inactive)
REMARK    1  A    between atoms: C_1  and  O_2
REMARK    2  A    between atoms: O_2  and  C_3
REMARK    3  A    between atoms: C_8  and  C_9
REMARK    4  A    between atoms: C_17  and  O_18
REMARK    5  A    between atoms: O_18  and  C_19
REMARK    6  A    between atoms: C_23  and  C_24
REMARK    7  A    between atoms: C_24  and  C_25
REMARK    8  A    between atoms: C_24  and  C_28
REMARK    9  A    between atoms: C_28  and  C_29
REMARK   10  A    between atoms: C_28  and  C_30
REMARK   11  A    between atoms: C_30  and  O_32
REMARK                            x       y       z     vdW  Elec       q    Type
REMARK                         _______ _______ _______ _____ _____    ______ ____
ROOT
ATOM      1  C   UNL     1       2.304   7.322  19.173  0.00  0.00    +0.000 A 
ATOM      2  C   UNL     1       2.246   8.187  18.050  0.00  0.00    +0.000 A 
ATOM      3  C   UNL     1       1.625   9.443  18.100  0.00  0.00    +0.000 A 
ATOM      4  C   UNL     1       1.020   9.830  19.279  0.00  0.00    +0.000 A 
ATOM      5  C   UNL     1       1.039   8.982  20.390  0.00  0.00    +0.000 A 
ATOM      6  C   UNL     1       1.690   7.760  20.361  0.00  0.00    +0.000 A 
ATOM      7  C   UNL     1       0.300   9.591  21.536  0.00  0.00    +0.000 C 
ATOM      8  C   UNL     1      -0.559  10.618  20.786  0.00  0.00    +0.000 C 
ATOM      9  C   UNL     1       0.312  11.123  19.610  0.00  0.00    +0.000 C 
ENDROOT
BRANCH   1  15
ATOM     10  C   UNL     1       3.085   3.619  19.682  0.00  0.00    +0.000 A 
ATOM     11  C   UNL     1       4.269   3.477  18.961  0.00  0.00    +0.000 A 
ATOM     12  C   UNL     1       4.821   4.581  18.317  0.00  0.00    +0.000 A 
ATOM     13  C   UNL     1       4.194   5.822  18.398  0.00  0.00    +0.000 A 
ATOM     14  F   UNL     1       4.794   6.848  17.773  0.00  0.00    +0.000 F 
ATOM     15  C   UNL     1       2.993   6.010  19.107  0.00  0.00    +0.000 A 
ATOM     16  C   UNL     1       2.461   4.873  19.746  0.00  0.00    +0.000 A 
BRANCH  10  18
ATOM     17  C   UNL     1       1.750   3.009  21.545  0.00  0.00    +0.000 C 
ATOM     18  O   UNL     1       2.436   2.625  20.360  0.00  0.00    +0.000 OA
ENDBRANCH  10  18
ENDBRANCH   1  15
BRANCH   9  19
ATOM     19  O   UNL     1      -0.407  11.600  18.473  0.00  0.00    +0.000 OA
BRANCH  19  20
ATOM     20  C   UNL     1      -1.686  11.142  18.291  0.00  0.00    +0.000 A 
ATOM     21  C   UNL     1      -2.002   9.953  17.642  0.00  0.00    +0.000 A 
ATOM     22  C   UNL     1      -3.325   9.648  17.347  0.00  0.00    +0.000 A 
ATOM     23  C   UNL     1      -4.348  10.498  17.760  0.00  0.00    +0.000 A 
ATOM     24  C   UNL     1      -4.091  11.640  18.529  0.00  0.00    +0.000 A 
ATOM     25  C   UNL     1      -2.732  11.970  18.745  0.00  0.00    +0.000 A 
BRANCH  24  26
ATOM     26  C   UNL     1      -5.224  12.459  19.168  0.00  0.00    +0.000 C 
BRANCH  26  27
ATOM     27  C   UNL     1      -6.452  12.719  18.311  0.00  0.00    +0.000 C 
ATOM     28  C   UNL     1      -6.407  13.383  16.957  0.00  0.00    +0.000 C 
ATOM     29  C   UNL     1      -7.114  14.058  18.102  0.00  0.00    +0.000 C 
ENDBRANCH  26  27
BRANCH  26  30
ATOM     30  C   UNL     1      -5.600  11.988  20.613  0.00  0.00    +0.000 C 
ATOM     31  C   UNL     1      -7.087  11.753  20.912  0.00  0.00    +0.000 C 
BRANCH  30  32
ATOM     32  C   UNL     1      -5.084  12.988  21.640  0.00  0.00    +0.000 C 
ATOM     33  O   UNL     1      -5.205  14.205  21.549  0.00  0.00    +0.000 OA
BRANCH  32  34
ATOM     34  O   UNL     1      -4.451  12.421  22.687  0.00  0.00    +0.000 OA
ATOM     35  H   UNL     1      -3.616  11.980  22.467  0.00  0.00    +0.000 HD
ENDBRANCH  32  34
ENDBRANCH  30  32
ENDBRANCH  26  30
ENDBRANCH  24  26
ENDBRANCH  19  20
ENDBRANCH   9  19
TORSDOF 9
ENDMDL
MODEL 6
REMARK VINA RESULT:      -8.8      3.611     10.627
REMARK  Name = 
REMARK  11 active torsions:
REMARK  status: ('A' for Active; 'I' for Inactive)
REMARK    1  A    between atoms: C_1  and  O_2
REMARK    2  A    between atoms: O_2  and  C_3
REMARK    3  A    between atoms: C_8  and  C_9
REMARK    4  A    between atoms: C_17  and  O_18
REMARK    5  A    between atoms: O_18  and  C_19
REMARK    6  A    between atoms: C_23  and  C_24
REMARK    7  A    between atoms: C_24  and  C_25
REMARK    8  A    between atoms: C_24  and  C_28
REMARK    9  A    between atoms: C_28  and  C_29
REMARK   10  A    between atoms: C_28  and  C_30
REMARK   11  A    between atoms: C_30  and  O_32
REMARK                            x       y       z     vdW  Elec       q    Type
REMARK                         _______ _______ _______ _____ _____    ______ ____
ROOT
ATOM      1  C   UNL     1       2.214   7.048  19.610  0.00  0.00    +0.000 A 
ATOM      2  C   UNL     1       2.286   7.842  18.436  0.00  0.00    +0.000 A 
ATOM      3  C   UNL     1       1.772   9.146  18.380  0.00  0.00    +0.000 A 
ATOM      4  C   UNL     1       1.145   9.654  19.500  0.00  0.00    +0.000 A 
ATOM      5  C   UNL     1       1.037   8.878  20.658  0.00  0.00    +0.000 A 
ATOM      6  C   UNL     1       1.582   7.607  20.735  0.00  0.00    +0.000 A 
ATOM      7  C   UNL     1       0.296   9.615  21.725  0.00  0.00    +0.000 C 
ATOM      8  C   UNL     1      -0.434  10.661  20.870  0.00  0.00    +0.000 C 
ATOM      9  C   UNL     1       0.534  11.019  19.716  0.00  0.00    +0.000 C 
ENDROOT
BRANCH   1  15
ATOM     10  C   UNL     1       4.710   4.167  19.363  0.00  0.00    +0.000 A 
ATOM     11  C   UNL     1       3.938   3.087  19.782  0.00  0.00    +0.000 A 
ATOM     12  C   UNL     1       2.607   3.286  20.136  0.00  0.00    +0.000 A 
ATOM     13  C   UNL     1       2.048   4.560  20.067  0.00  0.00    +0.000 A 
ATOM     14  F   UNL     1       0.753   4.675  20.401  0.00  0.00    +0.000 F 
ATOM     15  C   UNL     1       2.793   5.682  19.658  0.00  0.00    +0.000 A 
ATOM     16  C   UNL     1       4.137   5.446  19.308  0.00  0.00    +0.000 A 
BRANCH  10  18
ATOM     17  C   UNL     1       6.343   4.680  17.722  0.00  0.00    +0.000 C 
ATOM     18  O   UNL     1       6.023   4.116  18.987  0.00  0.00    +0.000 OA
ENDBRANCH  10  18
ENDBRANCH   1  15
BRANCH   9  19
ATOM     19  O   UNL     1      -0.085  11.482  18.516  0.00  0.00    +0.000 OA
BRANCH  19  20
ATOM     20  C   UNL     1      -1.384  11.107  18.284  0.00  0.00    +0.000 A 
ATOM     21  C   UNL     1      -1.754  10.063  17.443  0.00  0.00    +0.000 A 
ATOM     22  C   UNL     1      -3.093   9.861  17.128  0.00  0.00    +0.000 A 
ATOM     23  C   UNL     1      -4.076  10.660  17.707  0.00  0.00    +0.000 A 
ATOM     24  C   UNL     1      -3.763  11.638  18.659  0.00  0.00    +0.000 A 
ATOM     25  C   UNL     1      -2.390  11.877  18.900  0.00  0.00    +0.000 A 
BRANCH  24  26
ATOM     26  C   UNL     1      -4.855  12.369  19.457  0.00  0.00    +0.000 C 
BRANCH  26  27
ATOM     27  C   UNL     1      -6.030  11.535  19.939  0.00  0.00    +0.000 C 
ATOM     28  C   UNL     1      -7.142  11.051  19.041  0.00  0.00    +0.000 C 
ATOM     29  C   UNL     1      -7.440  12.031  20.143  0.00  0.00    +0.000 C 
ENDBRANCH  26  27
BRANCH  26  30
ATOM     30  C   UNL     1      -4.291  13.301  20.582  0.00  0.00    +0.000 C 
ATOM     31  C   UNL     1      -4.427  12.817  22.032  0.00  0.00    +0.000 C 
BRANCH  30  32
ATOM     32  C   UNL     1      -4.946  14.675  20.499  0.00  0.00    +0.000 C 
ATOM     33  O   UNL     1      -5.788  14.997  19.668  0.00  0.00    +0.000 OA
BRANCH  32  34
ATOM     34  O   UNL     1      -4.510  15.547  21.431  0.00  0.00    +0.000 OA
ATOM     35  H   UNL     1      -5.148  16.234  21.675  0.00  0.00    +0.000 HD
ENDBRANCH  32  34
ENDBRANCH  30  32
ENDBRANCH  26  30
ENDBRANCH  24  26
ENDBRANCH  19  20
ENDBRANCH   9  19
TORSDOF 9
ENDMDL
MODEL 7
REMARK VINA RESULT:      -8.8      1.253      1.422
REMARK  Name = 
REMARK  11 active torsions:
REMARK  status: ('A' for Active; 'I' for Inactive)
REMARK    1  A    between atoms: C_1  and  O_2
REMARK    2  A    between atoms: O_2  and  C_3
REMARK    3  A    between atoms: C_8  and  C_9
REMARK    4  A    between atoms: C_17  and  O_18
REMARK    5  A    between atoms: O_18  and  C_19
REMARK    6  A    between atoms: C_23  and  C_24
REMARK    7  A    between atoms: C_24  and  C_25
REMARK    8  A    between atoms: C_24  and  C_28
REMARK    9  A    between atoms: C_28  and  C_29
REMARK   10  A    between atoms: C_28  and  C_30
REMARK   11  A    between atoms: C_30  and  O_32
REMARK                            x       y       z     vdW  Elec       q    Type
REMARK                         _______ _______ _______ _____ _____    ______ ____
ROOT
ATOM      1  C   UNL     1      -0.408  10.872  20.837  0.00  0.00    +0.000 A 
ATOM      2  C   UNL     1      -0.243   9.671  21.575  0.00  0.00    +0.000 A 
ATOM      3  C   UNL     1       0.602   8.637  21.148  0.00  0.00    +0.000 A 
ATOM      4  C   UNL     1       1.269   8.787  19.947  0.00  0.00    +0.000 A 
ATOM      5  C   UNL     1       1.098   9.949  19.190  0.00  0.00    +0.000 A 
ATOM      6  C   UNL     1       0.300  10.993  19.628  0.00  0.00    +0.000 A 
ATOM      7  C   UNL     1       1.886   9.878  17.923  0.00  0.00    +0.000 C 
ATOM      8  C   UNL     1       2.091   8.360  17.820  0.00  0.00    +0.000 C 
ATOM      9  C   UNL     1       2.246   7.852  19.274  0.00  0.00    +0.000 C 
ENDROOT
BRANCH   1  15
ATOM     10  C   UNL     1      -1.807  13.695  22.996  0.00  0.00    +0.000 A 
ATOM     11  C   UNL     1      -2.917  14.094  22.256  0.00  0.00    +0.000 A 
ATOM     12  C   UNL     1      -3.220  13.446  21.063  0.00  0.00    +0.000 A 
ATOM     13  C   UNL     1      -2.419  12.398  20.614  0.00  0.00    +0.000 A 
ATOM     14  F   UNL     1      -2.784  11.802  19.467  0.00  0.00    +0.000 F 
ATOM     15  C   UNL     1      -1.283  11.967  21.324  0.00  0.00    +0.000 A 
ATOM     16  C   UNL     1      -1.004  12.645  22.526  0.00  0.00    +0.000 A 
BRANCH  10  18
ATOM     17  C   UNL     1      -0.722  15.490  24.102  0.00  0.00    +0.000 C 
ATOM     18  O   UNL     1      -1.394  14.240  24.180  0.00  0.00    +0.000 OA
ENDBRANCH  10  18
ENDBRANCH   1  15
BRANCH   9  19
ATOM     19  O   UNL     1       1.867   6.494  19.495  0.00  0.00    +0.000 OA
BRANCH  19  20
ATOM     20  C   UNL     1       2.438   5.536  18.697  0.00  0.00    +0.000 A 
ATOM     21  C   UNL     1       1.748   4.450  18.170  0.00  0.00    +0.000 A 
ATOM     22  C   UNL     1       2.436   3.435  17.517  0.00  0.00    +0.000 A 
ATOM     23  C   UNL     1       3.812   3.532  17.327  0.00  0.00    +0.000 A 
ATOM     24  C   UNL     1       4.531   4.666  17.725  0.00  0.00    +0.000 A 
ATOM     25  C   UNL     1       3.822   5.646  18.457  0.00  0.00    +0.000 A 
BRANCH  24  26
ATOM     26  C   UNL     1       6.001   4.873  17.326  0.00  0.00    +0.000 C 
BRANCH  26  27
ATOM     27  C   UNL     1       6.293   5.062  15.847  0.00  0.00    +0.000 C 
ATOM     28  C   UNL     1       5.395   5.824  14.904  0.00  0.00    +0.000 C 
ATOM     29  C   UNL     1       5.603   4.346  14.713  0.00  0.00    +0.000 C 
ENDBRANCH  26  27
BRANCH  26  30
ATOM     30  C   UNL     1       6.750   5.922  18.215  0.00  0.00    +0.000 C 
ATOM     31  C   UNL     1       7.445   7.087  17.496  0.00  0.00    +0.000 C 
BRANCH  30  32
ATOM     32  C   UNL     1       7.802   5.226  19.071  0.00  0.00    +0.000 C 
ATOM     33  O   UNL     1       8.583   4.376  18.661  0.00  0.00    +0.000 OA
BRANCH  32  34
ATOM     34  O   UNL     1       7.803   5.617  20.362  0.00  0.00    +0.000 OA
ATOM     35  H   UNL     1       8.619   6.050  20.655  0.00  0.00    +0.000 HD
ENDBRANCH  32  34
ENDBRANCH  30  32
ENDBRANCH  26  30
ENDBRANCH  24  26
ENDBRANCH  19  20
ENDBRANCH   9  19
TORSDOF 9
ENDMDL
MODEL 8
REMARK VINA RESULT:      -8.7      3.955     10.977
REMARK  Name = 
REMARK  11 active torsions:
REMARK  status: ('A' for Active; 'I' for Inactive)
REMARK    1  A    between atoms: C_1  and  O_2
REMARK    2  A    between atoms: O_2  and  C_3
REMARK    3  A    between atoms: C_8  and  C_9
REMARK    4  A    between atoms: C_17  and  O_18
REMARK    5  A    between atoms: O_18  and  C_19
REMARK    6  A    between atoms: C_23  and  C_24
REMARK    7  A    between atoms: C_24  and  C_25
REMARK    8  A    between atoms: C_24  and  C_28
REMARK    9  A    between atoms: C_28  and  C_29
REMARK   10  A    between atoms: C_28  and  C_30
REMARK   11  A    between atoms: C_30  and  O_32
REMARK                            x       y       z     vdW  Elec       q    Type
REMARK                         _______ _______ _______ _____ _____    ______ ____
ROOT
ATOM      1  C   UNL     1       2.517   7.044  18.568  0.00  0.00    +0.000 A 
ATOM      2  C   UNL     1       2.468   8.058  17.576  0.00  0.00    +0.000 A 
ATOM      3  C   UNL     1       1.950   9.335  17.833  0.00  0.00    +0.000 A 
ATOM      4  C   UNL     1       1.441   9.597  19.090  0.00  0.00    +0.000 A 
ATOM      5  C   UNL     1       1.453   8.604  20.073  0.00  0.00    +0.000 A 
ATOM      6  C   UNL     1       2.004   7.355  19.840  0.00  0.00    +0.000 A 
ATOM      7  C   UNL     1       0.825   9.099  21.335  0.00  0.00    +0.000 C 
ATOM      8  C   UNL     1       0.010  10.278  20.785  0.00  0.00    +0.000 C 
ATOM      9  C   UNL     1       0.854  10.879  19.634  0.00  0.00    +0.000 C 
ENDROOT
BRANCH   1  15
ATOM     10  C   UNL     1       2.830   3.273  18.052  0.00  0.00    +0.000 A 
ATOM     11  C   UNL     1       4.172   3.146  17.701  0.00  0.00    +0.000 A 
ATOM     12  C   UNL     1       4.980   4.277  17.639  0.00  0.00    +0.000 A 
ATOM     13  C   UNL     1       4.449   5.531  17.933  0.00  0.00    +0.000 A 
ATOM     14  F   UNL     1       5.291   6.576  17.877  0.00  0.00    +0.000 F 
ATOM     15  C   UNL     1       3.098   5.709  18.283  0.00  0.00    +0.000 A 
ATOM     16  C   UNL     1       2.308   4.544  18.335  0.00  0.00    +0.000 A 
BRANCH  10  18
ATOM     17  C   UNL     1       0.748   2.519  18.898  0.00  0.00    +0.000 C 
ATOM     18  O   UNL     1       1.928   2.252  18.151  0.00  0.00    +0.000 OA
ENDBRANCH  10  18
ENDBRANCH   1  15
BRANCH   9  19
ATOM     19  O   UNL     1       0.116  11.558  18.619  0.00  0.00    +0.000 OA
BRANCH  19  20
ATOM     20  C   UNL     1      -1.192  11.190  18.430  0.00  0.00    +0.000 A 
ATOM     21  C   UNL     1      -1.606  10.237  17.505  0.00  0.00    +0.000 A 
ATOM     22  C   UNL     1      -2.959  10.048  17.255  0.00  0.00    +0.000 A 
ATOM     23  C   UNL     1      -3.911  10.764  17.977  0.00  0.00    +0.000 A 
ATOM     24  C   UNL     1      -3.547  11.640  19.008  0.00  0.00    +0.000 A 
ATOM     25  C   UNL     1      -2.164  11.873  19.187  0.00  0.00    +0.000 A 
BRANCH  24  26
ATOM     26  C   UNL     1      -4.592  12.264  19.947  0.00  0.00    +0.000 C 
BRANCH  26  27
ATOM     27  C   UNL     1      -4.225  13.583  20.604  0.00  0.00    +0.000 C 
ATOM     28  C   UNL     1      -3.520  13.694  21.933  0.00  0.00    +0.000 C 
ATOM     29  C   UNL     1      -4.927  14.206  21.785  0.00  0.00    +0.000 C 
ENDBRANCH  26  27
BRANCH  26  30
ATOM     30  C   UNL     1      -6.040  12.282  19.350  0.00  0.00    +0.000 C 
ATOM     31  C   UNL     1      -6.525  13.595  18.721  0.00  0.00    +0.000 C 
BRANCH  30  32
ATOM     32  C   UNL     1      -7.051  11.892  20.421  0.00  0.00    +0.000 C 
ATOM     33  O   UNL     1      -7.117  10.787  20.948  0.00  0.00    +0.000 OA
BRANCH  32  34
ATOM     34  O   UNL     1      -7.908  12.880  20.751  0.00  0.00    +0.000 OA
ATOM     35  H   UNL     1      -8.744  12.873  20.261  0.00  0.00    +0.000 HD
ENDBRANCH  32  34
ENDBRANCH  30  32
ENDBRANCH  26  30
ENDBRANCH  24  26
ENDBRANCH  19  20
ENDBRANCH   9  19
TORSDOF 9
ENDMDL
MODEL 9
REMARK VINA RESULT:      -8.7      3.190     10.013
REMARK  Name = 
REMARK  11 active torsions:
REMARK  status: ('A' for Active; 'I' for Inactive)
REMARK    1  A    between atoms: C_1  and  O_2
REMARK    2  A    between atoms: O_2  and  C_3
REMARK    3  A    between atoms: C_8  and  C_9
REMARK    4  A    between atoms: C_17  and  O_18
REMARK    5  A    between atoms: O_18  and  C_19
REMARK    6  A    between atoms: C_23  and  C_24
REMARK    7  A    between atoms: C_24  and  C_25
REMARK    8  A    between atoms: C_24  and  C_28
REMARK    9  A    between atoms: C_28  and  C_29
REMARK   10  A    between atoms: C_28  and  C_30
REMARK   11  A    between atoms: C_30  and  O_32
REMARK                            x       y       z     vdW  Elec       q    Type
REMARK                         _______ _______ _______ _____ _____    ______ ____
ROOT
ATOM      1  C   UNL     1       2.431   7.049  18.856  0.00  0.00    +0.000 A 
ATOM      2  C   UNL     1       2.192   8.133  17.972  0.00  0.00    +0.000 A 
ATOM      3  C   UNL     1       1.580   9.323  18.391  0.00  0.00    +0.000 A 
ATOM      4  C   UNL     1       1.167   9.422  19.706  0.00  0.00    +0.000 A 
ATOM      5  C   UNL     1       1.366   8.355  20.586  0.00  0.00    +0.000 A 
ATOM      6  C   UNL     1       2.010   7.195  20.190  0.00  0.00    +0.000 A 
ATOM      7  C   UNL     1       0.814   8.671  21.938  0.00  0.00    +0.000 C 
ATOM      8  C   UNL     1      -0.159   9.802  21.572  0.00  0.00    +0.000 C 
ATOM      9  C   UNL     1       0.513  10.583  20.417  0.00  0.00    +0.000 C 
ENDROOT
BRANCH   1  15
ATOM     10  C   UNL     1       5.133   4.419  18.249  0.00  0.00    +0.000 A 
ATOM     11  C   UNL     1       4.420   3.432  17.573  0.00  0.00    +0.000 A 
ATOM     12  C   UNL     1       3.068   3.618  17.304  0.00  0.00    +0.000 A 
ATOM     13  C   UNL     1       2.431   4.790  17.706  0.00  0.00    +0.000 A 
ATOM     14  F   UNL     1       1.131   4.914  17.393  0.00  0.00    +0.000 F 
ATOM     15  C   UNL     1       3.108   5.811  18.398  0.00  0.00    +0.000 A 
ATOM     16  C   UNL     1       4.476   5.590  18.656  0.00  0.00    +0.000 A 
BRANCH  10  18
ATOM     17  C   UNL     1       7.065   5.596  18.961  0.00  0.00    +0.000 C 
ATOM     18  O   UNL     1       6.458   4.369  18.577  0.00  0.00    +0.000 OA
ENDBRANCH  10  18
ENDBRANCH   1  15
BRANCH   9  19
ATOM     19  O   UNL     1      -0.379  11.266  19.536  0.00  0.00    +0.000 OA
BRANCH  19  20
ATOM     20  C   UNL     1      -0.569  12.609  19.740  0.00  0.00    +0.000 A 
ATOM     21  C   UNL     1      -1.564  13.139  20.555  0.00  0.00    +0.000 A 
ATOM     22  C   UNL     1      -1.799  14.508  20.571  0.00  0.00    +0.000 A 
ATOM     23  C   UNL     1      -0.995  15.364  19.823  0.00  0.00    +0.000 A 
ATOM     24  C   UNL     1       0.100  14.892  19.088  0.00  0.00    +0.000 A 
ATOM     25  C   UNL     1       0.267  13.489  19.024  0.00  0.00    +0.000 A 
BRANCH  24  26
ATOM     26  C   UNL     1       1.113  15.849  18.440  0.00  0.00    +0.000 C 
BRANCH  26  27
ATOM     27  C   UNL     1       0.684  17.297  18.274  0.00  0.00    +0.000 C 
ATOM     28  C   UNL     1      -0.386  17.752  17.313  0.00  0.00    +0.000 C 
ATOM     29  C   UNL     1       1.038  18.195  17.115  0.00  0.00    +0.000 C 
ENDBRANCH  26  27
BRANCH  26  30
ATOM     30  C   UNL     1       2.559  15.725  19.029  0.00  0.00    +0.000 C 
ATOM     31  C   UNL     1       3.231  17.013  19.522  0.00  0.00    +0.000 C 
BRANCH  30  32
ATOM     32  C   UNL     1       3.489  15.091  18.002  0.00  0.00    +0.000 C 
ATOM     33  O   UNL     1       4.183  14.102  18.207  0.00  0.00    +0.000 OA
BRANCH  32  34
ATOM     34  O   UNL     1       3.505  15.726  16.812  0.00  0.00    +0.000 OA
ATOM     35  H   UNL     1       4.104  16.487  16.766  0.00  0.00    +0.000 HD
ENDBRANCH  32  34
ENDBRANCH  30  32
ENDBRANCH  26  30
ENDBRANCH  24  26
ENDBRANCH  19  20
ENDBRANCH   9  19
TORSDOF 9
ENDMDL
