MODEL 1
REMARK VINA RESULT:      -7.5      0.000      0.000
REMARK  Name = 
REMARK  6 active torsions:
REMARK  status: ('A' for Active; 'I' for Inactive)
REMARK    1  A    between atoms: C_2  and  O_3
REMARK    2  A    between atoms: C_2  and  C_4
REMARK    3  A    between atoms: C_4  and  C_5
REMARK    4  A    between atoms: C_5  and  C_6
REMARK    5  A    between atoms: C_9  and  C_10
REMARK    6  A    between atoms: C_11  and  C_12
REMARK                            x       y       z     vdW  Elec       q    Type
REMARK                         _______ _______ _______ _____ _____    ______ ____
ROOT
ATOM      1  C   UNL     1       5.462   4.884  17.027  0.00  0.00    +0.000 A 
ATOM      2  C   UNL     1       6.740   4.759  17.589  0.00  0.00    +0.000 A 
ATOM      3  C   UNL     1       7.524   5.891  17.840  0.00  0.00    +0.000 A 
ATOM      4  C   UNL     1       7.046   7.164  17.521  0.00  0.00    +0.000 A 
ATOM      5  C   UNL     1       5.797   7.294  16.913  0.00  0.00    +0.000 A 
ATOM      6  C   UNL     1       5.010   6.162  16.668  0.00  0.00    +0.000 A 
ENDROOT
BRANCH   4   7
ATOM      7  C   UNL     1       7.809   8.328  17.867  0.00  0.00    +0.000 C 
ATOM      8  C   UNL     1       8.479   9.263  18.214  0.00  0.00    +0.000 C 
BRANCH   8   9
ATOM      9  C   UNL     1       9.306  10.336  18.678  0.00  0.00    +0.000 A 
ATOM     10  C   UNL     1       9.392  10.617  20.039  0.00  0.00    +0.000 A 
ATOM     11  C   UNL     1      10.175  11.688  20.437  0.00  0.00    +0.000 A 
ATOM     12  N   UNL     1      10.860  12.475  19.581  0.00  0.00    +0.000 NA
ATOM     13  C   UNL     1      10.754  12.170  18.272  0.00  0.00    +0.000 A 
ATOM     14 CL   UNL     1      11.630  13.208  17.225  0.00  0.00    +0.000 Cl
ATOM     15  C   UNL     1      10.004  11.124  17.768  0.00  0.00    +0.000 A 
ENDBRANCH   8   9
ENDBRANCH   4   7
BRANCH   1  16
ATOM     16  C   UNL     1       4.585   3.671  16.803  0.00  0.00    +0.000 C 
BRANCH  16  17
ATOM     17  C   UNL     1       3.165   3.859  17.346  0.00  0.00    +0.000 C 
BRANCH  17  19
ATOM     18  O   UNL     1       1.391   2.355  18.045  0.00  0.00    +0.000 OA
ATOM     19  C   UNL     1       2.574   2.554  17.817  0.00  0.00    +0.000 C 
BRANCH  19  20
ATOM     20  O   UNL     1       3.509   1.587  17.967  0.00  0.00    +0.000 OA
ATOM     21  H   UNL     1       3.236   0.856  18.553  0.00  0.00    +0.000 HD
ENDBRANCH  19  20
ENDBRANCH  17  19
ENDBRANCH  16  17
ENDBRANCH   1  16
TORSDOF 6
ENDMDL
MODEL 2
REMARK VINA RESULT:      -7.5      0.564      1.237
REMARK  Name = 
REMARK  6 active torsions:
REMARK  status: ('A' for Active; 'I' for Inactive)
REMARK    1  A    between atoms: C_2  and  O_3
REMARK    2  A    between atoms: C_2  and  C_4
REMARK    3  A    between atoms: C_4  and  C_5
REMARK    4  A    between atoms: C_5  and  C_6
REMARK    5  A    between atoms: C_9  and  C_10
REMARK    6  A    between atoms: C_11  and  C_12
REMARK                            x       y       z     vdW  Elec       q    Type
REMARK                         _______ _______ _______ _____ _____    ______ ____
ROOT
ATOM      1  C   UNL     1       5.425   5.032  16.921  0.00  0.00    +0.000 A 
ATOM      2  C   UNL     1       4.898   6.330  16.883  0.00  0.00    +0.000 A 
ATOM      3  C   UNL     1       5.683   7.431  17.240  0.00  0.00    +0.000 A 
ATOM      4  C   UNL     1       7.005   7.250  17.654  0.00  0.00    +0.000 A 
ATOM      5  C   UNL     1       7.522   5.957  17.746  0.00  0.00    +0.000 A 
ATOM      6  C   UNL     1       6.738   4.856  17.382  0.00  0.00    +0.000 A 
ENDROOT
BRANCH   4   7
ATOM      7  C   UNL     1       7.836   8.385  17.927  0.00  0.00    +0.000 C 
ATOM      8  C   UNL     1       8.536   9.314  18.228  0.00  0.00    +0.000 C 
BRANCH   8   9
ATOM      9  C   UNL     1       9.372  10.397  18.654  0.00  0.00    +0.000 A 
ATOM     10  C   UNL     1       9.460  10.725  20.005  0.00  0.00    +0.000 A 
ATOM     11  C   UNL     1      10.251  11.803  20.366  0.00  0.00    +0.000 A 
ATOM     12  N   UNL     1      10.941  12.555  19.482  0.00  0.00    +0.000 NA
ATOM     13  C   UNL     1      10.833  12.205  18.185  0.00  0.00    +0.000 A 
ATOM     14 CL   UNL     1      11.716  13.200  17.102  0.00  0.00    +0.000 Cl
ATOM     15  C   UNL     1      10.074  11.148  17.717  0.00  0.00    +0.000 A 
ENDBRANCH   8   9
ENDBRANCH   4   7
BRANCH   1  16
ATOM     16  C   UNL     1       4.602   3.840  16.483  0.00  0.00    +0.000 C 
BRANCH  16  17
ATOM     17  C   UNL     1       3.945   3.110  17.659  0.00  0.00    +0.000 C 
BRANCH  17  19
ATOM     18  O   UNL     1       1.698   3.895  17.175  0.00  0.00    +0.000 OA
ATOM     19  C   UNL     1       2.454   2.983  17.470  0.00  0.00    +0.000 C 
BRANCH  19  20
ATOM     20  O   UNL     1       2.015   1.717  17.662  0.00  0.00    +0.000 OA
ATOM     21  H   UNL     1       1.371   1.624  18.389  0.00  0.00    +0.000 HD
ENDBRANCH  19  20
ENDBRANCH  17  19
ENDBRANCH  16  17
ENDBRANCH   1  16
TORSDOF 6
ENDMDL
MODEL 3
REMARK VINA RESULT:      -7.4      0.950      1.107
REMARK  Name = 
REMARK  6 active torsions:
REMARK  status: ('A' for Active; 'I' for Inactive)
REMARK    1  A    between atoms: C_2  and  O_3
REMARK    2  A    between atoms: C_2  and  C_4
REMARK    3  A    between atoms: C_4  and  C_5
REMARK    4  A    between atoms: C_5  and  C_6
REMARK    5  A    between atoms: C_9  and  C_10
REMARK    6  A    between atoms: C_11  and  C_12
REMARK                            x       y       z     vdW  Elec       q    Type
REMARK                         _______ _______ _______ _____ _____    ______ ____
ROOT
ATOM      1  C   UNL     1       5.418   4.804  17.211  0.00  0.00    +0.000 A 
ATOM      2  C   UNL     1       6.472   4.763  18.134  0.00  0.00    +0.000 A 
ATOM      3  C   UNL     1       7.280   5.886  18.346  0.00  0.00    +0.000 A 
ATOM      4  C   UNL     1       7.053   7.062  17.628  0.00  0.00    +0.000 A 
ATOM      5  C   UNL     1       6.041   7.096  16.668  0.00  0.00    +0.000 A 
ATOM      6  C   UNL     1       5.228   5.974  16.462  0.00  0.00    +0.000 A 
ENDROOT
BRANCH   4   7
ATOM      7  C   UNL     1       7.819   8.240  17.915  0.00  0.00    +0.000 C 
ATOM      8  C   UNL     1       8.470   9.202  18.226  0.00  0.00    +0.000 C 
BRANCH   8   9
ATOM      9  C   UNL     1       9.252  10.319  18.662  0.00  0.00    +0.000 A 
ATOM     10  C   UNL     1       9.394  10.588  20.021  0.00  0.00    +0.000 A 
ATOM     11  C   UNL     1      10.129  11.701  20.394  0.00  0.00    +0.000 A 
ATOM     12  N   UNL     1      10.715  12.541  19.515  0.00  0.00    +0.000 NA
ATOM     13  C   UNL     1      10.557  12.247  18.209  0.00  0.00    +0.000 A 
ATOM     14 CL   UNL     1      11.307  13.352  17.134  0.00  0.00    +0.000 Cl
ATOM     15  C   UNL     1       9.847  11.162  17.729  0.00  0.00    +0.000 A 
ENDBRANCH   8   9
ENDBRANCH   4   7
BRANCH   1  16
ATOM     16  C   UNL     1       4.504   3.613  17.016  0.00  0.00    +0.000 C 
BRANCH  16  17
ATOM     17  C   UNL     1       3.543   3.406  18.190  0.00  0.00    +0.000 C 
BRANCH  17  19
ATOM     18  O   UNL     1       1.374   3.945  17.241  0.00  0.00    +0.000 OA
ATOM     19  C   UNL     1       2.276   4.207  18.019  0.00  0.00    +0.000 C 
BRANCH  19  20
ATOM     20  O   UNL     1       2.230   5.281  18.842  0.00  0.00    +0.000 OA
ATOM     21  H   UNL     1       3.085   5.740  18.947  0.00  0.00    +0.000 HD
ENDBRANCH  19  20
ENDBRANCH  17  19
ENDBRANCH  16  17
ENDBRANCH   1  16
TORSDOF 6
ENDMDL
MODEL 4
REMARK VINA RESULT:      -7.4      0.860      1.413
REMARK  Name = 
REMARK  6 active torsions:
REMARK  status: ('A' for Active; 'I' for Inactive)
REMARK    1  A    between atoms: C_2  and  O_3
REMARK    2  A    between atoms: C_2  and  C_4
REMARK    3  A    between atoms: C_4  and  C_5
REMARK    4  A    between atoms: C_5  and  C_6
REMARK    5  A    between atoms: C_9  and  C_10
REMARK    6  A    between atoms: C_11  and  C_12
REMARK                            x       y       z     vdW  Elec       q    Type
REMARK                         _______ _______ _______ _____ _____    ______ ____
ROOT
ATOM      1  C   UNL     1       6.152   5.237  17.159  0.00  0.00    +0.000 A 
ATOM      2  C   UNL     1       5.783   6.474  16.613  0.00  0.00    +0.000 A 
ATOM      3  C   UNL     1       6.454   7.646  16.979  0.00  0.00    +0.000 A 
ATOM      4  C   UNL     1       7.497   7.600  17.907  0.00  0.00    +0.000 A 
ATOM      5  C   UNL     1       7.836   6.381  18.497  0.00  0.00    +0.000 A 
ATOM      6  C   UNL     1       7.168   5.207  18.125  0.00  0.00    +0.000 A 
ENDROOT
BRANCH   4   7
ATOM      7  C   UNL     1       8.246   8.784  18.209  0.00  0.00    +0.000 C 
ATOM      8  C   UNL     1       8.937   9.734  18.462  0.00  0.00    +0.000 C 
BRANCH   8   9
ATOM      9  C   UNL     1       9.818  10.824  18.761  0.00  0.00    +0.000 A 
ATOM     10  C   UNL     1       9.949  11.281  20.070  0.00  0.00    +0.000 A 
ATOM     11  C   UNL     1      10.783  12.361  20.305  0.00  0.00    +0.000 A 
ATOM     12  N   UNL     1      11.477  12.996  19.337  0.00  0.00    +0.000 NA
ATOM     13  C   UNL     1      11.326  12.523  18.083  0.00  0.00    +0.000 A 
ATOM     14 CL   UNL     1      12.216  13.374  16.889  0.00  0.00    +0.000 Cl
ATOM     15  C   UNL     1      10.522  11.452  17.739  0.00  0.00    +0.000 A 
ENDBRANCH   8   9
ENDBRANCH   4   7
BRANCH   1  16
ATOM     16  C   UNL     1       5.469   3.957  16.728  0.00  0.00    +0.000 C 
BRANCH  16  17
ATOM     17  C   UNL     1       4.017   3.871  17.206  0.00  0.00    +0.000 C 
BRANCH  17  19
ATOM     18  O   UNL     1       2.862   1.809  17.766  0.00  0.00    +0.000 OA
ATOM     19  C   UNL     1       3.763   2.603  17.983  0.00  0.00    +0.000 C 
BRANCH  19  20
ATOM     20  O   UNL     1       4.661   2.418  18.979  0.00  0.00    +0.000 OA
ATOM     21  H   UNL     1       4.261   2.196  19.841  0.00  0.00    +0.000 HD
ENDBRANCH  19  20
ENDBRANCH  17  19
ENDBRANCH  16  17
ENDBRANCH   1  16
TORSDOF 6
ENDMDL
MODEL 5
REMARK VINA RESULT:      -7.3      1.315      1.778
REMARK  Name = 
REMARK  6 active torsions:
REMARK  status: ('A' for Active; 'I' for Inactive)
REMARK    1  A    between atoms: C_2  and  O_3
REMARK    2  A    between atoms: C_2  and  C_4
REMARK    3  A    between atoms: C_4  and  C_5
REMARK    4  A    between atoms: C_5  and  C_6
REMARK    5  A    between atoms: C_9  and  C_10
REMARK    6  A    between atoms: C_11  and  C_12
REMARK                            x       y       z     vdW  Elec       q    Type
REMARK                         _______ _______ _______ _____ _____    ______ ____
ROOT
ATOM      1  C   UNL     1       5.388   4.859  16.865  0.00  0.00    +0.000 A 
ATOM      2  C   UNL     1       6.705   4.656  17.297  0.00  0.00    +0.000 A 
ATOM      3  C   UNL     1       7.536   5.743  17.593  0.00  0.00    +0.000 A 
ATOM      4  C   UNL     1       7.065   7.050  17.448  0.00  0.00    +0.000 A 
ATOM      5  C   UNL     1       5.773   7.263  16.966  0.00  0.00    +0.000 A 
ATOM      6  C   UNL     1       4.940   6.175  16.677  0.00  0.00    +0.000 A 
ENDROOT
BRANCH   4   7
ATOM      7  C   UNL     1       7.884   8.159  17.842  0.00  0.00    +0.000 C 
ATOM      8  C   UNL     1       8.511   9.116  18.210  0.00  0.00    +0.000 C 
BRANCH   8   9
ATOM      9  C   UNL     1       9.199  10.279  18.684  0.00  0.00    +0.000 A 
ATOM     10  C   UNL     1      10.056  10.980  17.839  0.00  0.00    +0.000 A 
ATOM     11  C   UNL     1      10.729  12.076  18.353  0.00  0.00    +0.000 A 
ATOM     12  N   UNL     1      10.601  12.504  19.626  0.00  0.00    +0.000 NA
ATOM     13  C   UNL     1       9.761  11.802  20.413  0.00  0.00    +0.000 A 
ATOM     14 CL   UNL     1       9.646  12.376  22.025  0.00  0.00    +0.000 Cl
ATOM     15  C   UNL     1       9.040  10.696  20.002  0.00  0.00    +0.000 A 
ENDBRANCH   8   9
ENDBRANCH   4   7
BRANCH   1  16
ATOM     16  C   UNL     1       4.464   3.691  16.597  0.00  0.00    +0.000 C 
BRANCH  16  17
ATOM     17  C   UNL     1       3.300   3.616  17.589  0.00  0.00    +0.000 C 
BRANCH  17  19
ATOM     18  O   UNL     1       4.320   2.432  19.448  0.00  0.00    +0.000 OA
ATOM     19  C   UNL     1       3.477   2.481  18.567  0.00  0.00    +0.000 C 
BRANCH  19  20
ATOM     20  O   UNL     1       2.578   1.487  18.373  0.00  0.00    +0.000 OA
ATOM     21  H   UNL     1       2.427   1.264  17.435  0.00  0.00    +0.000 HD
ENDBRANCH  19  20
ENDBRANCH  17  19
ENDBRANCH  16  17
ENDBRANCH   1  16
TORSDOF 6
ENDMDL
MODEL 6
REMARK VINA RESULT:      -7.2      1.585      1.940
REMARK  Name = 
REMARK  6 active torsions:
REMARK  status: ('A' for Active; 'I' for Inactive)
REMARK    1  A    between atoms: C_2  and  O_3
REMARK    2  A    between atoms: C_2  and  C_4
REMARK    3  A    between atoms: C_4  and  C_5
REMARK    4  A    between atoms: C_5  and  C_6
REMARK    5  A    between atoms: C_9  and  C_10
REMARK    6  A    between atoms: C_11  and  C_12
REMARK                            x       y       z     vdW  Elec       q    Type
REMARK                         _______ _______ _______ _____ _____    ______ ____
ROOT
ATOM      1  C   UNL     1       6.080   5.320  17.615  0.00  0.00    +0.000 A 
ATOM      2  C   UNL     1       7.173   5.327  18.492  0.00  0.00    +0.000 A 
ATOM      3  C   UNL     1       7.943   6.482  18.665  0.00  0.00    +0.000 A 
ATOM      4  C   UNL     1       7.640   7.644  17.952  0.00  0.00    +0.000 A 
ATOM      5  C   UNL     1       6.588   7.631  17.036  0.00  0.00    +0.000 A 
ATOM      6  C   UNL     1       5.812   6.477  16.869  0.00  0.00    +0.000 A 
ENDROOT
BRANCH   4   7
ATOM      7  C   UNL     1       8.370   8.853  18.202  0.00  0.00    +0.000 C 
ATOM      8  C   UNL     1       8.990   9.843  18.482  0.00  0.00    +0.000 C 
BRANCH   8   9
ATOM      9  C   UNL     1       9.736  10.998  18.883  0.00  0.00    +0.000 A 
ATOM     10  C   UNL     1      10.838  11.414  18.140  0.00  0.00    +0.000 A 
ATOM     11  C   UNL     1      11.551  12.513  18.588  0.00  0.00    +0.000 A 
ATOM     12  N   UNL     1      11.240  13.205  19.704  0.00  0.00    +0.000 NA
ATOM     13  C   UNL     1      10.165  12.774  20.395  0.00  0.00    +0.000 A 
ATOM     14 CL   UNL     1       9.820  13.676  21.813  0.00  0.00    +0.000 Cl
ATOM     15  C   UNL     1       9.384  11.691  20.037  0.00  0.00    +0.000 A 
ENDBRANCH   8   9
ENDBRANCH   4   7
BRANCH   1  16
ATOM     16  C   UNL     1       5.207   4.093  17.463  0.00  0.00    +0.000 C 
BRANCH  16  17
ATOM     17  C   UNL     1       4.121   4.002  18.538  0.00  0.00    +0.000 C 
BRANCH  17  19
ATOM     18  O   UNL     1       3.151   1.836  19.053  0.00  0.00    +0.000 OA
ATOM     19  C   UNL     1       4.071   2.630  19.163  0.00  0.00    +0.000 C 
BRANCH  19  20
ATOM     20  O   UNL     1       5.184   2.349  19.882  0.00  0.00    +0.000 OA
ATOM     21  H   UNL     1       5.269   1.410  20.134  0.00  0.00    +0.000 HD
ENDBRANCH  19  20
ENDBRANCH  17  19
ENDBRANCH  16  17
ENDBRANCH   1  16
TORSDOF 6
ENDMDL
MODEL 7
REMARK VINA RESULT:      -7.2      1.448      1.841
REMARK  Name = 
REMARK  6 active torsions:
REMARK  status: ('A' for Active; 'I' for Inactive)
REMARK    1  A    between atoms: C_2  and  O_3
REMARK    2  A    between atoms: C_2  and  C_4
REMARK    3  A    between atoms: C_4  and  C_5
REMARK    4  A    between atoms: C_5  and  C_6
REMARK    5  A    between atoms: C_9  and  C_10
REMARK    6  A    between atoms: C_11  and  C_12
REMARK                            x       y       z     vdW  Elec       q    Type
REMARK                         _______ _______ _______ _____ _____    ______ ____
ROOT
ATOM      1  C   UNL     1       5.580   4.819  17.138  0.00  0.00    +0.000 A 
ATOM      2  C   UNL     1       6.699   4.727  17.977  0.00  0.00    +0.000 A 
ATOM      3  C   UNL     1       7.505   5.845  18.219  0.00  0.00    +0.000 A 
ATOM      4  C   UNL     1       7.211   7.069  17.615  0.00  0.00    +0.000 A 
ATOM      5  C   UNL     1       6.130   7.158  16.736  0.00  0.00    +0.000 A 
ATOM      6  C   UNL     1       5.320   6.041  16.500  0.00  0.00    +0.000 A 
ENDROOT
BRANCH   4   7
ATOM      7  C   UNL     1       7.980   8.236  17.939  0.00  0.00    +0.000 C 
ATOM      8  C   UNL     1       8.582   9.220  18.273  0.00  0.00    +0.000 C 
BRANCH   8   9
ATOM      9  C   UNL     1       9.258  10.398  18.730  0.00  0.00    +0.000 A 
ATOM     10  C   UNL     1      10.114  11.091  17.877  0.00  0.00    +0.000 A 
ATOM     11  C   UNL     1      10.774  12.201  18.375  0.00  0.00    +0.000 A 
ATOM     12  N   UNL     1      10.636  12.650  19.640  0.00  0.00    +0.000 NA
ATOM     13  C   UNL     1       9.797  11.956  20.434  0.00  0.00    +0.000 A 
ATOM     14 CL   UNL     1       9.669  12.558  22.035  0.00  0.00    +0.000 Cl
ATOM     15  C   UNL     1       9.088  10.836  20.039  0.00  0.00    +0.000 A 
ENDBRANCH   8   9
ENDBRANCH   4   7
BRANCH   1  16
ATOM     16  C   UNL     1       4.671   3.631  16.914  0.00  0.00    +0.000 C 
BRANCH  16  17
ATOM     17  C   UNL     1       3.896   3.232  18.174  0.00  0.00    +0.000 C 
BRANCH  17  19
ATOM     18  O   UNL     1       1.683   3.658  17.270  0.00  0.00    +0.000 OA
ATOM     19  C   UNL     1       2.497   3.797  18.168  0.00  0.00    +0.000 C 
BRANCH  19  20
ATOM     20  O   UNL     1       2.217   4.495  19.294  0.00  0.00    +0.000 OA
ATOM     21  H   UNL     1       2.654   4.150  20.096  0.00  0.00    +0.000 HD
ENDBRANCH  19  20
ENDBRANCH  17  19
ENDBRANCH  16  17
ENDBRANCH   1  16
TORSDOF 6
ENDMDL
MODEL 8
REMARK VINA RESULT:      -7.1      1.359      2.092
REMARK  Name = 
REMARK  6 active torsions:
REMARK  status: ('A' for Active; 'I' for Inactive)
REMARK    1  A    between atoms: C_2  and  O_3
REMARK    2  A    between atoms: C_2  and  C_4
REMARK    3  A    between atoms: C_4  and  C_5
REMARK    4  A    between atoms: C_5  and  C_6
REMARK    5  A    between atoms: C_9  and  C_10
REMARK    6  A    between atoms: C_11  and  C_12
REMARK                            x       y       z     vdW  Elec       q    Type
REMARK                         _______ _______ _______ _____ _____    ______ ____
ROOT
ATOM      1  C   UNL     1       5.702   4.891  16.924  0.00  0.00    +0.000 A 
ATOM      2  C   UNL     1       5.216   6.184  16.685  0.00  0.00    +0.000 A 
ATOM      3  C   UNL     1       5.962   7.308  17.058  0.00  0.00    +0.000 A 
ATOM      4  C   UNL     1       7.199   7.155  17.688  0.00  0.00    +0.000 A 
ATOM      5  C   UNL     1       7.666   5.873  17.979  0.00  0.00    +0.000 A 
ATOM      6  C   UNL     1       6.923   4.748  17.600  0.00  0.00    +0.000 A 
ENDROOT
BRANCH   4   7
ATOM      7  C   UNL     1       8.004   8.305  17.983  0.00  0.00    +0.000 C 
ATOM      8  C   UNL     1       8.629   9.286  18.284  0.00  0.00    +0.000 C 
BRANCH   8   9
ATOM      9  C   UNL     1       9.326  10.468  18.694  0.00  0.00    +0.000 A 
ATOM     10  C   UNL     1      10.177  11.124  17.808  0.00  0.00    +0.000 A 
ATOM     11  C   UNL     1      10.858  12.241  18.262  0.00  0.00    +0.000 A 
ATOM     12  N   UNL     1      10.744  12.731  19.514  0.00  0.00    +0.000 NA
ATOM     13  C   UNL     1       9.909  12.071  20.342  0.00  0.00    +0.000 A 
ATOM     14 CL   UNL     1       9.812  12.723  21.925  0.00  0.00    +0.000 Cl
ATOM     15  C   UNL     1       9.181  10.949  19.992  0.00  0.00    +0.000 A 
ENDBRANCH   8   9
ENDBRANCH   4   7
BRANCH   1  16
ATOM     16  C   UNL     1       4.929   3.670  16.475  0.00  0.00    +0.000 C 
BRANCH  16  17
ATOM     17  C   UNL     1       3.551   3.566  17.134  0.00  0.00    +0.000 C 
BRANCH  17  19
ATOM     18  O   UNL     1       3.764   1.743  18.725  0.00  0.00    +0.000 OA
ATOM     19  C   UNL     1       3.637   2.936  18.503  0.00  0.00    +0.000 C 
BRANCH  19  20
ATOM     20  O   UNL     1       3.560   3.851  19.498  0.00  0.00    +0.000 OA
ATOM     21  H   UNL     1       3.080   3.540  20.289  0.00  0.00    +0.000 HD
ENDBRANCH  19  20
ENDBRANCH  17  19
ENDBRANCH  16  17
ENDBRANCH   1  16
TORSDOF 6
ENDMDL
MODEL 9
REMARK VINA RESULT:      -7.1      1.578      1.985
REMARK  Name = 
REMARK  6 active torsions:
REMARK  status: ('A' for Active; 'I' for Inactive)
REMARK    1  A    between atoms: C_2  and  O_3
REMARK    2  A    between atoms: C_2  and  C_4
REMARK    3  A    between atoms: C_4  and  C_5
REMARK    4  A    between atoms: C_5  and  C_6
REMARK    5  A    between atoms: C_9  and  C_10
REMARK    6  A    between atoms: C_11  and  C_12
REMARK                            x       y       z     vdW  Elec       q    Type
REMARK                         _______ _______ _______ _____ _____    ______ ____
ROOT
ATOM      1  C   UNL     1       6.350   5.293  17.460  0.00  0.00    +0.000 A 
ATOM      2  C   UNL     1       5.923   6.467  16.824  0.00  0.00    +0.000 A 
ATOM      3  C   UNL     1       6.570   7.685  17.063  0.00  0.00    +0.000 A 
ATOM      4  C   UNL     1       7.645   7.749  17.952  0.00  0.00    +0.000 A 
ATOM      5  C   UNL     1       8.043   6.596  18.630  0.00  0.00    +0.000 A 
ATOM      6  C   UNL     1       7.400   5.376  18.385  0.00  0.00    +0.000 A 
ENDROOT
BRANCH   4   7
ATOM      7  C   UNL     1       8.367   8.976  18.122  0.00  0.00    +0.000 C 
ATOM      8  C   UNL     1       8.926  10.020  18.324  0.00  0.00    +0.000 C 
BRANCH   8   9
ATOM      9  C   UNL     1       9.549  11.276  18.619  0.00  0.00    +0.000 A 
ATOM     10  C   UNL     1      10.669  11.326  19.446  0.00  0.00    +0.000 A 
ATOM     11  C   UNL     1      11.213  12.566  19.734  0.00  0.00    +0.000 A 
ATOM     12  N   UNL     1      10.721  13.729  19.260  0.00  0.00    +0.000 NA
ATOM     13  C   UNL     1       9.638  13.640  18.461  0.00  0.00    +0.000 A 
ATOM     14 CL   UNL     1       9.042  15.146  17.897  0.00  0.00    +0.000 Cl
ATOM     15  C   UNL     1       9.018  12.456  18.109  0.00  0.00    +0.000 A 
ENDBRANCH   8   9
ENDBRANCH   4   7
BRANCH   1  16
ATOM     16  C   UNL     1       5.693   3.962  17.165  0.00  0.00    +0.000 C 
BRANCH  16  17
ATOM     17  C   UNL     1       4.248   3.890  17.669  0.00  0.00    +0.000 C 
BRANCH  17  19
ATOM     18  O   UNL     1       3.359   3.905  19.929  0.00  0.00    +0.000 OA
ATOM     19  C   UNL     1       4.186   3.504  19.126  0.00  0.00    +0.000 C 
BRANCH  19  20
ATOM     20  O   UNL     1       5.166   2.637  19.473  0.00  0.00    +0.000 OA
ATOM     21  H   UNL     1       5.383   2.640  20.424  0.00  0.00    +0.000 HD
ENDBRANCH  19  20
ENDBRANCH  17  19
ENDBRANCH  16  17
ENDBRANCH   1  16
TORSDOF 6
ENDMDL
