MODEL 1
REMARK VINA RESULT:      -6.4      0.000      0.000
REMARK  Name = 
REMARK  11 active torsions:
REMARK  status: ('A' for Active; 'I' for Inactive)
REMARK    1  A    between atoms: C_1  and  C_2
REMARK    2  A    between atoms: C_2  and  N_3
REMARK    3  A    between atoms: N_3  and  C_4
REMARK    4  A    between atoms: N_3  and  S_6
REMARK    5  A    between atoms: C_4  and  C_5
REMARK    6  A    between atoms: S_6  and  N_9
REMARK    7  A    between atoms: N_13  and  C_14
REMARK    8  A    between atoms: C_14  and  C_15
REMARK    9  A    between atoms: N_17  and  C_18
REMARK   10  A    between atoms: C_18  and  C_19
REMARK   11  A    between atoms: C_18  and  C_20
REMARK                            x       y       z     vdW  Elec       q    Type
REMARK                         _______ _______ _______ _____ _____    ______ ____
ROOT
ATOM      1  N   UNL     1       4.433   4.272  18.361  0.00  0.00    +0.000 NA
ATOM      2  C   UNL     1       4.107   3.960  16.940  0.00  0.00    +0.000 C 
ATOM      3  C   UNL     1       4.231   5.153  15.990  0.00  0.00    +0.000 C 
ATOM      4  C   UNL     1       5.471   6.061  15.989  0.00  0.00    +0.000 C 
ATOM      5  N   UNL     1       6.742   5.624  16.563  0.00  0.00    +0.000 NA
ATOM      6  C   UNL     1       6.634   5.489  18.023  0.00  0.00    +0.000 C 
ATOM      7  C   UNL     1       5.931   4.251  18.577  0.00  0.00    +0.000 C 
ENDROOT
BRANCH   1   8
ATOM      8  S   UNL     1       3.744   3.164  19.476  0.00  0.00    +0.000 S 
ATOM      9  O   UNL     1       4.796   2.706  20.356  0.00  0.00    +0.000 OA
ATOM     10  O   UNL     1       2.969   2.209  18.716  0.00  0.00    +0.000 OA
BRANCH   8  11
ATOM     11  N   UNL     1       2.666   4.079  20.415  0.00  0.00    +0.000 NA
BRANCH  11  13
ATOM     12  C   UNL     1       1.755   6.434  20.686  0.00  0.00    +0.000 C 
ATOM     13  C   UNL     1       2.524   5.454  19.824  0.00  0.00    +0.000 C 
ENDBRANCH  11  13
BRANCH  11  14
ATOM     14  C   UNL     1       1.387   3.438  20.824  0.00  0.00    +0.000 C 
ATOM     15  C   UNL     1       1.500   2.443  21.961  0.00  0.00    +0.000 C 
ENDBRANCH  11  14
ENDBRANCH   8  11
ENDBRANCH   1   8
BRANCH   5  16
ATOM     16  C   UNL     1       7.334   4.471  15.858  0.00  0.00    +0.000 C 
BRANCH  16  17
ATOM     17  C   UNL     1       7.240   4.601  14.331  0.00  0.00    +0.000 C 
ATOM     18  O   UNL     1       7.809   5.503  13.721  0.00  0.00    +0.000 OA
ATOM     19  N   UNL     1       6.485   3.628  13.714  0.00  0.00    +0.000 N 
ATOM     20  H   UNL     1       5.856   3.101  14.312  0.00  0.00    +0.000 HD
BRANCH  19  21
ATOM     21  C   UNL     1       6.253   3.639  12.275  0.00  0.00    +0.000 C 
ATOM     22  C   UNL     1       7.124   2.593  11.591  0.00  0.00    +0.000 C 
ATOM     23  C   UNL     1       4.777   3.411  11.947  0.00  0.00    +0.000 C 
ENDBRANCH  19  21
ENDBRANCH  16  17
ENDBRANCH   5  16
TORSDOF 7
ENDMDL
MODEL 2
REMARK VINA RESULT:      -6.2      0.497      1.431
REMARK  Name = 
REMARK  11 active torsions:
REMARK  status: ('A' for Active; 'I' for Inactive)
REMARK    1  A    between atoms: C_1  and  C_2
REMARK    2  A    between atoms: C_2  and  N_3
REMARK    3  A    between atoms: N_3  and  C_4
REMARK    4  A    between atoms: N_3  and  S_6
REMARK    5  A    between atoms: C_4  and  C_5
REMARK    6  A    between atoms: S_6  and  N_9
REMARK    7  A    between atoms: N_13  and  C_14
REMARK    8  A    between atoms: C_14  and  C_15
REMARK    9  A    between atoms: N_17  and  C_18
REMARK   10  A    between atoms: C_18  and  C_19
REMARK   11  A    between atoms: C_18  and  C_20
REMARK                            x       y       z     vdW  Elec       q    Type
REMARK                         _______ _______ _______ _____ _____    ______ ____
ROOT
ATOM      1  N   UNL     1       4.423   3.933  18.256  0.00  0.00    +0.000 NA
ATOM      2  C   UNL     1       4.176   3.609  16.821  0.00  0.00    +0.000 C 
ATOM      3  C   UNL     1       4.177   4.825  15.893  0.00  0.00    +0.000 C 
ATOM      4  C   UNL     1       5.296   5.879  15.941  0.00  0.00    +0.000 C 
ATOM      5  N   UNL     1       6.595   5.592  16.546  0.00  0.00    +0.000 NA
ATOM      6  C   UNL     1       6.465   5.418  17.999  0.00  0.00    +0.000 C 
ATOM      7  C   UNL     1       5.906   4.092  18.515  0.00  0.00    +0.000 C 
ENDROOT
BRANCH   1   8
ATOM      8  S   UNL     1       3.846   2.728  19.333  0.00  0.00    +0.000 S 
ATOM      9  O   UNL     1       4.802   2.601  20.411  0.00  0.00    +0.000 OA
ATOM     10  O   UNL     1       3.489   1.572  18.541  0.00  0.00    +0.000 OA
BRANCH   8  11
ATOM     11  N   UNL     1       2.420   3.363  19.999  0.00  0.00    +0.000 NA
BRANCH  11  13
ATOM     12  C   UNL     1       1.341   2.387  22.081  0.00  0.00    +0.000 C 
ATOM     13  C   UNL     1       2.458   3.226  21.497  0.00  0.00    +0.000 C 
ENDBRANCH  11  13
BRANCH  11  14
ATOM     14  C   UNL     1       1.951   4.685  19.503  0.00  0.00    +0.000 C 
ATOM     15  C   UNL     1       1.779   5.749  20.568  0.00  0.00    +0.000 C 
ENDBRANCH  11  14
ENDBRANCH   8  11
ENDBRANCH   1   8
BRANCH   5  16
ATOM     16  C   UNL     1       7.343   4.534  15.841  0.00  0.00    +0.000 C 
BRANCH  16  17
ATOM     17  C   UNL     1       7.236   4.651  14.313  0.00  0.00    +0.000 C 
ATOM     18  O   UNL     1       7.759   5.576  13.697  0.00  0.00    +0.000 OA
ATOM     19  N   UNL     1       6.525   3.640  13.705  0.00  0.00    +0.000 N 
ATOM     20  H   UNL     1       5.925   3.087  14.308  0.00  0.00    +0.000 HD
BRANCH  19  21
ATOM     21  C   UNL     1       6.287   3.633  12.267  0.00  0.00    +0.000 C 
ATOM     22  C   UNL     1       7.161   2.584  11.591  0.00  0.00    +0.000 C 
ATOM     23  C   UNL     1       4.811   3.393  11.949  0.00  0.00    +0.000 C 
ENDBRANCH  19  21
ENDBRANCH  16  17
ENDBRANCH   5  16
TORSDOF 7
ENDMDL
MODEL 3
REMARK VINA RESULT:      -6.2      1.639      2.397
REMARK  Name = 
REMARK  11 active torsions:
REMARK  status: ('A' for Active; 'I' for Inactive)
REMARK    1  A    between atoms: C_1  and  C_2
REMARK    2  A    between atoms: C_2  and  N_3
REMARK    3  A    between atoms: N_3  and  C_4
REMARK    4  A    between atoms: N_3  and  S_6
REMARK    5  A    between atoms: C_4  and  C_5
REMARK    6  A    between atoms: S_6  and  N_9
REMARK    7  A    between atoms: N_13  and  C_14
REMARK    8  A    between atoms: C_14  and  C_15
REMARK    9  A    between atoms: N_17  and  C_18
REMARK   10  A    between atoms: C_18  and  C_19
REMARK   11  A    between atoms: C_18  and  C_20
REMARK                            x       y       z     vdW  Elec       q    Type
REMARK                         _______ _______ _______ _____ _____    ______ ____
ROOT
ATOM      1  N   UNL     1       4.684   4.711  18.305  0.00  0.00    +0.000 NA
ATOM      2  C   UNL     1       5.560   5.917  18.274  0.00  0.00    +0.000 C 
ATOM      3  C   UNL     1       7.057   5.606  18.220  0.00  0.00    +0.000 C 
ATOM      4  C   UNL     1       7.638   4.590  17.222  0.00  0.00    +0.000 C 
ATOM      5  N   UNL     1       6.903   4.185  16.025  0.00  0.00    +0.000 NA
ATOM      6  C   UNL     1       5.711   3.405  16.387  0.00  0.00    +0.000 C 
ATOM      7  C   UNL     1       4.490   4.162  16.908  0.00  0.00    +0.000 C 
ENDROOT
BRANCH   1   8
ATOM      8  S   UNL     1       3.125   5.020  18.950  0.00  0.00    +0.000 S 
ATOM      9  O   UNL     1       2.152   4.733  17.919  0.00  0.00    +0.000 OA
ATOM     10  O   UNL     1       3.162   6.328  19.567  0.00  0.00    +0.000 OA
BRANCH   8  11
ATOM     11  N   UNL     1       2.908   3.871  20.180  0.00  0.00    +0.000 NA
BRANCH  11  13
ATOM     12  C   UNL     1       1.131   2.808  21.650  0.00  0.00    +0.000 C 
ATOM     13  C   UNL     1       1.461   3.837  20.589  0.00  0.00    +0.000 C 
ENDBRANCH  11  13
BRANCH  11  14
ATOM     14  C   UNL     1       3.540   2.537  20.001  0.00  0.00    +0.000 C 
ATOM     15  C   UNL     1       2.981   1.707  18.863  0.00  0.00    +0.000 C 
ENDBRANCH  11  14
ENDBRANCH   8  11
ENDBRANCH   1   8
BRANCH   5  16
ATOM     16  C   UNL     1       6.677   5.293  15.078  0.00  0.00    +0.000 C 
BRANCH  16  17
ATOM     17  C   UNL     1       6.781   4.848  13.612  0.00  0.00    +0.000 C 
ATOM     18  O   UNL     1       7.625   5.314  12.852  0.00  0.00    +0.000 OA
ATOM     19  N   UNL     1       5.869   3.887  13.235  0.00  0.00    +0.000 N 
ATOM     20  H   UNL     1       5.065   3.766  13.844  0.00  0.00    +0.000 HD
BRANCH  19  21
ATOM     21  C   UNL     1       5.800   3.395  11.864  0.00  0.00    +0.000 C 
ATOM     22  C   UNL     1       6.629   2.125  11.715  0.00  0.00    +0.000 C 
ATOM     23  C   UNL     1       4.355   3.151  11.432  0.00  0.00    +0.000 C 
ENDBRANCH  19  21
ENDBRANCH  16  17
ENDBRANCH   5  16
TORSDOF 7
ENDMDL
MODEL 4
REMARK VINA RESULT:      -6.2      1.701      2.178
REMARK  Name = 
REMARK  11 active torsions:
REMARK  status: ('A' for Active; 'I' for Inactive)
REMARK    1  A    between atoms: C_1  and  C_2
REMARK    2  A    between atoms: C_2  and  N_3
REMARK    3  A    between atoms: N_3  and  C_4
REMARK    4  A    between atoms: N_3  and  S_6
REMARK    5  A    between atoms: C_4  and  C_5
REMARK    6  A    between atoms: S_6  and  N_9
REMARK    7  A    between atoms: N_13  and  C_14
REMARK    8  A    between atoms: C_14  and  C_15
REMARK    9  A    between atoms: N_17  and  C_18
REMARK   10  A    between atoms: C_18  and  C_19
REMARK   11  A    between atoms: C_18  and  C_20
REMARK                            x       y       z     vdW  Elec       q    Type
REMARK                         _______ _______ _______ _____ _____    ______ ____
ROOT
ATOM      1  N   UNL     1       3.968   5.675  18.447  0.00  0.00    +0.000 NA
ATOM      2  C   UNL     1       3.909   5.728  16.958  0.00  0.00    +0.000 C 
ATOM      3  C   UNL     1       4.938   6.665  16.321  0.00  0.00    +0.000 C 
ATOM      4  C   UNL     1       6.422   6.630  16.722  0.00  0.00    +0.000 C 
ATOM      5  N   UNL     1       7.008   5.471  17.393  0.00  0.00    +0.000 NA
ATOM      6  C   UNL     1       6.464   5.325  18.750  0.00  0.00    +0.000 C 
ATOM      7  C   UNL     1       5.063   4.733  18.900  0.00  0.00    +0.000 C 
ENDROOT
BRANCH   1   8
ATOM      8  S   UNL     1       2.506   5.137  19.167  0.00  0.00    +0.000 S 
ATOM      9  O   UNL     1       1.533   4.954  18.113  0.00  0.00    +0.000 OA
ATOM     10  O   UNL     1       2.217   6.021  20.274  0.00  0.00    +0.000 OA
BRANCH   8  11
ATOM     11  N   UNL     1       2.853   3.603  19.803  0.00  0.00    +0.000 NA
BRANCH  11  13
ATOM     12  C   UNL     1       1.583   2.510  21.712  0.00  0.00    +0.000 C 
ATOM     13  C   UNL     1       2.553   3.589  21.277  0.00  0.00    +0.000 C 
ENDBRANCH  11  13
BRANCH  11  14
ATOM     14  C   UNL     1       2.363   2.415  19.054  0.00  0.00    +0.000 C 
ATOM     15  C   UNL     1       3.447   1.513  18.497  0.00  0.00    +0.000 C 
ENDBRANCH  11  14
ENDBRANCH   8  11
ENDBRANCH   1   8
BRANCH   5  16
ATOM     16  C   UNL     1       6.993   4.250  16.565  0.00  0.00    +0.000 C 
BRANCH  16  17
ATOM     17  C   UNL     1       7.071   4.555  15.062  0.00  0.00    +0.000 C 
ATOM     18  O   UNL     1       7.794   5.444  14.618  0.00  0.00    +0.000 OA
ATOM     19  N   UNL     1       6.284   3.750  14.268  0.00  0.00    +0.000 N 
ATOM     20  H   UNL     1       5.544   3.240  14.739  0.00  0.00    +0.000 HD
BRANCH  19  21
ATOM     21  C   UNL     1       6.205   3.944  12.825  0.00  0.00    +0.000 C 
ATOM     22  C   UNL     1       7.312   3.165  12.125  0.00  0.00    +0.000 C 
ATOM     23  C   UNL     1       4.834   3.539  12.284  0.00  0.00    +0.000 C 
ENDBRANCH  19  21
ENDBRANCH  16  17
ENDBRANCH   5  16
TORSDOF 7
ENDMDL
MODEL 5
REMARK VINA RESULT:      -6.1      1.420      2.223
REMARK  Name = 
REMARK  11 active torsions:
REMARK  status: ('A' for Active; 'I' for Inactive)
REMARK    1  A    between atoms: C_1  and  C_2
REMARK    2  A    between atoms: C_2  and  N_3
REMARK    3  A    between atoms: N_3  and  C_4
REMARK    4  A    between atoms: N_3  and  S_6
REMARK    5  A    between atoms: C_4  and  C_5
REMARK    6  A    between atoms: S_6  and  N_9
REMARK    7  A    between atoms: N_13  and  C_14
REMARK    8  A    between atoms: C_14  and  C_15
REMARK    9  A    between atoms: N_17  and  C_18
REMARK   10  A    between atoms: C_18  and  C_19
REMARK   11  A    between atoms: C_18  and  C_20
REMARK                            x       y       z     vdW  Elec       q    Type
REMARK                         _______ _______ _______ _____ _____    ______ ____
ROOT
ATOM      1  N   UNL     1       3.508   4.282  17.967  0.00  0.00    +0.000 NA
ATOM      2  C   UNL     1       3.233   5.696  17.586  0.00  0.00    +0.000 C 
ATOM      3  C   UNL     1       4.309   6.689  18.032  0.00  0.00    +0.000 C 
ATOM      4  C   UNL     1       5.804   6.427  17.784  0.00  0.00    +0.000 C 
ATOM      5  N   UNL     1       6.258   5.470  16.777  0.00  0.00    +0.000 NA
ATOM      6  C   UNL     1       5.910   4.098  17.170  0.00  0.00    +0.000 C 
ATOM      7  C   UNL     1       4.463   3.644  16.981  0.00  0.00    +0.000 C 
ENDROOT
BRANCH   1   8
ATOM      8  S   UNL     1       2.099   3.304  18.014  0.00  0.00    +0.000 S 
ATOM      9  O   UNL     1       2.471   1.967  17.608  0.00  0.00    +0.000 OA
ATOM     10  O   UNL     1       1.056   4.012  17.305  0.00  0.00    +0.000 OA
BRANCH   8  11
ATOM     11  N   UNL     1       1.655   3.227  19.650  0.00  0.00    +0.000 NA
BRANCH  11  13
ATOM     12  C   UNL     1       2.533   2.239  21.819  0.00  0.00    +0.000 C 
ATOM     13  C   UNL     1       2.857   2.874  20.483  0.00  0.00    +0.000 C 
ENDBRANCH  11  13
BRANCH  11  14
ATOM     14  C   UNL     1       0.819   4.330  20.194  0.00  0.00    +0.000 C 
ATOM     15  C   UNL     1       1.590   5.497  20.777  0.00  0.00    +0.000 C 
ENDBRANCH  11  14
ENDBRANCH   8  11
ENDBRANCH   1   8
BRANCH   5  16
ATOM     16  C   UNL     1       5.888   5.854  15.401  0.00  0.00    +0.000 C 
BRANCH  16  17
ATOM     17  C   UNL     1       6.633   5.033  14.338  0.00  0.00    +0.000 C 
ATOM     18  O   UNL     1       7.849   5.121  14.187  0.00  0.00    +0.000 OA
ATOM     19  N   UNL     1       5.835   4.195  13.591  0.00  0.00    +0.000 N 
ATOM     20  H   UNL     1       4.838   4.388  13.611  0.00  0.00    +0.000 HD
BRANCH  19  21
ATOM     21  C   UNL     1       6.380   3.387  12.507  0.00  0.00    +0.000 C 
ATOM     22  C   UNL     1       5.255   2.695  11.746  0.00  0.00    +0.000 C 
ATOM     23  C   UNL     1       7.233   4.230  11.560  0.00  0.00    +0.000 C 
ENDBRANCH  19  21
ENDBRANCH  16  17
ENDBRANCH   5  16
TORSDOF 7
ENDMDL
MODEL 6
REMARK VINA RESULT:      -6.1      1.649      2.155
REMARK  Name = 
REMARK  11 active torsions:
REMARK  status: ('A' for Active; 'I' for Inactive)
REMARK    1  A    between atoms: C_1  and  C_2
REMARK    2  A    between atoms: C_2  and  N_3
REMARK    3  A    between atoms: N_3  and  C_4
REMARK    4  A    between atoms: N_3  and  S_6
REMARK    5  A    between atoms: C_4  and  C_5
REMARK    6  A    between atoms: S_6  and  N_9
REMARK    7  A    between atoms: N_13  and  C_14
REMARK    8  A    between atoms: C_14  and  C_15
REMARK    9  A    between atoms: N_17  and  C_18
REMARK   10  A    between atoms: C_18  and  C_19
REMARK   11  A    between atoms: C_18  and  C_20
REMARK                            x       y       z     vdW  Elec       q    Type
REMARK                         _______ _______ _______ _____ _____    ______ ____
ROOT
ATOM      1  N   UNL     1       4.599   5.521  18.553  0.00  0.00    +0.000 NA
ATOM      2  C   UNL     1       4.169   5.508  17.125  0.00  0.00    +0.000 C 
ATOM      3  C   UNL     1       4.928   6.491  16.231  0.00  0.00    +0.000 C 
ATOM      4  C   UNL     1       6.462   6.582  16.249  0.00  0.00    +0.000 C 
ATOM      5  N   UNL     1       7.289   5.499  16.777  0.00  0.00    +0.000 NA
ATOM      6  C   UNL     1       7.111   5.370  18.230  0.00  0.00    +0.000 C 
ATOM      7  C   UNL     1       5.845   4.682  18.738  0.00  0.00    +0.000 C 
ENDROOT
BRANCH   1   8
ATOM      8  S   UNL     1       3.409   4.907  19.627  0.00  0.00    +0.000 S 
ATOM      9  O   UNL     1       2.410   5.934  19.818  0.00  0.00    +0.000 OA
ATOM     10  O   UNL     1       4.101   4.348  20.767  0.00  0.00    +0.000 OA
BRANCH   8  11
ATOM     11  N   UNL     1       2.664   3.630  18.794  0.00  0.00    +0.000 NA
BRANCH  11  13
ATOM     12  C   UNL     1       3.776   1.385  18.380  0.00  0.00    +0.000 C 
ATOM     13  C   UNL     1       3.116   2.318  19.373  0.00  0.00    +0.000 C 
ENDBRANCH  11  13
BRANCH  11  14
ATOM     14  C   UNL     1       1.203   3.729  18.536  0.00  0.00    +0.000 C 
ATOM     15  C   UNL     1       0.388   2.528  18.970  0.00  0.00    +0.000 C 
ENDBRANCH  11  14
ENDBRANCH   8  11
ENDBRANCH   1   8
BRANCH   5  16
ATOM     16  C   UNL     1       7.169   4.247  16.005  0.00  0.00    +0.000 C 
BRANCH  16  17
ATOM     17  C   UNL     1       7.136   4.488  14.489  0.00  0.00    +0.000 C 
ATOM     18  O   UNL     1       7.750   5.415  13.967  0.00  0.00    +0.000 OA
ATOM     19  N   UNL     1       6.381   3.583  13.777  0.00  0.00    +0.000 N 
ATOM     20  H   UNL     1       5.717   3.032  14.312  0.00  0.00    +0.000 HD
BRANCH  19  21
ATOM     21  C   UNL     1       6.204   3.703  12.335  0.00  0.00    +0.000 C 
ATOM     22  C   UNL     1       7.090   2.699  11.608  0.00  0.00    +0.000 C 
ATOM     23  C   UNL     1       4.740   3.520  11.937  0.00  0.00    +0.000 C 
ENDBRANCH  19  21
ENDBRANCH  16  17
ENDBRANCH   5  16
TORSDOF 7
ENDMDL
MODEL 7
REMARK VINA RESULT:      -6.1      0.897      1.040
REMARK  Name = 
REMARK  11 active torsions:
REMARK  status: ('A' for Active; 'I' for Inactive)
REMARK    1  A    between atoms: C_1  and  C_2
REMARK    2  A    between atoms: C_2  and  N_3
REMARK    3  A    between atoms: N_3  and  C_4
REMARK    4  A    between atoms: N_3  and  S_6
REMARK    5  A    between atoms: C_4  and  C_5
REMARK    6  A    between atoms: S_6  and  N_9
REMARK    7  A    between atoms: N_13  and  C_14
REMARK    8  A    between atoms: C_14  and  C_15
REMARK    9  A    between atoms: N_17  and  C_18
REMARK   10  A    between atoms: C_18  and  C_19
REMARK   11  A    between atoms: C_18  and  C_20
REMARK                            x       y       z     vdW  Elec       q    Type
REMARK                         _______ _______ _______ _____ _____    ______ ____
ROOT
ATOM      1  N   UNL     1       4.247   3.796  18.660  0.00  0.00    +0.000 NA
ATOM      2  C   UNL     1       3.956   3.481  17.232  0.00  0.00    +0.000 C 
ATOM      3  C   UNL     1       3.935   4.703  16.311  0.00  0.00    +0.000 C 
ATOM      4  C   UNL     1       5.058   5.752  16.331  0.00  0.00    +0.000 C 
ATOM      5  N   UNL     1       6.374   5.457  16.895  0.00  0.00    +0.000 NA
ATOM      6  C   UNL     1       6.286   5.275  18.351  0.00  0.00    +0.000 C 
ATOM      7  C   UNL     1       5.737   3.949  18.876  0.00  0.00    +0.000 C 
ENDROOT
BRANCH   1   8
ATOM      8  S   UNL     1       3.698   2.588  19.748  0.00  0.00    +0.000 S 
ATOM      9  O   UNL     1       4.611   2.549  20.868  0.00  0.00    +0.000 OA
ATOM     10  O   UNL     1       3.447   1.391  18.976  0.00  0.00    +0.000 OA
BRANCH   8  11
ATOM     11  N   UNL     1       2.207   3.150  20.334  0.00  0.00    +0.000 NA
BRANCH  11  13
ATOM     12  C   UNL     1       1.911   5.633  20.774  0.00  0.00    +0.000 C 
ATOM     13  C   UNL     1       2.437   4.303  21.271  0.00  0.00    +0.000 C 
ENDBRANCH  11  13
BRANCH  11  14
ATOM     14  C   UNL     1       1.108   3.350  19.352  0.00  0.00    +0.000 C 
ATOM     15  C   UNL     1       0.615   2.090  18.670  0.00  0.00    +0.000 C 
ENDBRANCH  11  14
ENDBRANCH   8  11
ENDBRANCH   1   8
BRANCH   5  16
ATOM     16  C   UNL     1       7.097   4.400  16.163  0.00  0.00    +0.000 C 
BRANCH  16  17
ATOM     17  C   UNL     1       7.071   4.611  14.642  0.00  0.00    +0.000 C 
ATOM     18  O   UNL     1       7.624   5.572  14.112  0.00  0.00    +0.000 OA
ATOM     19  N   UNL     1       6.396   3.641  13.936  0.00  0.00    +0.000 N 
ATOM     20  H   UNL     1       5.765   3.052  14.471  0.00  0.00    +0.000 HD
BRANCH  19  21
ATOM     21  C   UNL     1       6.234   3.722  12.489  0.00  0.00    +0.000 C 
ATOM     22  C   UNL     1       7.206   2.776  11.794  0.00  0.00    +0.000 C 
ATOM     23  C   UNL     1       4.795   3.420  12.072  0.00  0.00    +0.000 C 
ENDBRANCH  19  21
ENDBRANCH  16  17
ENDBRANCH   5  16
TORSDOF 7
ENDMDL
MODEL 8
REMARK VINA RESULT:      -5.9      1.888      2.411
REMARK  Name = 
REMARK  11 active torsions:
REMARK  status: ('A' for Active; 'I' for Inactive)
REMARK    1  A    between atoms: C_1  and  C_2
REMARK    2  A    between atoms: C_2  and  N_3
REMARK    3  A    between atoms: N_3  and  C_4
REMARK    4  A    between atoms: N_3  and  S_6
REMARK    5  A    between atoms: C_4  and  C_5
REMARK    6  A    between atoms: S_6  and  N_9
REMARK    7  A    between atoms: N_13  and  C_14
REMARK    8  A    between atoms: C_14  and  C_15
REMARK    9  A    between atoms: N_17  and  C_18
REMARK   10  A    between atoms: C_18  and  C_19
REMARK   11  A    between atoms: C_18  and  C_20
REMARK                            x       y       z     vdW  Elec       q    Type
REMARK                         _______ _______ _______ _____ _____    ______ ____
ROOT
ATOM      1  N   UNL     1       4.139   4.433  17.822  0.00  0.00    +0.000 NA
ATOM      2  C   UNL     1       4.473   5.873  17.630  0.00  0.00    +0.000 C 
ATOM      3  C   UNL     1       5.969   6.187  17.703  0.00  0.00    +0.000 C 
ATOM      4  C   UNL     1       7.007   5.365  16.921  0.00  0.00    +0.000 C 
ATOM      5  N   UNL     1       6.628   4.540  15.776  0.00  0.00    +0.000 NA
ATOM      6  C   UNL     1       5.802   3.403  16.205  0.00  0.00    +0.000 C 
ATOM      7  C   UNL     1       4.332   3.668  16.531  0.00  0.00    +0.000 C 
ENDROOT
BRANCH   1   8
ATOM      8  S   UNL     1       2.521   4.172  18.330  0.00  0.00    +0.000 S 
ATOM      9  O   UNL     1       1.749   3.780  17.171  0.00  0.00    +0.000 OA
ATOM     10  O   UNL     1       2.120   5.322  19.111  0.00  0.00    +0.000 OA
BRANCH   8  11
ATOM     11  N   UNL     1       2.583   2.833  19.370  0.00  0.00    +0.000 NA
BRANCH  11  13
ATOM     12  C   UNL     1       4.607   1.604  20.285  0.00  0.00    +0.000 C 
ATOM     13  C   UNL     1       3.831   2.901  20.206  0.00  0.00    +0.000 C 
ENDBRANCH  11  13
BRANCH  11  14
ATOM     14  C   UNL     1       1.347   2.479  20.118  0.00  0.00    +0.000 C 
ATOM     15  C   UNL     1       1.387   2.770  21.604  0.00  0.00    +0.000 C 
ENDBRANCH  11  14
ENDBRANCH   8  11
ENDBRANCH   1   8
BRANCH   5  16
ATOM     16  C   UNL     1       6.096   5.324  14.645  0.00  0.00    +0.000 C 
BRANCH  16  17
ATOM     17  C   UNL     1       6.308   4.628  13.292  0.00  0.00    +0.000 C 
ATOM     18  O   UNL     1       7.366   4.722  12.674  0.00  0.00    +0.000 OA
ATOM     19  N   UNL     1       5.232   3.893  12.846  0.00  0.00    +0.000 N 
ATOM     20  H   UNL     1       4.338   4.092  13.286  0.00  0.00    +0.000 HD
BRANCH  19  21
ATOM     21  C   UNL     1       5.252   3.215  11.556  0.00  0.00    +0.000 C 
ATOM     22  C   UNL     1       5.830   1.813  11.704  0.00  0.00    +0.000 C 
ATOM     23  C   UNL     1       3.858   3.162  10.933  0.00  0.00    +0.000 C 
ENDBRANCH  19  21
ENDBRANCH  16  17
ENDBRANCH   5  16
TORSDOF 7
ENDMDL
MODEL 9
REMARK VINA RESULT:      -5.8      5.092      7.646
REMARK  Name = 
REMARK  11 active torsions:
REMARK  status: ('A' for Active; 'I' for Inactive)
REMARK    1  A    between atoms: C_1  and  C_2
REMARK    2  A    between atoms: C_2  and  N_3
REMARK    3  A    between atoms: N_3  and  C_4
REMARK    4  A    between atoms: N_3  and  S_6
REMARK    5  A    between atoms: C_4  and  C_5
REMARK    6  A    between atoms: S_6  and  N_9
REMARK    7  A    between atoms: N_13  and  C_14
REMARK    8  A    between atoms: C_14  and  C_15
REMARK    9  A    between atoms: N_17  and  C_18
REMARK   10  A    between atoms: C_18  and  C_19
REMARK   11  A    between atoms: C_18  and  C_20
REMARK                            x       y       z     vdW  Elec       q    Type
REMARK                         _______ _______ _______ _____ _____    ______ ____
ROOT
ATOM      1  N   UNL     1       2.629   7.287  19.411  0.00  0.00    +0.000 NA
ATOM      2  C   UNL     1       1.495   7.112  20.363  0.00  0.00    +0.000 C 
ATOM      3  C   UNL     1       1.224   8.331  21.248  0.00  0.00    +0.000 C 
ATOM      4  C   UNL     1       1.120   9.749  20.663  0.00  0.00    +0.000 C 
ATOM      5  N   UNL     1       0.859   9.976  19.244  0.00  0.00    +0.000 NA
ATOM      6  C   UNL     1       2.002   9.541  18.428  0.00  0.00    +0.000 C 
ATOM      7  C   UNL     1       2.176   8.043  18.180  0.00  0.00    +0.000 C 
ENDROOT
BRANCH   1   8
ATOM      8  S   UNL     1       3.301   5.802  18.874  0.00  0.00    +0.000 S 
ATOM      9  O   UNL     1       4.568   5.618  19.548  0.00  0.00    +0.000 OA
ATOM     10  O   UNL     1       3.242   5.796  17.429  0.00  0.00    +0.000 OA
BRANCH   8  11
ATOM     11  N   UNL     1       2.249   4.598  19.443  0.00  0.00    +0.000 NA
BRANCH  11  13
ATOM     12  C   UNL     1       0.863   2.660  18.565  0.00  0.00    +0.000 C 
ATOM     13  C   UNL     1       1.479   4.015  18.290  0.00  0.00    +0.000 C 
ENDBRANCH  11  13
BRANCH  11  14
ATOM     14  C   UNL     1       2.793   3.598  20.401  0.00  0.00    +0.000 C 
ATOM     15  C   UNL     1       2.141   3.596  21.769  0.00  0.00    +0.000 C 
ENDBRANCH  11  14
ENDBRANCH   8  11
ENDBRANCH   1   8
BRANCH   5  16
ATOM     16  C   UNL     1      -0.461   9.480  18.808  0.00  0.00    +0.000 C 
BRANCH  16  17
ATOM     17  C   UNL     1      -1.225  10.504  17.957  0.00  0.00    +0.000 C 
ATOM     18  O   UNL     1      -1.121  11.713  18.149  0.00  0.00    +0.000 OA
ATOM     19  N   UNL     1      -2.015   9.958  16.968  0.00  0.00    +0.000 N 
ATOM     20  H   UNL     1      -2.234   8.972  17.062  0.00  0.00    +0.000 HD
BRANCH  19  21
ATOM     21  C   UNL     1      -2.845  10.791  16.107  0.00  0.00    +0.000 C 
ATOM     22  C   UNL     1      -2.948  10.177  14.717  0.00  0.00    +0.000 C 
ATOM     23  C   UNL     1      -4.234  11.002  16.709  0.00  0.00    +0.000 C 
ENDBRANCH  19  21
ENDBRANCH  16  17
ENDBRANCH   5  16
TORSDOF 7
ENDMDL
