MODEL 1
REMARK VINA RESULT:      -8.4      0.000      0.000
REMARK  Name = 
REMARK  4 active torsions:
REMARK  status: ('A' for Active; 'I' for Inactive)
REMARK    1  A    between atoms: C_1  and  N_2
REMARK    2  A    between atoms: N_2  and  C_15
REMARK    3  A    between atoms: C_3  and  C_5
REMARK    4  A    between atoms: C_9  and  C_10
REMARK                            x       y       z     vdW  Elec       q    Type
REMARK                         _______ _______ _______ _____ _____    ______ ____
ROOT
ATOM      1  C   UNL     1      -0.941  12.211  21.868  0.00  0.00    +0.000 C 
ATOM      2  C   UNL     1      -0.107  12.859  20.768  0.00  0.00    +0.000 C 
ATOM      3  C   UNL     1       1.203  12.165  20.649  0.00  0.00    +0.000 C 
ATOM      4  N   UNL     1       0.996  10.821  20.250  0.00  0.00    +0.000 NA
ATOM      5  C   UNL     1       0.232  10.510  19.029  0.00  0.00    +0.000 C 
ATOM      6  C   UNL     1       1.243   9.747  18.193  0.00  0.00    +0.000 C 
ATOM      7  C   UNL     1       1.706   8.632  19.064  0.00  0.00    +0.000 A 
ATOM      8  C   UNL     1       1.246   8.499  20.409  0.00  0.00    +0.000 A 
ATOM      9  N   UNL     1       1.729   7.222  20.740  0.00  0.00    +0.000 N 
ATOM     10  C   UNL     1       2.430   6.620  19.643  0.00  0.00    +0.000 A 
ATOM     11  C   UNL     1       2.933   5.335  19.404  0.00  0.00    +0.000 A 
ATOM     12  C   UNL     1       3.709   5.095  18.230  0.00  0.00    +0.000 A 
ATOM     13  C   UNL     1       4.053   6.133  17.375  0.00  0.00    +0.000 A 
ATOM     14  C   UNL     1       3.507   7.414  17.603  0.00  0.00    +0.000 A 
ATOM     15  C   UNL     1       2.620   7.624  18.702  0.00  0.00    +0.000 A 
ATOM     16  C   UNL     1       0.686   9.850  21.290  0.00  0.00    +0.000 C 
ATOM     17  C   UNL     1      -0.832  10.453  21.753  0.00  0.00    +0.000 C 
ATOM     18  H   UNL     1       1.616   6.743  21.622  0.00  0.00    +0.000 HD
ENDROOT
BRANCH   1  20
ATOM     19  C   UNL     1      -2.028  14.274  23.004  0.00  0.00    +0.000 C 
ATOM     20  N   UNL     1      -2.194  13.180  22.004  0.00  0.00    +0.000 N 
ATOM     21  C   UNL     1      -2.971  13.698  20.921  0.00  0.00    +0.000 C 
ATOM     22  O   UNL     1      -3.178  14.896  20.733  0.00  0.00    +0.000 OA
BRANCH  21  23
ATOM     23  C   UNL     1      -3.689  12.751  20.074  0.00  0.00    +0.000 A 
ATOM     24  C   UNL     1      -5.039  12.489  20.303  0.00  0.00    +0.000 A 
ATOM     25  C   UNL     1      -5.705  11.551  19.505  0.00  0.00    +0.000 A 
ATOM     26  C   UNL     1      -5.033  10.925  18.449  0.00  0.00    +0.000 A 
ATOM     27  C   UNL     1      -3.698  11.262  18.166  0.00  0.00    +0.000 A 
ATOM     28  C   UNL     1      -3.049  12.213  18.946  0.00  0.00    +0.000 A 
BRANCH  27  29
ATOM     29  C   UNL     1      -2.985  10.623  16.990  0.00  0.00    +0.000 C 
ATOM     30  F   UNL     1      -3.841  10.186  16.018  0.00  0.00    +0.000 F 
ATOM     31  F   UNL     1      -2.093  11.442  16.373  0.00  0.00    +0.000 F 
ATOM     32  F   UNL     1      -2.277   9.512  17.373  0.00  0.00    +0.000 F 
ENDBRANCH  27  29
ENDBRANCH  21  23
ENDBRANCH   1  20
TORSDOF 3
ENDMDL
MODEL 2
REMARK VINA RESULT:      -8.1      1.657      2.120
REMARK  Name = 
REMARK  4 active torsions:
REMARK  status: ('A' for Active; 'I' for Inactive)
REMARK    1  A    between atoms: C_1  and  N_2
REMARK    2  A    between atoms: N_2  and  C_15
REMARK    3  A    between atoms: C_3  and  C_5
REMARK    4  A    between atoms: C_9  and  C_10
REMARK                            x       y       z     vdW  Elec       q    Type
REMARK                         _______ _______ _______ _____ _____    ______ ____
ROOT
ATOM      1  C   UNL     1      -0.761  11.725  21.664  0.00  0.00    +0.000 C 
ATOM      2  C   UNL     1       0.082  12.445  20.617  0.00  0.00    +0.000 C 
ATOM      3  C   UNL     1       1.411  11.787  20.498  0.00  0.00    +0.000 C 
ATOM      4  N   UNL     1       1.245  10.460  20.029  0.00  0.00    +0.000 NA
ATOM      5  C   UNL     1       0.518  10.192  18.776  0.00  0.00    +0.000 C 
ATOM      6  C   UNL     1       1.566   9.493  17.930  0.00  0.00    +0.000 C 
ATOM      7  C   UNL     1       2.035   8.348  18.756  0.00  0.00    +0.000 A 
ATOM      8  C   UNL     1       1.547   8.139  20.082  0.00  0.00    +0.000 A 
ATOM      9  N   UNL     1       2.052   6.859  20.363  0.00  0.00    +0.000 N 
ATOM     10  C   UNL     1       2.793   6.327  19.256  0.00  0.00    +0.000 A 
ATOM     11  C   UNL     1       3.332   5.067  18.968  0.00  0.00    +0.000 A 
ATOM     12  C   UNL     1       4.141   4.903  17.803  0.00  0.00    +0.000 A 
ATOM     13  C   UNL     1       4.480   5.989  17.008  0.00  0.00    +0.000 A 
ATOM     14  C   UNL     1       3.899   7.244  17.283  0.00  0.00    +0.000 A 
ATOM     15  C   UNL     1       2.981   7.380  18.369  0.00  0.00    +0.000 A 
ATOM     16  C   UNL     1       0.935   9.433  21.013  0.00  0.00    +0.000 C 
ATOM     17  C   UNL     1      -0.608   9.977  21.467  0.00  0.00    +0.000 C 
ATOM     18  H   UNL     1       1.930   6.335  21.217  0.00  0.00    +0.000 HD
ENDROOT
BRANCH   1  20
ATOM     19  C   UNL     1      -1.986  13.605  22.966  0.00  0.00    +0.000 C 
ATOM     20  N   UNL     1      -2.040  12.657  21.816  0.00  0.00    +0.000 N 
ATOM     21  C   UNL     1      -2.727  13.315  20.747  0.00  0.00    +0.000 C 
ATOM     22  O   UNL     1      -2.939  14.525  20.707  0.00  0.00    +0.000 OA
BRANCH  21  23
ATOM     23  C   UNL     1      -3.348  12.488  19.717  0.00  0.00    +0.000 A 
ATOM     24  C   UNL     1      -2.559  11.823  18.781  0.00  0.00    +0.000 A 
ATOM     25  C   UNL     1      -3.172  11.062  17.777  0.00  0.00    +0.000 A 
ATOM     26  C   UNL     1      -4.564  10.925  17.753  0.00  0.00    +0.000 A 
ATOM     27  C   UNL     1      -5.348  11.523  18.755  0.00  0.00    +0.000 A 
ATOM     28  C   UNL     1      -4.733  12.256  19.763  0.00  0.00    +0.000 A 
BRANCH  27  29
ATOM     29  C   UNL     1      -6.853  11.332  18.759  0.00  0.00    +0.000 C 
ATOM     30  F   UNL     1      -7.423  11.595  19.972  0.00  0.00    +0.000 F 
ATOM     31  F   UNL     1      -7.510  12.101  17.853  0.00  0.00    +0.000 F 
ATOM     32  F   UNL     1      -7.196  10.034  18.474  0.00  0.00    +0.000 F 
ENDBRANCH  27  29
ENDBRANCH  21  23
ENDBRANCH   1  20
TORSDOF 3
ENDMDL
MODEL 3
REMARK VINA RESULT:      -8.0      1.058      1.363
REMARK  Name = 
REMARK  4 active torsions:
REMARK  status: ('A' for Active; 'I' for Inactive)
REMARK    1  A    between atoms: C_1  and  N_2
REMARK    2  A    between atoms: N_2  and  C_15
REMARK    3  A    between atoms: C_3  and  C_5
REMARK    4  A    between atoms: C_9  and  C_10
REMARK                            x       y       z     vdW  Elec       q    Type
REMARK                         _______ _______ _______ _____ _____    ______ ____
ROOT
ATOM      1  C   UNL     1      -1.563  12.819  22.560  0.00  0.00    +0.000 C 
ATOM      2  C   UNL     1      -0.949  13.480  21.331  0.00  0.00    +0.000 C 
ATOM      3  C   UNL     1       0.392  12.897  21.058  0.00  0.00    +0.000 C 
ATOM      4  N   UNL     1       0.258  11.523  20.743  0.00  0.00    +0.000 NA
ATOM      5  C   UNL     1      -0.631  11.085  19.652  0.00  0.00    +0.000 C 
ATOM      6  C   UNL     1       0.324  10.372  18.714  0.00  0.00    +0.000 C 
ATOM      7  C   UNL     1       1.001   9.346  19.553  0.00  0.00    +0.000 A 
ATOM      8  C   UNL     1       0.742   9.242  20.953  0.00  0.00    +0.000 A 
ATOM      9  N   UNL     1       1.381   8.030  21.261  0.00  0.00    +0.000 N 
ATOM     10  C   UNL     1       1.981   7.436  20.102  0.00  0.00    +0.000 A 
ATOM     11  C   UNL     1       2.564   6.190  19.844  0.00  0.00    +0.000 A 
ATOM     12  C   UNL     1       3.193   5.959  18.583  0.00  0.00    +0.000 A 
ATOM     13  C   UNL     1       3.321   6.979  17.650  0.00  0.00    +0.000 A 
ATOM     14  C   UNL     1       2.695   8.218  17.903  0.00  0.00    +0.000 A 
ATOM     15  C   UNL     1       1.948   8.404  19.106  0.00  0.00    +0.000 A 
ATOM     16  C   UNL     1       0.183  10.582  21.851  0.00  0.00    +0.000 C 
ATOM     17  C   UNL     1      -1.308  11.073  22.498  0.00  0.00    +0.000 C 
ATOM     18  H   UNL     1       1.434   7.588  22.168  0.00  0.00    +0.000 HD
ENDROOT
BRANCH   1  20
ATOM     19  C   UNL     1      -2.702  14.765  23.843  0.00  0.00    +0.000 C 
ATOM     20  N   UNL     1      -2.870  13.681  22.833  0.00  0.00    +0.000 N 
ATOM     21  C   UNL     1      -3.780  14.156  21.836  0.00  0.00    +0.000 C 
ATOM     22  O   UNL     1      -4.097  15.337  21.700  0.00  0.00    +0.000 OA
BRANCH  21  23
ATOM     23  C   UNL     1      -4.496  13.171  21.032  0.00  0.00    +0.000 A 
ATOM     24  C   UNL     1      -5.773  12.755  21.404  0.00  0.00    +0.000 A 
ATOM     25  C   UNL     1      -6.432  11.783  20.641  0.00  0.00    +0.000 A 
ATOM     26  C   UNL     1      -5.834  11.277  19.482  0.00  0.00    +0.000 A 
ATOM     27  C   UNL     1      -4.585  11.767  19.063  0.00  0.00    +0.000 A 
ATOM     28  C   UNL     1      -3.947  12.751  19.809  0.00  0.00    +0.000 A 
BRANCH  27  29
ATOM     29  C   UNL     1      -3.960  11.257  17.778  0.00  0.00    +0.000 C 
ATOM     30  F   UNL     1      -3.569   9.950  17.855  0.00  0.00    +0.000 F 
ATOM     31  F   UNL     1      -4.773  11.349  16.694  0.00  0.00    +0.000 F 
ATOM     32  F   UNL     1      -2.822  11.955  17.460  0.00  0.00    +0.000 F 
ENDBRANCH  27  29
ENDBRANCH  21  23
ENDBRANCH   1  20
TORSDOF 3
ENDMDL
MODEL 4
REMARK VINA RESULT:      -8.0      1.610      2.251
REMARK  Name = 
REMARK  4 active torsions:
REMARK  status: ('A' for Active; 'I' for Inactive)
REMARK    1  A    between atoms: C_1  and  N_2
REMARK    2  A    between atoms: N_2  and  C_15
REMARK    3  A    between atoms: C_3  and  C_5
REMARK    4  A    between atoms: C_9  and  C_10
REMARK                            x       y       z     vdW  Elec       q    Type
REMARK                         _______ _______ _______ _____ _____    ______ ____
ROOT
ATOM      1  C   UNL     1      -2.295  13.265  22.885  0.00  0.00    +0.000 C 
ATOM      2  C   UNL     1      -1.791  13.982  21.637  0.00  0.00    +0.000 C 
ATOM      3  C   UNL     1      -0.424  13.505  21.296  0.00  0.00    +0.000 C 
ATOM      4  N   UNL     1      -0.467  12.127  20.971  0.00  0.00    +0.000 NA
ATOM      5  C   UNL     1      -1.370  11.632  19.917  0.00  0.00    +0.000 C 
ATOM      6  C   UNL     1      -0.408  11.001  18.928  0.00  0.00    +0.000 C 
ATOM      7  C   UNL     1       0.384  10.024  19.723  0.00  0.00    +0.000 A 
ATOM      8  C   UNL     1       0.198   9.888  21.132  0.00  0.00    +0.000 A 
ATOM      9  N   UNL     1       0.942   8.726  21.397  0.00  0.00    +0.000 N 
ATOM     10  C   UNL     1       1.530   8.190  20.205  0.00  0.00    +0.000 A 
ATOM     11  C   UNL     1       2.194   6.994  19.906  0.00  0.00    +0.000 A 
ATOM     12  C   UNL     1       2.779   6.822  18.615  0.00  0.00    +0.000 A 
ATOM     13  C   UNL     1       2.785   7.856  17.689  0.00  0.00    +0.000 A 
ATOM     14  C   UNL     1       2.079   9.041  17.985  0.00  0.00    +0.000 A 
ATOM     15  C   UNL     1       1.378   9.160  19.222  0.00  0.00    +0.000 A 
ATOM     16  C   UNL     1      -0.418  11.174  22.071  0.00  0.00    +0.000 C 
ATOM     17  C   UNL     1      -1.911  11.544  22.791  0.00  0.00    +0.000 C 
ATOM     18  H   UNL     1       1.070   8.282  22.295  0.00  0.00    +0.000 HD
ENDROOT
BRANCH   1  20
ATOM     19  C   UNL     1      -3.517  15.111  24.237  0.00  0.00    +0.000 C 
ATOM     20  N   UNL     1      -3.650  14.022  23.227  0.00  0.00    +0.000 N 
ATOM     21  C   UNL     1      -4.641  14.431  22.279  0.00  0.00    +0.000 C 
ATOM     22  O   UNL     1      -5.053  15.585  22.169  0.00  0.00    +0.000 OA
BRANCH  21  23
ATOM     23  C   UNL     1      -5.316  13.398  21.501  0.00  0.00    +0.000 A 
ATOM     24  C   UNL     1      -6.410  12.720  22.035  0.00  0.00    +0.000 A 
ATOM     25  C   UNL     1      -7.025  11.706  21.289  0.00  0.00    +0.000 A 
ATOM     26  C   UNL     1      -6.579  11.419  19.995  0.00  0.00    +0.000 A 
ATOM     27  C   UNL     1      -5.534  12.169  19.428  0.00  0.00    +0.000 A 
ATOM     28  C   UNL     1      -4.944  13.191  20.163  0.00  0.00    +0.000 A 
BRANCH  27  29
ATOM     29  C   UNL     1      -5.085  11.893  18.005  0.00  0.00    +0.000 C 
ATOM     30  F   UNL     1      -5.593  12.782  17.101  0.00  0.00    +0.000 F 
ATOM     31  F   UNL     1      -3.737  11.907  17.839  0.00  0.00    +0.000 F 
ATOM     32  F   UNL     1      -5.507  10.660  17.575  0.00  0.00    +0.000 F 
ENDBRANCH  27  29
ENDBRANCH  21  23
ENDBRANCH   1  20
TORSDOF 3
ENDMDL
MODEL 5
REMARK VINA RESULT:      -8.0      1.831      2.319
REMARK  Name = 
REMARK  4 active torsions:
REMARK  status: ('A' for Active; 'I' for Inactive)
REMARK    1  A    between atoms: C_1  and  N_2
REMARK    2  A    between atoms: N_2  and  C_15
REMARK    3  A    between atoms: C_3  and  C_5
REMARK    4  A    between atoms: C_9  and  C_10
REMARK                            x       y       z     vdW  Elec       q    Type
REMARK                         _______ _______ _______ _____ _____    ______ ____
ROOT
ATOM      1  C   UNL     1      -0.745  12.239  21.937  0.00  0.00    +0.000 C 
ATOM      2  C   UNL     1       0.070  12.865  20.810  0.00  0.00    +0.000 C 
ATOM      3  C   UNL     1       1.363  12.146  20.660  0.00  0.00    +0.000 C 
ATOM      4  N   UNL     1       1.120  10.805  20.274  0.00  0.00    +0.000 NA
ATOM      5  C   UNL     1       0.317  10.501  19.076  0.00  0.00    +0.000 C 
ATOM      6  C   UNL     1       1.291   9.715  18.218  0.00  0.00    +0.000 C 
ATOM      7  C   UNL     1       1.756   8.596  19.081  0.00  0.00    +0.000 A 
ATOM      8  C   UNL     1       1.331   8.479  20.439  0.00  0.00    +0.000 A 
ATOM      9  N   UNL     1       1.800   7.195  20.764  0.00  0.00    +0.000 N 
ATOM     10  C   UNL     1       2.459   6.574  19.653  0.00  0.00    +0.000 A 
ATOM     11  C   UNL     1       2.932   5.279  19.407  0.00  0.00    +0.000 A 
ATOM     12  C   UNL     1       3.670   5.019  18.213  0.00  0.00    +0.000 A 
ATOM     13  C   UNL     1       4.009   6.045  17.343  0.00  0.00    +0.000 A 
ATOM     14  C   UNL     1       3.494   7.338  17.579  0.00  0.00    +0.000 A 
ATOM     15  C   UNL     1       2.642   7.569  18.700  0.00  0.00    +0.000 A 
ATOM     16  C   UNL     1       0.822   9.845  21.327  0.00  0.00    +0.000 C 
ATOM     17  C   UNL     1      -0.672  10.478  21.829  0.00  0.00    +0.000 C 
ATOM     18  H   UNL     1       1.703   6.723  21.652  0.00  0.00    +0.000 HD
ENDROOT
BRANCH   1  20
ATOM     19  C   UNL     1      -1.783  14.296  23.129  0.00  0.00    +0.000 C 
ATOM     20  N   UNL     1      -1.975  13.232  22.102  0.00  0.00    +0.000 N 
ATOM     21  C   UNL     1      -2.744  13.795  21.034  0.00  0.00    +0.000 C 
ATOM     22  O   UNL     1      -2.924  15.002  20.879  0.00  0.00    +0.000 OA
BRANCH  21  23
ATOM     23  C   UNL     1      -3.485  12.886  20.166  0.00  0.00    +0.000 A 
ATOM     24  C   UNL     1      -2.840  12.239  19.114  0.00  0.00    +0.000 A 
ATOM     25  C   UNL     1      -3.574  11.397  18.268  0.00  0.00    +0.000 A 
ATOM     26  C   UNL     1      -4.931  11.166  18.514  0.00  0.00    +0.000 A 
ATOM     27  C   UNL     1      -5.554  11.750  19.631  0.00  0.00    +0.000 A 
ATOM     28  C   UNL     1      -4.815  12.564  20.482  0.00  0.00    +0.000 A 
BRANCH  27  29
ATOM     29  C   UNL     1      -7.012  11.458  19.928  0.00  0.00    +0.000 C 
ATOM     30  F   UNL     1      -7.871  12.108  19.087  0.00  0.00    +0.000 F 
ATOM     31  F   UNL     1      -7.336  10.140  19.861  0.00  0.00    +0.000 F 
ATOM     32  F   UNL     1      -7.362  11.871  21.190  0.00  0.00    +0.000 F 
ENDBRANCH  27  29
ENDBRANCH  21  23
ENDBRANCH   1  20
TORSDOF 3
ENDMDL
MODEL 6
REMARK VINA RESULT:      -7.9      2.319      3.560
REMARK  Name = 
REMARK  4 active torsions:
REMARK  status: ('A' for Active; 'I' for Inactive)
REMARK    1  A    between atoms: C_1  and  N_2
REMARK    2  A    between atoms: N_2  and  C_15
REMARK    3  A    between atoms: C_3  and  C_5
REMARK    4  A    between atoms: C_9  and  C_10
REMARK                            x       y       z     vdW  Elec       q    Type
REMARK                         _______ _______ _______ _____ _____    ______ ____
ROOT
ATOM      1  C   UNL     1      -3.336  13.950  23.216  0.00  0.00    +0.000 C 
ATOM      2  C   UNL     1      -2.927  14.651  21.925  0.00  0.00    +0.000 C 
ATOM      3  C   UNL     1      -1.534  14.274  21.563  0.00  0.00    +0.000 C 
ATOM      4  N   UNL     1      -1.472  12.884  21.296  0.00  0.00    +0.000 NA
ATOM      5  C   UNL     1      -2.358  12.271  20.291  0.00  0.00    +0.000 C 
ATOM      6  C   UNL     1      -1.373  11.679  19.300  0.00  0.00    +0.000 C 
ATOM      7  C   UNL     1      -0.482  10.806  20.110  0.00  0.00    +0.000 A 
ATOM      8  C   UNL     1      -0.618  10.717  21.528  0.00  0.00    +0.000 A 
ATOM      9  N   UNL     1       0.227   9.632  21.818  0.00  0.00    +0.000 N 
ATOM     10  C   UNL     1       0.826   9.095  20.631  0.00  0.00    +0.000 A 
ATOM     11  C   UNL     1       1.579   7.946  20.361  0.00  0.00    +0.000 A 
ATOM     12  C   UNL     1       2.142   7.768  19.061  0.00  0.00    +0.000 A 
ATOM     13  C   UNL     1       2.037   8.758  18.094  0.00  0.00    +0.000 A 
ATOM     14  C   UNL     1       1.242   9.892  18.362  0.00  0.00    +0.000 A 
ATOM     15  C   UNL     1       0.567  10.007  19.614  0.00  0.00    +0.000 A 
ATOM     16  C   UNL     1      -1.314  11.987  22.432  0.00  0.00    +0.000 C 
ATOM     17  C   UNL     1      -2.812  12.264  23.181  0.00  0.00    +0.000 C 
ATOM     18  H   UNL     1       0.416   9.240  22.729  0.00  0.00    +0.000 HD
ENDROOT
BRANCH   1  20
ATOM     19  C   UNL     1      -4.654  15.893  24.319  0.00  0.00    +0.000 C 
ATOM     20  N   UNL     1      -4.740  14.607  23.568  0.00  0.00    +0.000 N 
ATOM     21  C   UNL     1      -5.865  14.694  22.689  0.00  0.00    +0.000 C 
ATOM     22  O   UNL     1      -6.437  15.745  22.406  0.00  0.00    +0.000 OA
BRANCH  21  23
ATOM     23  C   UNL     1      -6.470  13.451  22.221  0.00  0.00    +0.000 A 
ATOM     24  C   UNL     1      -7.367  12.758  23.031  0.00  0.00    +0.000 A 
ATOM     25  C   UNL     1      -7.911  11.548  22.581  0.00  0.00    +0.000 A 
ATOM     26  C   UNL     1      -7.599  11.071  21.304  0.00  0.00    +0.000 A 
ATOM     27  C   UNL     1      -6.764  11.821  20.457  0.00  0.00    +0.000 A 
ATOM     28  C   UNL     1      -6.248  13.033  20.898  0.00  0.00    +0.000 A 
BRANCH  27  29
ATOM     29  C   UNL     1      -6.467  11.329  19.053  0.00  0.00    +0.000 C 
ATOM     30  F   UNL     1      -6.645   9.982  18.908  0.00  0.00    +0.000 F 
ATOM     31  F   UNL     1      -7.221  11.919  18.089  0.00  0.00    +0.000 F 
ATOM     32  F   UNL     1      -5.160  11.559  18.705  0.00  0.00    +0.000 F 
ENDBRANCH  27  29
ENDBRANCH  21  23
ENDBRANCH   1  20
TORSDOF 3
ENDMDL
MODEL 7
REMARK VINA RESULT:      -7.5      7.396     10.550
REMARK  Name = 
REMARK  4 active torsions:
REMARK  status: ('A' for Active; 'I' for Inactive)
REMARK    1  A    between atoms: C_1  and  N_2
REMARK    2  A    between atoms: N_2  and  C_15
REMARK    3  A    between atoms: C_3  and  C_5
REMARK    4  A    between atoms: C_9  and  C_10
REMARK                            x       y       z     vdW  Elec       q    Type
REMARK                         _______ _______ _______ _____ _____    ______ ____
ROOT
ATOM      1  C   UNL     1       7.516  15.869  18.055  0.00  0.00    +0.000 C 
ATOM      2  C   UNL     1       6.951  16.805  19.118  0.00  0.00    +0.000 C 
ATOM      3  C   UNL     1       5.498  17.021  18.882  0.00  0.00    +0.000 C 
ATOM      4  N   UNL     1       4.805  15.794  19.026  0.00  0.00    +0.000 NA
ATOM      5  C   UNL     1       4.926  15.002  20.263  0.00  0.00    +0.000 C 
ATOM      6  C   UNL     1       3.492  14.934  20.753  0.00  0.00    +0.000 C 
ATOM      7  C   UNL     1       2.716  14.380  19.611  0.00  0.00    +0.000 A 
ATOM      8  C   UNL     1       3.338  14.096  18.358  0.00  0.00    +0.000 A 
ATOM      9  N   UNL     1       2.320  13.385  17.700  0.00  0.00    +0.000 N 
ATOM     10  C   UNL     1       1.155  13.242  18.524  0.00  0.00    +0.000 A 
ATOM     11  C   UNL     1      -0.024  12.497  18.412  0.00  0.00    +0.000 A 
ATOM     12  C   UNL     1      -1.063  12.683  19.374  0.00  0.00    +0.000 A 
ATOM     13  C   UNL     1      -0.961  13.657  20.358  0.00  0.00    +0.000 A 
ATOM     14  C   UNL     1       0.247  14.373  20.487  0.00  0.00    +0.000 A 
ATOM     15  C   UNL     1       1.337  14.091  19.609  0.00  0.00    +0.000 A 
ATOM     16  C   UNL     1       4.760  14.907  17.872  0.00  0.00    +0.000 C 
ATOM     17  C   UNL     1       6.411  14.518  17.789  0.00  0.00    +0.000 C 
ATOM     18  H   UNL     1       2.359  12.998  16.768  0.00  0.00    +0.000 HD
ENDROOT
BRANCH   1  20
ATOM     19  C   UNL     1       9.776  17.113  17.780  0.00  0.00    +0.000 C 
ATOM     20  N   UNL     1       9.083  15.908  18.321  0.00  0.00    +0.000 N 
ATOM     21  C   UNL     1       9.732  15.548  19.544  0.00  0.00    +0.000 C 
ATOM     22  O   UNL     1      10.500  16.287  20.159  0.00  0.00    +0.000 OA
BRANCH  21  23
ATOM     23  C   UNL     1       9.602  14.173  20.013  0.00  0.00    +0.000 A 
ATOM     24  C   UNL     1       9.473  13.906  21.375  0.00  0.00    +0.000 A 
ATOM     25  C   UNL     1       9.385  12.578  21.813  0.00  0.00    +0.000 A 
ATOM     26  C   UNL     1       9.369  11.533  20.884  0.00  0.00    +0.000 A 
ATOM     27  C   UNL     1       9.407  11.815  19.506  0.00  0.00    +0.000 A 
ATOM     28  C   UNL     1       9.469  13.135  19.077  0.00  0.00    +0.000 A 
BRANCH  27  29
ATOM     29  C   UNL     1       9.337  10.685  18.497  0.00  0.00    +0.000 C 
ATOM     30  F   UNL     1      10.359  10.712  17.590  0.00  0.00    +0.000 F 
ATOM     31  F   UNL     1       9.352   9.445  19.053  0.00  0.00    +0.000 F 
ATOM     32  F   UNL     1       8.189  10.750  17.747  0.00  0.00    +0.000 F 
ENDBRANCH  27  29
ENDBRANCH  21  23
ENDBRANCH   1  20
TORSDOF 3
ENDMDL
MODEL 8
REMARK VINA RESULT:      -7.3      7.494     10.395
REMARK  Name = 
REMARK  4 active torsions:
REMARK  status: ('A' for Active; 'I' for Inactive)
REMARK    1  A    between atoms: C_1  and  N_2
REMARK    2  A    between atoms: N_2  and  C_15
REMARK    3  A    between atoms: C_3  and  C_5
REMARK    4  A    between atoms: C_9  and  C_10
REMARK                            x       y       z     vdW  Elec       q    Type
REMARK                         _______ _______ _______ _____ _____    ______ ____
ROOT
ATOM      1  C   UNL     1       6.809  16.202  18.348  0.00  0.00    +0.000 C 
ATOM      2  C   UNL     1       6.043  16.937  19.443  0.00  0.00    +0.000 C 
ATOM      3  C   UNL     1       4.579  16.812  19.209  0.00  0.00    +0.000 C 
ATOM      4  N   UNL     1       4.197  15.451  19.304  0.00  0.00    +0.000 NA
ATOM      5  C   UNL     1       4.509  14.665  20.511  0.00  0.00    +0.000 C 
ATOM      6  C   UNL     1       3.134  14.240  20.992  0.00  0.00    +0.000 C 
ATOM      7  C   UNL     1       2.506  13.561  19.826  0.00  0.00    +0.000 A 
ATOM      8  C   UNL     1       3.171  13.480  18.566  0.00  0.00    +0.000 A 
ATOM      9  N   UNL     1       2.347  12.574  17.877  0.00  0.00    +0.000 N 
ATOM     10  C   UNL     1       1.254  12.128  18.691  0.00  0.00    +0.000 A 
ATOM     11  C   UNL     1       0.283  11.129  18.546  0.00  0.00    +0.000 A 
ATOM     12  C   UNL     1      -0.765  11.027  19.510  0.00  0.00    +0.000 A 
ATOM     13  C   UNL     1      -0.892  11.960  20.530  0.00  0.00    +0.000 A 
ATOM     14  C   UNL     1       0.113  12.937  20.691  0.00  0.00    +0.000 A 
ATOM     15  C   UNL     1       1.235  12.955  19.807  0.00  0.00    +0.000 A 
ATOM     16  C   UNL     1       4.358  14.623  18.117  0.00  0.00    +0.000 C 
ATOM     17  C   UNL     1       6.054  14.639  18.026  0.00  0.00    +0.000 C 
ATOM     18  H   UNL     1       2.472  12.242  16.932  0.00  0.00    +0.000 HD
ENDROOT
BRANCH   1  20
ATOM     19  C   UNL     1       8.664  18.015  18.288  0.00  0.00    +0.000 C 
ATOM     20  N   UNL     1       8.323  16.602  18.621  0.00  0.00    +0.000 N 
ATOM     21  C   UNL     1       9.090  16.231  19.771  0.00  0.00    +0.000 C 
ATOM     22  O   UNL     1       9.667  17.036  20.501  0.00  0.00    +0.000 OA
BRANCH  21  23
ATOM     23  C   UNL     1       9.333  14.812  20.008  0.00  0.00    +0.000 A 
ATOM     24  C   UNL     1       8.940  14.224  21.208  0.00  0.00    +0.000 A 
ATOM     25  C   UNL     1       9.212  12.869  21.435  0.00  0.00    +0.000 A 
ATOM     26  C   UNL     1       9.824  12.100  20.439  0.00  0.00    +0.000 A 
ATOM     27  C   UNL     1      10.135  12.678  19.196  0.00  0.00    +0.000 A 
ATOM     28  C   UNL     1       9.839  14.017  18.967  0.00  0.00    +0.000 A 
BRANCH  27  29
ATOM     29  C   UNL     1      10.750  11.832  18.097  0.00  0.00    +0.000 C 
ATOM     30  F   UNL     1      10.887  12.506  16.916  0.00  0.00    +0.000 F 
ATOM     31  F   UNL     1      11.980  11.341  18.401  0.00  0.00    +0.000 F 
ATOM     32  F   UNL     1       9.969  10.744  17.803  0.00  0.00    +0.000 F 
ENDBRANCH  27  29
ENDBRANCH  21  23
ENDBRANCH   1  20
TORSDOF 3
ENDMDL
MODEL 9
REMARK VINA RESULT:      -7.3      3.478      4.845
REMARK  Name = 
REMARK  4 active torsions:
REMARK  status: ('A' for Active; 'I' for Inactive)
REMARK    1  A    between atoms: C_1  and  N_2
REMARK    2  A    between atoms: N_2  and  C_15
REMARK    3  A    between atoms: C_3  and  C_5
REMARK    4  A    between atoms: C_9  and  C_10
REMARK                            x       y       z     vdW  Elec       q    Type
REMARK                         _______ _______ _______ _____ _____    ______ ____
ROOT
ATOM      1  C   UNL     1      -0.187  12.344  20.356  0.00  0.00    +0.000 C 
ATOM      2  C   UNL     1      -0.988  11.210  20.986  0.00  0.00    +0.000 C 
ATOM      3  C   UNL     1      -1.006  10.035  20.073  0.00  0.00    +0.000 C 
ATOM      4  N   UNL     1       0.312   9.543  19.905  0.00  0.00    +0.000 NA
ATOM      5  C   UNL     1       1.129   9.168  21.072  0.00  0.00    +0.000 C 
ATOM      6  C   UNL     1       1.421   7.702  20.813  0.00  0.00    +0.000 C 
ATOM      7  C   UNL     1       2.031   7.659  19.457  0.00  0.00    +0.000 A 
ATOM      8  C   UNL     1       2.170   8.840  18.667  0.00  0.00    +0.000 A 
ATOM      9  N   UNL     1       2.990   8.377  17.624  0.00  0.00    +0.000 N 
ATOM     10  C   UNL     1       3.331   6.994  17.790  0.00  0.00    +0.000 A 
ATOM     11  C   UNL     1       4.230   6.135  17.148  0.00  0.00    +0.000 A 
ATOM     12  C   UNL     1       4.234   4.748  17.485  0.00  0.00    +0.000 A 
ATOM     13  C   UNL     1       3.297   4.223  18.365  0.00  0.00    +0.000 A 
ATOM     14  C   UNL     1       2.423   5.103  19.037  0.00  0.00    +0.000 A 
ATOM     15  C   UNL     1       2.511   6.508  18.801  0.00  0.00    +0.000 A 
ATOM     16  C   UNL     1       1.146  10.186  18.900  0.00  0.00    +0.000 C 
ATOM     17  C   UNL     1       1.294  11.710  19.633  0.00  0.00    +0.000 C 
ATOM     18  H   UNL     1       3.328   8.914  16.837  0.00  0.00    +0.000 HD
ENDROOT
BRANCH   1  20
ATOM     19  C   UNL     1      -0.799  13.179  22.734  0.00  0.00    +0.000 C 
ATOM     20  N   UNL     1      -0.436  13.567  21.341  0.00  0.00    +0.000 N 
ATOM     21  C   UNL     1       0.358  14.754  21.416  0.00  0.00    +0.000 C 
ATOM     22  O   UNL     1       0.881  15.169  22.449  0.00  0.00    +0.000 OA
BRANCH  21  23
ATOM     23  C   UNL     1       0.429  15.610  20.236  0.00  0.00    +0.000 A 
ATOM     24  C   UNL     1      -0.661  16.400  19.876  0.00  0.00    +0.000 A 
ATOM     25  C   UNL     1      -0.590  17.189  18.721  0.00  0.00    +0.000 A 
ATOM     26  C   UNL     1       0.588  17.226  17.968  0.00  0.00    +0.000 A 
ATOM     27  C   UNL     1       1.715  16.497  18.388  0.00  0.00    +0.000 A 
ATOM     28  C   UNL     1       1.648  15.736  19.549  0.00  0.00    +0.000 A 
BRANCH  27  29
ATOM     29  C   UNL     1       3.010  16.578  17.601  0.00  0.00    +0.000 C 
ATOM     30  F   UNL     1       2.951  17.464  16.562  0.00  0.00    +0.000 F 
ATOM     31  F   UNL     1       4.088  16.935  18.346  0.00  0.00    +0.000 F 
ATOM     32  F   UNL     1       3.327  15.372  17.028  0.00  0.00    +0.000 F 
ENDBRANCH  27  29
ENDBRANCH  21  23
ENDBRANCH   1  20
TORSDOF 3
ENDMDL
