MODEL 1
REMARK VINA RESULT:      -8.8      0.000      0.000
REMARK  Name = 
REMARK  6 active torsions:
REMARK  status: ('A' for Active; 'I' for Inactive)
REMARK    1  A    between atoms: C_4  and  C_5
REMARK    2  A    between atoms: C_5  and  C_6
REMARK    3  A    between atoms: N_9  and  C_10
REMARK    4  A    between atoms: C_10  and  C_11
REMARK    5  A    between atoms: C_15  and  O_16
REMARK    6  A    between atoms: O_16  and  C_17
REMARK                            x       y       z     vdW  Elec       q    Type
REMARK                         _______ _______ _______ _____ _____    ______ ____
ROOT
ATOM      1  C   UNL     1       2.885   6.482  18.259  0.00  0.00    +0.000 A 
ATOM      2  C   UNL     1       3.051   7.619  17.428  0.00  0.00    +0.000 A 
ATOM      3  C   UNL     1       2.486   8.661  18.123  0.00  0.00    +0.000 A 
ATOM      4  N   UNL     1       2.001   8.125  19.281  0.00  0.00    +0.000 N 
ATOM      5  N   UNL     1       2.255   6.801  19.402  0.00  0.00    +0.000 NA
ENDROOT
BRANCH   1   6
ATOM      6  C   UNL     1       3.420   5.107  18.033  0.00  0.00    +0.000 C 
BRANCH   6  10
ATOM      7  N   UNL     1       7.866   5.603  20.156  0.00  0.00    +0.000 N 
ATOM      8  C   UNL     1       7.112   5.448  18.993  0.00  0.00    +0.000 A 
ATOM      9  C   UNL     1       5.729   5.258  19.090  0.00  0.00    +0.000 A 
ATOM     10  C   UNL     1       4.917   5.203  17.936  0.00  0.00    +0.000 A 
ATOM     11  C   UNL     1       5.606   5.335  16.721  0.00  0.00    +0.000 A 
ATOM     12  N   UNL     1       5.185   5.359  15.416  0.00  0.00    +0.000 NA
ATOM     13  N   UNL     1       6.251   5.540  14.639  0.00  0.00    +0.000 NA
ATOM     14  N   UNL     1       7.326   5.630  15.447  0.00  0.00    +0.000 N 
ATOM     15  C   UNL     1       6.980   5.512  16.760  0.00  0.00    +0.000 A 
ATOM     16  N   UNL     1       7.784   5.582  17.833  0.00  0.00    +0.000 NA
ATOM     17  H   UNL     1       7.705   4.857  20.822  0.00  0.00    +0.000 HD
ATOM     18  H   UNL     1       8.844   5.680  19.886  0.00  0.00    +0.000 HD
ATOM     19  H   UNL     1       8.243   5.781  15.050  0.00  0.00    +0.000 HD
ENDBRANCH   6  10
ENDBRANCH   1   6
BRANCH   4  20
ATOM     20  C   UNL     1       1.366   8.858  20.375  0.00  0.00    +0.000 C 
BRANCH  20  21
ATOM     21  C   UNL     1       0.610  10.073  19.894  0.00  0.00    +0.000 A 
ATOM     22  C   UNL     1       1.241  11.326  19.872  0.00  0.00    +0.000 A 
ATOM     23  C   UNL     1       0.567  12.452  19.414  0.00  0.00    +0.000 A 
ATOM     24  C   UNL     1      -0.738  12.339  18.947  0.00  0.00    +0.000 A 
ATOM     25  C   UNL     1      -1.375  11.097  18.912  0.00  0.00    +0.000 A 
ATOM     26  C   UNL     1      -0.708   9.973  19.410  0.00  0.00    +0.000 A 
BRANCH  25  27
ATOM     27  O   UNL     1      -2.642  10.898  18.420  0.00  0.00    +0.000 OA
BRANCH  27  28
ATOM     28  C   UNL     1      -2.770  11.121  17.016  0.00  0.00    +0.000 C 
ATOM     29  C   UNL     1      -2.389   9.874  16.233  0.00  0.00    +0.000 C 
ATOM     30  C   UNL     1      -3.001  10.186  14.883  0.00  0.00    +0.000 C 
ATOM     31  N   UNL     1      -4.330  10.727  15.201  0.00  0.00    +0.000 NA
ATOM     32  C   UNL     1      -4.216  11.332  16.546  0.00  0.00    +0.000 C 
ATOM     33  H   UNL     1      -4.994   9.954  15.257  0.00  0.00    +0.000 HD
ENDBRANCH  27  28
ENDBRANCH  25  27
ENDBRANCH  20  21
ENDBRANCH   4  20
TORSDOF 6
ENDMDL
MODEL 2
REMARK VINA RESULT:      -8.7      2.376      4.028
REMARK  Name = 
REMARK  6 active torsions:
REMARK  status: ('A' for Active; 'I' for Inactive)
REMARK    1  A    between atoms: C_4  and  C_5
REMARK    2  A    between atoms: C_5  and  C_6
REMARK    3  A    between atoms: N_9  and  C_10
REMARK    4  A    between atoms: C_10  and  C_11
REMARK    5  A    between atoms: C_15  and  O_16
REMARK    6  A    between atoms: O_16  and  C_17
REMARK                            x       y       z     vdW  Elec       q    Type
REMARK                         _______ _______ _______ _____ _____    ______ ____
ROOT
ATOM      1  C   UNL     1       2.949   5.840  18.730  0.00  0.00    +0.000 A 
ATOM      2  C   UNL     1       2.335   6.265  19.935  0.00  0.00    +0.000 A 
ATOM      3  C   UNL     1       2.055   7.597  19.749  0.00  0.00    +0.000 A 
ATOM      4  N   UNL     1       2.517   7.911  18.503  0.00  0.00    +0.000 N 
ATOM      5  N   UNL     1       3.043   6.849  17.848  0.00  0.00    +0.000 NA
ENDROOT
BRANCH   1   6
ATOM      6  C   UNL     1       3.348   4.451  18.356  0.00  0.00    +0.000 C 
BRANCH   6  10
ATOM      7  N   UNL     1       6.367   3.701  14.503  0.00  0.00    +0.000 N 
ATOM      8  C   UNL     1       6.198   4.143  15.814  0.00  0.00    +0.000 A 
ATOM      9  C   UNL     1       4.912   4.176  16.369  0.00  0.00    +0.000 A 
ATOM     10  C   UNL     1       4.711   4.517  17.724  0.00  0.00    +0.000 A 
ATOM     11  C   UNL     1       5.879   4.827  18.436  0.00  0.00    +0.000 A 
ATOM     12  N   UNL     1       6.101   5.172  19.745  0.00  0.00    +0.000 NA
ATOM     13  N   UNL     1       7.412   5.332  19.915  0.00  0.00    +0.000 NA
ATOM     14  N   UNL     1       8.003   5.088  18.729  0.00  0.00    +0.000 N 
ATOM     15  C   UNL     1       7.093   4.763  17.770  0.00  0.00    +0.000 A 
ATOM     16  N   UNL     1       7.326   4.433  16.489  0.00  0.00    +0.000 NA
ATOM     17  H   UNL     1       5.764   4.187  13.851  0.00  0.00    +0.000 HD
ATOM     18  H   UNL     1       7.352   3.794  14.267  0.00  0.00    +0.000 HD
ATOM     19  H   UNL     1       9.009   5.145  18.647  0.00  0.00    +0.000 HD
ENDBRANCH   6  10
ENDBRANCH   1   6
BRANCH   4  20
ATOM     20  C   UNL     1       2.390   9.203  17.832  0.00  0.00    +0.000 C 
BRANCH  20  21
ATOM     21  C   UNL     1       1.102   9.911  18.178  0.00  0.00    +0.000 A 
ATOM     22  C   UNL     1      -0.108   9.475  17.616  0.00  0.00    +0.000 A 
ATOM     23  C   UNL     1      -1.306  10.102  17.938  0.00  0.00    +0.000 A 
ATOM     24  C   UNL     1      -1.317  11.155  18.847  0.00  0.00    +0.000 A 
ATOM     25  C   UNL     1      -0.136  11.578  19.458  0.00  0.00    +0.000 A 
ATOM     26  C   UNL     1       1.073  10.972  19.102  0.00  0.00    +0.000 A 
BRANCH  25  27
ATOM     27  O   UNL     1      -0.074  12.577  20.400  0.00  0.00    +0.000 OA
BRANCH  27  28
ATOM     28  C   UNL     1      -1.186  12.612  21.295  0.00  0.00    +0.000 C 
ATOM     29  C   UNL     1      -1.108  11.472  22.298  0.00  0.00    +0.000 C 
ATOM     30  C   UNL     1      -2.082  11.955  23.354  0.00  0.00    +0.000 C 
ATOM     31  N   UNL     1      -1.762  13.379  23.521  0.00  0.00    +0.000 NA
ATOM     32  C   UNL     1      -1.196  13.828  22.230  0.00  0.00    +0.000 C 
ATOM     33  H   UNL     1      -1.037  13.471  24.234  0.00  0.00    +0.000 HD
ENDBRANCH  27  28
ENDBRANCH  25  27
ENDBRANCH  20  21
ENDBRANCH   4  20
TORSDOF 6
ENDMDL
MODEL 3
REMARK VINA RESULT:      -8.5      1.745      2.694
REMARK  Name = 
REMARK  6 active torsions:
REMARK  status: ('A' for Active; 'I' for Inactive)
REMARK    1  A    between atoms: C_4  and  C_5
REMARK    2  A    between atoms: C_5  and  C_6
REMARK    3  A    between atoms: N_9  and  C_10
REMARK    4  A    between atoms: C_10  and  C_11
REMARK    5  A    between atoms: C_15  and  O_16
REMARK    6  A    between atoms: O_16  and  C_17
REMARK                            x       y       z     vdW  Elec       q    Type
REMARK                         _______ _______ _______ _____ _____    ______ ____
ROOT
ATOM      1  C   UNL     1       3.883   4.119  19.096  0.00  0.00    +0.000 A 
ATOM      2  C   UNL     1       2.698   3.852  18.365  0.00  0.00    +0.000 A 
ATOM      3  C   UNL     1       1.766   4.738  18.849  0.00  0.00    +0.000 A 
ATOM      4  N   UNL     1       2.395   5.453  19.828  0.00  0.00    +0.000 N 
ATOM      5  N   UNL     1       3.697   5.113  19.980  0.00  0.00    +0.000 NA
ENDROOT
BRANCH   1   6
ATOM      6  C   UNL     1       5.233   3.517  18.889  0.00  0.00    +0.000 C 
BRANCH   6  10
ATOM      7  N   UNL     1       8.340   7.371  18.774  0.00  0.00    +0.000 N 
ATOM      8  C   UNL     1       7.605   6.413  18.077  0.00  0.00    +0.000 A 
ATOM      9  C   UNL     1       6.907   5.429  18.788  0.00  0.00    +0.000 A 
ATOM     10  C   UNL     1       6.068   4.507  18.125  0.00  0.00    +0.000 A 
ATOM     11  C   UNL     1       6.014   4.651  16.731  0.00  0.00    +0.000 A 
ATOM     12  N   UNL     1       5.314   3.985  15.757  0.00  0.00    +0.000 NA
ATOM     13  N   UNL     1       5.602   4.544  14.584  0.00  0.00    +0.000 NA
ATOM     14  N   UNL     1       6.469   5.548  14.819  0.00  0.00    +0.000 N 
ATOM     15  C   UNL     1       6.759   5.663  16.145  0.00  0.00    +0.000 A 
ATOM     16  N   UNL     1       7.557   6.565  16.740  0.00  0.00    +0.000 NA
ATOM     17  H   UNL     1       8.984   6.956  19.436  0.00  0.00    +0.000 HD
ATOM     18  H   UNL     1       8.809   7.962  18.092  0.00  0.00    +0.000 HD
ATOM     19  H   UNL     1       6.807   6.112  14.051  0.00  0.00    +0.000 HD
ENDBRANCH   6  10
ENDBRANCH   1   6
BRANCH   4  20
ATOM     20  C   UNL     1       1.826   6.560  20.593  0.00  0.00    +0.000 C 
BRANCH  20  21
ATOM     21  C   UNL     1       1.734   7.833  19.787  0.00  0.00    +0.000 A 
ATOM     22  C   UNL     1       2.368   7.918  18.538  0.00  0.00    +0.000 A 
ATOM     23  C   UNL     1       2.277   9.075  17.774  0.00  0.00    +0.000 A 
ATOM     24  C   UNL     1       1.530  10.155  18.233  0.00  0.00    +0.000 A 
ATOM     25  C   UNL     1       0.849  10.082  19.449  0.00  0.00    +0.000 A 
ATOM     26  C   UNL     1       0.975   8.931  20.234  0.00  0.00    +0.000 A 
BRANCH  25  27
ATOM     27  O   UNL     1       0.053  11.086  19.945  0.00  0.00    +0.000 OA
BRANCH  27  28
ATOM     28  C   UNL     1      -0.889  11.608  19.008  0.00  0.00    +0.000 C 
ATOM     29  C   UNL     1      -1.846  10.522  18.541  0.00  0.00    +0.000 C 
ATOM     30  C   UNL     1      -2.959  11.360  17.945  0.00  0.00    +0.000 C 
ATOM     31  N   UNL     1      -3.164  12.440  18.920  0.00  0.00    +0.000 NA
ATOM     32  C   UNL     1      -1.867  12.626  19.607  0.00  0.00    +0.000 C 
ATOM     33  H   UNL     1      -3.848  12.132  19.612  0.00  0.00    +0.000 HD
ENDBRANCH  27  28
ENDBRANCH  25  27
ENDBRANCH  20  21
ENDBRANCH   4  20
TORSDOF 6
ENDMDL
MODEL 4
REMARK VINA RESULT:      -8.5      6.306     10.319
REMARK  Name = 
REMARK  6 active torsions:
REMARK  status: ('A' for Active; 'I' for Inactive)
REMARK    1  A    between atoms: C_4  and  C_5
REMARK    2  A    between atoms: C_5  and  C_6
REMARK    3  A    between atoms: N_9  and  C_10
REMARK    4  A    between atoms: C_10  and  C_11
REMARK    5  A    between atoms: C_15  and  O_16
REMARK    6  A    between atoms: O_16  and  C_17
REMARK                            x       y       z     vdW  Elec       q    Type
REMARK                         _______ _______ _______ _____ _____    ______ ____
ROOT
ATOM      1  C   UNL     1      -3.723  11.163  17.434  0.00  0.00    +0.000 A 
ATOM      2  C   UNL     1      -3.165   9.964  16.921  0.00  0.00    +0.000 A 
ATOM      3  C   UNL     1      -1.892   9.908  17.434  0.00  0.00    +0.000 A 
ATOM      4  N   UNL     1      -1.734  11.040  18.181  0.00  0.00    +0.000 N 
ATOM      5  N   UNL     1      -2.846  11.810  18.219  0.00  0.00    +0.000 NA
ENDROOT
BRANCH   1   6
ATOM      6  C   UNL     1      -5.125  11.650  17.280  0.00  0.00    +0.000 C 
BRANCH   6  10
ATOM      7  N   UNL     1      -7.808   8.511  20.014  0.00  0.00    +0.000 N 
ATOM      8  C   UNL     1      -7.197   9.758  19.888  0.00  0.00    +0.000 A 
ATOM      9  C   UNL     1      -6.419  10.033  18.757  0.00  0.00    +0.000 A 
ATOM     10  C   UNL     1      -5.871  11.316  18.542  0.00  0.00    +0.000 A 
ATOM     11  C   UNL     1      -6.154  12.256  19.544  0.00  0.00    +0.000 A 
ATOM     12  N   UNL     1      -5.834  13.582  19.687  0.00  0.00    +0.000 NA
ATOM     13  N   UNL     1      -6.381  14.021  20.818  0.00  0.00    +0.000 NA
ATOM     14  N   UNL     1      -7.038  12.985  21.376  0.00  0.00    +0.000 N 
ATOM     15  C   UNL     1      -6.932  11.857  20.620  0.00  0.00    +0.000 A 
ATOM     16  N   UNL     1      -7.481  10.653  20.854  0.00  0.00    +0.000 NA
ATOM     17  H   UNL     1      -7.153   7.747  19.899  0.00  0.00    +0.000 HD
ATOM     18  H   UNL     1      -8.284   8.485  20.912  0.00  0.00    +0.000 HD
ATOM     19  H   UNL     1      -7.536  13.114  22.245  0.00  0.00    +0.000 HD
ENDBRANCH   6  10
ENDBRANCH   1   6
BRANCH   4  20
ATOM     20  C   UNL     1      -0.561  11.397  18.976  0.00  0.00    +0.000 C 
BRANCH  20  21
ATOM     21  C   UNL     1      -0.727  11.055  20.437  0.00  0.00    +0.000 A 
ATOM     22  C   UNL     1      -0.201   9.855  20.939  0.00  0.00    +0.000 A 
ATOM     23  C   UNL     1      -0.327   9.534  22.285  0.00  0.00    +0.000 A 
ATOM     24  C   UNL     1      -0.956  10.418  23.156  0.00  0.00    +0.000 A 
ATOM     25  C   UNL     1      -1.445  11.641  22.694  0.00  0.00    +0.000 A 
ATOM     26  C   UNL     1      -1.353  11.944  21.332  0.00  0.00    +0.000 A 
BRANCH  25  27
ATOM     27  O   UNL     1      -2.034  12.586  23.500  0.00  0.00    +0.000 OA
BRANCH  27  28
ATOM     28  C   UNL     1      -3.447  12.701  23.336  0.00  0.00    +0.000 C 
ATOM     29  C   UNL     1      -4.178  12.203  24.573  0.00  0.00    +0.000 C 
ATOM     30  C   UNL     1      -5.549  12.809  24.358  0.00  0.00    +0.000 C 
ATOM     31  N   UNL     1      -5.276  14.183  23.917  0.00  0.00    +0.000 NA
ATOM     32  C   UNL     1      -3.951  14.148  23.260  0.00  0.00    +0.000 C 
ATOM     33  H   UNL     1      -5.205  14.784  24.739  0.00  0.00    +0.000 HD
ENDBRANCH  27  28
ENDBRANCH  25  27
ENDBRANCH  20  21
ENDBRANCH   4  20
TORSDOF 6
ENDMDL
MODEL 5
REMARK VINA RESULT:      -8.5      1.722      3.400
REMARK  Name = 
REMARK  6 active torsions:
REMARK  status: ('A' for Active; 'I' for Inactive)
REMARK    1  A    between atoms: C_4  and  C_5
REMARK    2  A    between atoms: C_5  and  C_6
REMARK    3  A    between atoms: N_9  and  C_10
REMARK    4  A    between atoms: C_10  and  C_11
REMARK    5  A    between atoms: C_15  and  O_16
REMARK    6  A    between atoms: O_16  and  C_17
REMARK                            x       y       z     vdW  Elec       q    Type
REMARK                         _______ _______ _______ _____ _____    ______ ____
ROOT
ATOM      1  C   UNL     1       3.461   3.828  19.374  0.00  0.00    +0.000 A 
ATOM      2  C   UNL     1       2.137   3.425  19.069  0.00  0.00    +0.000 A 
ATOM      3  C   UNL     1       1.330   4.406  19.593  0.00  0.00    +0.000 A 
ATOM      4  N   UNL     1       2.166   5.306  20.189  0.00  0.00    +0.000 N 
ATOM      5  N   UNL     1       3.474   4.991  20.047  0.00  0.00    +0.000 NA
ENDROOT
BRANCH   1   6
ATOM      6  C   UNL     1       4.731   3.179  18.935  0.00  0.00    +0.000 C 
BRANCH   6  10
ATOM      7  N   UNL     1       5.371   4.378  14.173  0.00  0.00    +0.000 N 
ATOM      8  C   UNL     1       5.660   4.631  15.514  0.00  0.00    +0.000 A 
ATOM      9  C   UNL     1       5.009   3.892  16.510  0.00  0.00    +0.000 A 
ATOM     10  C   UNL     1       5.349   4.043  17.872  0.00  0.00    +0.000 A 
ATOM     11  C   UNL     1       6.355   4.986  18.129  0.00  0.00    +0.000 A 
ATOM     12  N   UNL     1       6.968   5.394  19.286  0.00  0.00    +0.000 NA
ATOM     13  N   UNL     1       7.889   6.302  18.970  0.00  0.00    +0.000 NA
ATOM     14  N   UNL     1       7.855   6.459  17.632  0.00  0.00    +0.000 N 
ATOM     15  C   UNL     1       6.917   5.658  17.054  0.00  0.00    +0.000 A 
ATOM     16  N   UNL     1       6.631   5.534  15.748  0.00  0.00    +0.000 NA
ATOM     17  H   UNL     1       4.378   4.411  13.980  0.00  0.00    +0.000 HD
ATOM     18  H   UNL     1       5.901   5.039  13.611  0.00  0.00    +0.000 HD
ATOM     19  H   UNL     1       8.492   7.104  17.185  0.00  0.00    +0.000 HD
ENDBRANCH   6  10
ENDBRANCH   1   6
BRANCH   4  20
ATOM     20  C   UNL     1       1.773   6.559  20.831  0.00  0.00    +0.000 C 
BRANCH  20  21
ATOM     21  C   UNL     1       1.767   7.724  19.871  0.00  0.00    +0.000 A 
ATOM     22  C   UNL     1       2.381   7.599  18.616  0.00  0.00    +0.000 A 
ATOM     23  C   UNL     1       2.368   8.655  17.711  0.00  0.00    +0.000 A 
ATOM     24  C   UNL     1       1.718   9.841  18.036  0.00  0.00    +0.000 A 
ATOM     25  C   UNL     1       1.056   9.976  19.258  0.00  0.00    +0.000 A 
ATOM     26  C   UNL     1       1.106   8.927  20.182  0.00  0.00    +0.000 A 
BRANCH  25  27
ATOM     27  O   UNL     1       0.353  11.097  19.630  0.00  0.00    +0.000 OA
BRANCH  27  28
ATOM     28  C   UNL     1      -0.663  11.487  18.706  0.00  0.00    +0.000 C 
ATOM     29  C   UNL     1      -1.629  10.341  18.448  0.00  0.00    +0.000 C 
ATOM     30  C   UNL     1      -2.798  11.086  17.835  0.00  0.00    +0.000 C 
ATOM     31  N   UNL     1      -2.955  12.277  18.680  0.00  0.00    +0.000 NA
ATOM     32  C   UNL     1      -1.617  12.561  19.244  0.00  0.00    +0.000 C 
ATOM     33  H   UNL     1      -3.583  12.050  19.453  0.00  0.00    +0.000 HD
ENDBRANCH  27  28
ENDBRANCH  25  27
ENDBRANCH  20  21
ENDBRANCH   4  20
TORSDOF 6
ENDMDL
MODEL 6
REMARK VINA RESULT:      -8.4      1.275      2.423
REMARK  Name = 
REMARK  6 active torsions:
REMARK  status: ('A' for Active; 'I' for Inactive)
REMARK    1  A    between atoms: C_4  and  C_5
REMARK    2  A    between atoms: C_5  and  C_6
REMARK    3  A    between atoms: N_9  and  C_10
REMARK    4  A    between atoms: C_10  and  C_11
REMARK    5  A    between atoms: C_15  and  O_16
REMARK    6  A    between atoms: O_16  and  C_17
REMARK                            x       y       z     vdW  Elec       q    Type
REMARK                         _______ _______ _______ _____ _____    ______ ____
ROOT
ATOM      1  C   UNL     1       2.956   6.112  18.362  0.00  0.00    +0.000 A 
ATOM      2  C   UNL     1       3.269   7.185  17.489  0.00  0.00    +0.000 A 
ATOM      3  C   UNL     1       2.762   8.307  18.099  0.00  0.00    +0.000 A 
ATOM      4  N   UNL     1       2.168   7.877  19.251  0.00  0.00    +0.000 N 
ATOM      5  N   UNL     1       2.296   6.544  19.449  0.00  0.00    +0.000 NA
ENDROOT
BRANCH   1   6
ATOM      6  C   UNL     1       3.378   4.686  18.234  0.00  0.00    +0.000 C 
BRANCH   6  10
ATOM      7  N   UNL     1       6.471   3.696  14.496  0.00  0.00    +0.000 N 
ATOM      8  C   UNL     1       6.285   4.172  15.793  0.00  0.00    +0.000 A 
ATOM      9  C   UNL     1       4.987   4.287  16.305  0.00  0.00    +0.000 A 
ATOM     10  C   UNL     1       4.761   4.664  17.647  0.00  0.00    +0.000 A 
ATOM     11  C   UNL     1       5.922   4.923  18.391  0.00  0.00    +0.000 A 
ATOM     12  N   UNL     1       6.122   5.281  19.700  0.00  0.00    +0.000 NA
ATOM     13  N   UNL     1       7.433   5.372  19.909  0.00  0.00    +0.000 NA
ATOM     14  N   UNL     1       8.047   5.073  18.748  0.00  0.00    +0.000 N 
ATOM     15  C   UNL     1       7.151   4.780  17.765  0.00  0.00    +0.000 A 
ATOM     16  N   UNL     1       7.406   4.412  16.499  0.00  0.00    +0.000 NA
ATOM     17  H   UNL     1       5.917   4.202  13.816  0.00  0.00    +0.000 HD
ATOM     18  H   UNL     1       7.466   3.730  14.290  0.00  0.00    +0.000 HD
ATOM     19  H   UNL     1       9.057   5.073  18.698  0.00  0.00    +0.000 HD
ENDBRANCH   6  10
ENDBRANCH   1   6
BRANCH   4  20
ATOM     20  C   UNL     1       1.541   8.718  20.268  0.00  0.00    +0.000 C 
BRANCH  20  21
ATOM     21  C   UNL     1       0.806   9.895  19.673  0.00  0.00    +0.000 A 
ATOM     22  C   UNL     1       1.275  11.199  19.896  0.00  0.00    +0.000 A 
ATOM     23  C   UNL     1       0.622  12.292  19.340  0.00  0.00    +0.000 A 
ATOM     24  C   UNL     1      -0.493  12.099  18.531  0.00  0.00    +0.000 A 
ATOM     25  C   UNL     1      -0.953  10.811  18.252  0.00  0.00    +0.000 A 
ATOM     26  C   UNL     1      -0.319   9.715  18.845  0.00  0.00    +0.000 A 
BRANCH  25  27
ATOM     27  O   UNL     1      -2.016  10.538  17.425  0.00  0.00    +0.000 OA
BRANCH  27  28
ATOM     28  C   UNL     1      -3.069  11.500  17.483  0.00  0.00    +0.000 C 
ATOM     29  C   UNL     1      -4.222  11.096  16.578  0.00  0.00    +0.000 C 
ATOM     30  C   UNL     1      -5.332  11.973  17.122  0.00  0.00    +0.000 C 
ATOM     31  N   UNL     1      -5.200  11.867  18.581  0.00  0.00    +0.000 NA
ATOM     32  C   UNL     1      -3.774  11.572  18.844  0.00  0.00    +0.000 C 
ATOM     33  H   UNL     1      -5.752  11.071  18.904  0.00  0.00    +0.000 HD
ENDBRANCH  27  28
ENDBRANCH  25  27
ENDBRANCH  20  21
ENDBRANCH   4  20
TORSDOF 6
ENDMDL
MODEL 7
REMARK VINA RESULT:      -8.4      1.141      2.440
REMARK  Name = 
REMARK  6 active torsions:
REMARK  status: ('A' for Active; 'I' for Inactive)
REMARK    1  A    between atoms: C_4  and  C_5
REMARK    2  A    between atoms: C_5  and  C_6
REMARK    3  A    between atoms: N_9  and  C_10
REMARK    4  A    between atoms: C_10  and  C_11
REMARK    5  A    between atoms: C_15  and  O_16
REMARK    6  A    between atoms: O_16  and  C_17
REMARK                            x       y       z     vdW  Elec       q    Type
REMARK                         _______ _______ _______ _____ _____    ______ ____
ROOT
ATOM      1  C   UNL     1       2.888   6.078  18.406  0.00  0.00    +0.000 A 
ATOM      2  C   UNL     1       3.004   7.364  17.821  0.00  0.00    +0.000 A 
ATOM      3  C   UNL     1       2.442   8.227  18.730  0.00  0.00    +0.000 A 
ATOM      4  N   UNL     1       2.007   7.454  19.768  0.00  0.00    +0.000 N 
ATOM      5  N   UNL     1       2.292   6.140  19.607  0.00  0.00    +0.000 NA
ENDROOT
BRANCH   1   6
ATOM      6  C   UNL     1       3.442   4.792  17.888  0.00  0.00    +0.000 C 
BRANCH   6  10
ATOM      7  N   UNL     1       6.837   5.197  14.305  0.00  0.00    +0.000 N 
ATOM      8  C   UNL     1       6.529   5.244  15.664  0.00  0.00    +0.000 A 
ATOM      9  C   UNL     1       5.197   5.108  16.073  0.00  0.00    +0.000 A 
ATOM     10  C   UNL     1       4.856   5.045  17.442  0.00  0.00    +0.000 A 
ATOM     11  C   UNL     1       5.940   5.145  18.327  0.00  0.00    +0.000 A 
ATOM     12  N   UNL     1       6.025   5.103  19.695  0.00  0.00    +0.000 NA
ATOM     13  N   UNL     1       7.307   5.215  20.034  0.00  0.00    +0.000 NA
ATOM     14  N   UNL     1       8.016   5.325  18.894  0.00  0.00    +0.000 N 
ATOM     15  C   UNL     1       7.212   5.283  17.795  0.00  0.00    +0.000 A 
ATOM     16  N   UNL     1       7.578   5.335  16.504  0.00  0.00    +0.000 NA
ATOM     17  H   UNL     1       6.282   5.846  13.761  0.00  0.00    +0.000 HD
ATOM     18  H   UNL     1       7.836   5.360  14.206  0.00  0.00    +0.000 HD
ATOM     19  H   UNL     1       9.023   5.410  18.934  0.00  0.00    +0.000 HD
ENDBRANCH   6  10
ENDBRANCH   1   6
BRANCH   4  20
ATOM     20  C   UNL     1       1.395   7.931  21.006  0.00  0.00    +0.000 C 
BRANCH  20  21
ATOM     21  C   UNL     1       0.641   9.226  20.817  0.00  0.00    +0.000 A 
ATOM     22  C   UNL     1       0.483  10.107  21.898  0.00  0.00    +0.000 A 
ATOM     23  C   UNL     1      -0.190  11.312  21.738  0.00  0.00    +0.000 A 
ATOM     24  C   UNL     1      -0.692  11.668  20.490  0.00  0.00    +0.000 A 
ATOM     25  C   UNL     1      -0.507  10.834  19.387  0.00  0.00    +0.000 A 
ATOM     26  C   UNL     1       0.135   9.604  19.560  0.00  0.00    +0.000 A 
BRANCH  25  27
ATOM     27  O   UNL     1      -0.931  11.138  18.115  0.00  0.00    +0.000 OA
BRANCH  27  28
ATOM     28  C   UNL     1      -2.194  10.573  17.765  0.00  0.00    +0.000 C 
ATOM     29  C   UNL     1      -3.331  11.503  18.157  0.00  0.00    +0.000 C 
ATOM     30  C   UNL     1      -4.464  10.934  17.328  0.00  0.00    +0.000 C 
ATOM     31  N   UNL     1      -3.863  10.685  16.010  0.00  0.00    +0.000 NA
ATOM     32  C   UNL     1      -2.423  10.448  16.253  0.00  0.00    +0.000 C 
ATOM     33  H   UNL     1      -3.953  11.530  15.444  0.00  0.00    +0.000 HD
ENDBRANCH  27  28
ENDBRANCH  25  27
ENDBRANCH  20  21
ENDBRANCH   4  20
TORSDOF 6
ENDMDL
MODEL 8
REMARK VINA RESULT:      -8.4      2.871      4.286
REMARK  Name = 
REMARK  6 active torsions:
REMARK  status: ('A' for Active; 'I' for Inactive)
REMARK    1  A    between atoms: C_4  and  C_5
REMARK    2  A    between atoms: C_5  and  C_6
REMARK    3  A    between atoms: N_9  and  C_10
REMARK    4  A    between atoms: C_10  and  C_11
REMARK    5  A    between atoms: C_15  and  O_16
REMARK    6  A    between atoms: O_16  and  C_17
REMARK                            x       y       z     vdW  Elec       q    Type
REMARK                         _______ _______ _______ _____ _____    ______ ____
ROOT
ATOM      1  C   UNL     1       2.895   5.900  18.283  0.00  0.00    +0.000 A 
ATOM      2  C   UNL     1       3.023   7.192  17.713  0.00  0.00    +0.000 A 
ATOM      3  C   UNL     1       2.547   8.057  18.668  0.00  0.00    +0.000 A 
ATOM      4  N   UNL     1       2.145   7.282  19.717  0.00  0.00    +0.000 N 
ATOM      5  N   UNL     1       2.371   5.962  19.519  0.00  0.00    +0.000 NA
ENDROOT
BRANCH   1   6
ATOM      6  C   UNL     1       3.371   4.605  17.714  0.00  0.00    +0.000 C 
BRANCH   6  10
ATOM      7  N   UNL     1       6.848   4.615  14.187  0.00  0.00    +0.000 N 
ATOM      8  C   UNL     1       6.513   4.792  15.529  0.00  0.00    +0.000 A 
ATOM      9  C   UNL     1       5.170   4.720  15.918  0.00  0.00    +0.000 A 
ATOM     10  C   UNL     1       4.799   4.788  17.279  0.00  0.00    +0.000 A 
ATOM     11  C   UNL     1       5.866   4.949  18.175  0.00  0.00    +0.000 A 
ATOM     12  N   UNL     1       5.921   5.030  19.543  0.00  0.00    +0.000 NA
ATOM     13  N   UNL     1       7.198   5.149  19.900  0.00  0.00    +0.000 NA
ATOM     14  N   UNL     1       7.933   5.141  18.771  0.00  0.00    +0.000 N 
ATOM     15  C   UNL     1       7.152   5.014  17.663  0.00  0.00    +0.000 A 
ATOM     16  N   UNL     1       7.546   4.940  16.380  0.00  0.00    +0.000 NA
ATOM     17  H   UNL     1       6.319   5.221  13.574  0.00  0.00    +0.000 HD
ATOM     18  H   UNL     1       7.852   4.749  14.096  0.00  0.00    +0.000 HD
ATOM     19  H   UNL     1       8.940   5.210  18.826  0.00  0.00    +0.000 HD
ENDBRANCH   6  10
ENDBRANCH   1   6
BRANCH   4  20
ATOM     20  C   UNL     1       1.623   7.758  20.996  0.00  0.00    +0.000 C 
BRANCH  20  21
ATOM     21  C   UNL     1       0.816   9.026  20.855  0.00  0.00    +0.000 A 
ATOM     22  C   UNL     1       0.313   9.399  19.600  0.00  0.00    +0.000 A 
ATOM     23  C   UNL     1      -0.449  10.553  19.456  0.00  0.00    +0.000 A 
ATOM     24  C   UNL     1      -0.742  11.337  20.567  0.00  0.00    +0.000 A 
ATOM     25  C   UNL     1      -0.295  10.964  21.836  0.00  0.00    +0.000 A 
ATOM     26  C   UNL     1       0.504   9.825  21.972  0.00  0.00    +0.000 A 
BRANCH  25  27
ATOM     27  O   UNL     1      -0.584  11.659  22.986  0.00  0.00    +0.000 OA
BRANCH  27  28
ATOM     28  C   UNL     1      -1.593  12.658  22.832  0.00  0.00    +0.000 C 
ATOM     29  C   UNL     1      -2.896  12.215  23.477  0.00  0.00    +0.000 C 
ATOM     30  C   UNL     1      -3.629  13.537  23.578  0.00  0.00    +0.000 C 
ATOM     31  N   UNL     1      -2.613  14.481  24.062  0.00  0.00    +0.000 NA
ATOM     32  C   UNL     1      -1.309  13.954  23.601  0.00  0.00    +0.000 C 
ATOM     33  H   UNL     1      -2.615  14.470  25.083  0.00  0.00    +0.000 HD
ENDBRANCH  27  28
ENDBRANCH  25  27
ENDBRANCH  20  21
ENDBRANCH   4  20
TORSDOF 6
ENDMDL
MODEL 9
REMARK VINA RESULT:      -8.3      3.077      4.419
REMARK  Name = 
REMARK  6 active torsions:
REMARK  status: ('A' for Active; 'I' for Inactive)
REMARK    1  A    between atoms: C_4  and  C_5
REMARK    2  A    between atoms: C_5  and  C_6
REMARK    3  A    between atoms: N_9  and  C_10
REMARK    4  A    between atoms: C_10  and  C_11
REMARK    5  A    between atoms: C_15  and  O_16
REMARK    6  A    between atoms: O_16  and  C_17
REMARK                            x       y       z     vdW  Elec       q    Type
REMARK                         _______ _______ _______ _____ _____    ______ ____
ROOT
ATOM      1  C   UNL     1       2.009   7.409  19.537  0.00  0.00    +0.000 A 
ATOM      2  C   UNL     1       2.424   7.405  18.181  0.00  0.00    +0.000 A 
ATOM      3  C   UNL     1       2.174   8.675  17.722  0.00  0.00    +0.000 A 
ATOM      4  N   UNL     1       1.618   9.354  18.768  0.00  0.00    +0.000 N 
ATOM      5  N   UNL     1       1.531   8.612  19.897  0.00  0.00    +0.000 NA
ENDROOT
BRANCH   1   6
ATOM      6  C   UNL     1       2.165   6.313  20.538  0.00  0.00    +0.000 C 
BRANCH   6  10
ATOM      7  N   UNL     1       0.966   1.910  18.614  0.00  0.00    +0.000 N 
ATOM      8  C   UNL     1       1.937   2.883  18.846  0.00  0.00    +0.000 A 
ATOM      9  C   UNL     1       1.569   4.093  19.448  0.00  0.00    +0.000 A 
ATOM     10  C   UNL     1       2.538   5.060  19.796  0.00  0.00    +0.000 A 
ATOM     11  C   UNL     1       3.859   4.715  19.476  0.00  0.00    +0.000 A 
ATOM     12  N   UNL     1       5.056   5.356  19.670  0.00  0.00    +0.000 NA
ATOM     13  N   UNL     1       6.027   4.573  19.204  0.00  0.00    +0.000 NA
ATOM     14  N   UNL     1       5.446   3.455  18.726  0.00  0.00    +0.000 N 
ATOM     15  C   UNL     1       4.092   3.488  18.874  0.00  0.00    +0.000 A 
ATOM     16  N   UNL     1       3.202   2.539  18.540  0.00  0.00    +0.000 NA
ATOM     17  H   UNL     1       0.169   2.274  18.107  0.00  0.00    +0.000 HD
ATOM     18  H   UNL     1       1.412   1.133  18.132  0.00  0.00    +0.000 HD
ATOM     19  H   UNL     1       6.017   2.719  18.334  0.00  0.00    +0.000 HD
ENDBRANCH   6  10
ENDBRANCH   1   6
BRANCH   4  20
ATOM     20  C   UNL     1       1.238  10.765  18.780  0.00  0.00    +0.000 C 
BRANCH  20  21
ATOM     21  C   UNL     1      -0.252  10.964  18.643  0.00  0.00    +0.000 A 
ATOM     22  C   UNL     1      -0.991  10.139  17.781  0.00  0.00    +0.000 A 
ATOM     23  C   UNL     1      -2.367  10.295  17.657  0.00  0.00    +0.000 A 
ATOM     24  C   UNL     1      -3.029  11.258  18.411  0.00  0.00    +0.000 A 
ATOM     25  C   UNL     1      -2.326  12.060  19.312  0.00  0.00    +0.000 A 
ATOM     26  C   UNL     1      -0.937  11.929  19.405  0.00  0.00    +0.000 A 
BRANCH  25  27
ATOM     27  O   UNL     1      -2.916  12.998  20.125  0.00  0.00    +0.000 OA
BRANCH  27  28
ATOM     28  C   UNL     1      -3.430  12.475  21.350  0.00  0.00    +0.000 C 
ATOM     29  C   UNL     1      -3.014  13.344  22.527  0.00  0.00    +0.000 C 
ATOM     30  C   UNL     1      -3.992  12.877  23.586  0.00  0.00    +0.000 C 
ATOM     31  N   UNL     1      -5.280  12.799  22.884  0.00  0.00    +0.000 NA
ATOM     32  C   UNL     1      -4.959  12.539  21.463  0.00  0.00    +0.000 C 
ATOM     33  H   UNL     1      -5.742  13.707  22.943  0.00  0.00    +0.000 HD
ENDBRANCH  27  28
ENDBRANCH  25  27
ENDBRANCH  20  21
ENDBRANCH   4  20
TORSDOF 6
ENDMDL
