MODEL 1
REMARK VINA RESULT:      -8.0      0.000      0.000
REMARK  Name = 
REMARK  4 active torsions:
REMARK  status: ('A' for Active; 'I' for Inactive)
REMARK    1  A    between atoms: C_2  and  C_3
REMARK    2  A    between atoms: C_2  and  C_10
REMARK    3  A    between atoms: C_13  and  S_14
REMARK    4  A    between atoms: S_14  and  C_17
REMARK                            x       y       z     vdW  Elec       q    Type
REMARK                         _______ _______ _______ _____ _____    ______ ____
ROOT
ATOM      1  C   UNL     1       2.203   7.074  19.638  0.00  0.00    +0.000 A 
ATOM      2  C   UNL     1       1.527   7.587  20.754  0.00  0.00    +0.000 A 
ATOM      3  C   UNL     1       1.011   8.887  20.726  0.00  0.00    +0.000 A 
ATOM      4  C   UNL     1       1.160   9.663  19.572  0.00  0.00    +0.000 A 
ATOM      5  C   UNL     1       1.826   9.159  18.452  0.00  0.00    +0.000 A 
ATOM      6  C   UNL     1       2.327   7.857  18.480  0.00  0.00    +0.000 A 
ENDROOT
BRANCH   4   7
ATOM      7  S   UNL     1       0.538  11.332  19.544  0.00  0.00    +0.000 S 
ATOM      8  O   UNL     1       0.514  11.806  20.915  0.00  0.00    +0.000 OA
ATOM      9  O   UNL     1       1.284  12.054  18.529  0.00  0.00    +0.000 OA
BRANCH   7  10
ATOM     10  C   UNL     1      -1.149  11.223  18.986  0.00  0.00    +0.000 A 
ATOM     11  C   UNL     1      -2.102  12.111  19.498  0.00  0.00    +0.000 A 
ATOM     12  C   UNL     1      -3.421  12.037  19.047  0.00  0.00    +0.000 A 
ATOM     13  C   UNL     1      -3.774  11.092  18.083  0.00  0.00    +0.000 A 
ATOM     14 CL   UNL     1      -5.402  11.006  17.532  0.00  0.00    +0.000 Cl
ATOM     15  C   UNL     1      -2.819  10.221  17.558  0.00  0.00    +0.000 A 
ATOM     16  C   UNL     1      -1.497  10.286  18.006  0.00  0.00    +0.000 A 
ENDBRANCH   7  10
ENDBRANCH   4   7
BRANCH   1  18
ATOM     17  O   UNL     1       2.305   4.899  20.524  0.00  0.00    +0.000 OA
ATOM     18  C   UNL     1       2.763   5.696  19.712  0.00  0.00    +0.000 C 
BRANCH  18  19
ATOM     19  C   UNL     1       3.862   5.272  18.804  0.00  0.00    +0.000 A 
ATOM     20  C   UNL     1       3.538   4.704  17.565  0.00  0.00    +0.000 A 
ATOM     21  C   UNL     1       4.553   4.365  16.666  0.00  0.00    +0.000 A 
ATOM     22  C   UNL     1       5.887   4.588  17.009  0.00  0.00    +0.000 A 
ATOM     23 CL   UNL     1       7.135   4.217  15.886  0.00  0.00    +0.000 Cl
ATOM     24  C   UNL     1       6.218   5.114  18.257  0.00  0.00    +0.000 A 
ATOM     25  C   UNL     1       5.206   5.438  19.163  0.00  0.00    +0.000 A 
ENDBRANCH  18  19
ENDBRANCH   1  18
TORSDOF 4
ENDMDL
MODEL 2
REMARK VINA RESULT:      -8.0      0.334      1.027
REMARK  Name = 
REMARK  4 active torsions:
REMARK  status: ('A' for Active; 'I' for Inactive)
REMARK    1  A    between atoms: C_2  and  C_3
REMARK    2  A    between atoms: C_2  and  C_10
REMARK    3  A    between atoms: C_13  and  S_14
REMARK    4  A    between atoms: S_14  and  C_17
REMARK                            x       y       z     vdW  Elec       q    Type
REMARK                         _______ _______ _______ _____ _____    ______ ____
ROOT
ATOM      1  C   UNL     1       2.160   7.085  19.722  0.00  0.00    +0.000 A 
ATOM      2  C   UNL     1       1.507   7.648  20.826  0.00  0.00    +0.000 A 
ATOM      3  C   UNL     1       1.014   8.955  20.760  0.00  0.00    +0.000 A 
ATOM      4  C   UNL     1       1.162   9.689  19.578  0.00  0.00    +0.000 A 
ATOM      5  C   UNL     1       1.805   9.135  18.469  0.00  0.00    +0.000 A 
ATOM      6  C   UNL     1       2.284   7.825  18.536  0.00  0.00    +0.000 A 
ENDROOT
BRANCH   4   7
ATOM      7  S   UNL     1       0.569  11.366  19.500  0.00  0.00    +0.000 S 
ATOM      8  O   UNL     1       0.556  11.882  20.856  0.00  0.00    +0.000 OA
ATOM      9  O   UNL     1       1.326  12.044  18.463  0.00  0.00    +0.000 OA
BRANCH   7  10
ATOM     10  C   UNL     1      -1.120  11.270  18.947  0.00  0.00    +0.000 A 
ATOM     11  C   UNL     1      -1.479  10.308  17.996  0.00  0.00    +0.000 A 
ATOM     12  C   UNL     1      -2.808  10.221  17.575  0.00  0.00    +0.000 A 
ATOM     13  C   UNL     1      -3.765  11.080  18.115  0.00  0.00    +0.000 A 
ATOM     14 CL   UNL     1      -5.401  10.968  17.592  0.00  0.00    +0.000 Cl
ATOM     15  C   UNL     1      -3.411  12.025  19.079  0.00  0.00    +0.000 A 
ATOM     16  C   UNL     1      -2.083  12.121  19.502  0.00  0.00    +0.000 A 
ENDBRANCH   7  10
ENDBRANCH   4   7
BRANCH   1  18
ATOM     17  O   UNL     1       2.349   4.992  20.776  0.00  0.00    +0.000 OA
ATOM     18  C   UNL     1       2.697   5.701  19.836  0.00  0.00    +0.000 C 
BRANCH  18  19
ATOM     19  C   UNL     1       3.639   5.163  18.818  0.00  0.00    +0.000 A 
ATOM     20  C   UNL     1       3.131   4.390  17.766  0.00  0.00    +0.000 A 
ATOM     21  C   UNL     1       3.988   3.936  16.759  0.00  0.00    +0.000 A 
ATOM     22  C   UNL     1       5.347   4.249  16.809  0.00  0.00    +0.000 A 
ATOM     23 CL   UNL     1       6.393   3.732  15.546  0.00  0.00    +0.000 Cl
ATOM     24  C   UNL     1       5.864   4.982  17.875  0.00  0.00    +0.000 A 
ATOM     25  C   UNL     1       5.014   5.423  18.891  0.00  0.00    +0.000 A 
ENDBRANCH  18  19
ENDBRANCH   1  18
TORSDOF 4
ENDMDL
MODEL 3
REMARK VINA RESULT:      -8.0      1.856      8.744
REMARK  Name = 
REMARK  4 active torsions:
REMARK  status: ('A' for Active; 'I' for Inactive)
REMARK    1  A    between atoms: C_2  and  C_3
REMARK    2  A    between atoms: C_2  and  C_10
REMARK    3  A    between atoms: C_13  and  S_14
REMARK    4  A    between atoms: S_14  and  C_17
REMARK                            x       y       z     vdW  Elec       q    Type
REMARK                         _______ _______ _______ _____ _____    ______ ____
ROOT
ATOM      1  C   UNL     1       1.585   9.145  18.768  0.00  0.00    +0.000 A 
ATOM      2  C   UNL     1       2.303   8.699  17.651  0.00  0.00    +0.000 A 
ATOM      3  C   UNL     1       2.959   7.464  17.685  0.00  0.00    +0.000 A 
ATOM      4  C   UNL     1       2.879   6.672  18.834  0.00  0.00    +0.000 A 
ATOM      5  C   UNL     1       2.160   7.104  19.951  0.00  0.00    +0.000 A 
ATOM      6  C   UNL     1       1.496   8.331  19.908  0.00  0.00    +0.000 A 
ENDROOT
BRANCH   4   7
ATOM      7  S   UNL     1       3.742   5.116  18.897  0.00  0.00    +0.000 S 
ATOM      8  O   UNL     1       4.583   5.137  20.079  0.00  0.00    +0.000 OA
ATOM      9  O   UNL     1       2.756   4.066  18.716  0.00  0.00    +0.000 OA
BRANCH   7  10
ATOM     10  C   UNL     1       4.815   5.087  17.477  0.00  0.00    +0.000 A 
ATOM     11  C   UNL     1       4.449   4.337  16.353  0.00  0.00    +0.000 A 
ATOM     12  C   UNL     1       5.282   4.329  15.232  0.00  0.00    +0.000 A 
ATOM     13  C   UNL     1       6.460   5.076  15.237  0.00  0.00    +0.000 A 
ATOM     14 CL   UNL     1       7.483   5.061  13.852  0.00  0.00    +0.000 Cl
ATOM     15  C   UNL     1       6.814   5.839  16.350  0.00  0.00    +0.000 A 
ATOM     16  C   UNL     1       5.988   5.851  17.477  0.00  0.00    +0.000 A 
ENDBRANCH   7  10
ENDBRANCH   4   7
BRANCH   1  18
ATOM     17  O   UNL     1       1.590  11.495  18.866  0.00  0.00    +0.000 OA
ATOM     18  C   UNL     1       0.922  10.477  18.708  0.00  0.00    +0.000 C 
BRANCH  18  19
ATOM     19  C   UNL     1      -0.538  10.590  18.445  0.00  0.00    +0.000 A 
ATOM     20  C   UNL     1      -1.278  11.560  19.131  0.00  0.00    +0.000 A 
ATOM     21  C   UNL     1      -2.636  11.732  18.846  0.00  0.00    +0.000 A 
ATOM     22  C   UNL     1      -3.250  10.931  17.883  0.00  0.00    +0.000 A 
ATOM     23 CL   UNL     1      -4.908  11.173  17.496  0.00  0.00    +0.000 Cl
ATOM     24  C   UNL     1      -2.528   9.936  17.227  0.00  0.00    +0.000 A 
ATOM     25  C   UNL     1      -1.176   9.752  17.521  0.00  0.00    +0.000 A 
ENDBRANCH  18  19
ENDBRANCH   1  18
TORSDOF 4
ENDMDL
MODEL 4
REMARK VINA RESULT:      -8.0      1.741      8.580
REMARK  Name = 
REMARK  4 active torsions:
REMARK  status: ('A' for Active; 'I' for Inactive)
REMARK    1  A    between atoms: C_2  and  C_3
REMARK    2  A    between atoms: C_2  and  C_10
REMARK    3  A    between atoms: C_13  and  S_14
REMARK    4  A    between atoms: S_14  and  C_17
REMARK                            x       y       z     vdW  Elec       q    Type
REMARK                         _______ _______ _______ _____ _____    ______ ____
ROOT
ATOM      1  C   UNL     1       1.432   9.382  18.867  0.00  0.00    +0.000 A 
ATOM      2  C   UNL     1       1.396   8.612  20.038  0.00  0.00    +0.000 A 
ATOM      3  C   UNL     1       1.999   7.351  20.068  0.00  0.00    +0.000 A 
ATOM      4  C   UNL     1       2.653   6.871  18.928  0.00  0.00    +0.000 A 
ATOM      5  C   UNL     1       2.701   7.633  17.758  0.00  0.00    +0.000 A 
ATOM      6  C   UNL     1       2.109   8.897  17.738  0.00  0.00    +0.000 A 
ENDROOT
BRANCH   4   7
ATOM      7  S   UNL     1       3.390   5.250  18.949  0.00  0.00    +0.000 S 
ATOM      8  O   UNL     1       4.184   5.154  20.159  0.00  0.00    +0.000 OA
ATOM      9  O   UNL     1       2.333   4.291  18.686  0.00  0.00    +0.000 OA
BRANCH   7  10
ATOM     10  C   UNL     1       4.511   5.198  17.568  0.00  0.00    +0.000 A 
ATOM     11  C   UNL     1       5.633   6.033  17.560  0.00  0.00    +0.000 A 
ATOM     12  C   UNL     1       6.522   5.979  16.484  0.00  0.00    +0.000 A 
ATOM     13  C   UNL     1       6.293   5.087  15.437  0.00  0.00    +0.000 A 
ATOM     14 CL   UNL     1       7.392   5.025  14.114  0.00  0.00    +0.000 Cl
ATOM     15  C   UNL     1       5.185   4.239  15.456  0.00  0.00    +0.000 A 
ATOM     16  C   UNL     1       4.289   4.289  16.526  0.00  0.00    +0.000 A 
ENDBRANCH   7  10
ENDBRANCH   4   7
BRANCH   1  18
ATOM     17  O   UNL     1       1.401  11.718  19.132  0.00  0.00    +0.000 OA
ATOM     18  C   UNL     1       0.757  10.709  18.862  0.00  0.00    +0.000 C 
BRANCH  18  19
ATOM     19  C   UNL     1      -0.685  10.827  18.518  0.00  0.00    +0.000 A 
ATOM     20  C   UNL     1      -1.238   9.934  17.591  0.00  0.00    +0.000 A 
ATOM     21  C   UNL     1      -2.607   9.981  17.309  0.00  0.00    +0.000 A 
ATOM     22  C   UNL     1      -3.416  10.921  17.948  0.00  0.00    +0.000 A 
ATOM     23 CL   UNL     1      -5.107  10.948  17.638  0.00  0.00    +0.000 Cl
ATOM     24  C   UNL     1      -2.864  11.839  18.840  0.00  0.00    +0.000 A 
ATOM     25  C   UNL     1      -1.495  11.805  19.111  0.00  0.00    +0.000 A 
ENDBRANCH  18  19
ENDBRANCH   1  18
TORSDOF 4
ENDMDL
MODEL 5
REMARK VINA RESULT:      -7.9      1.712      8.619
REMARK  Name = 
REMARK  4 active torsions:
REMARK  status: ('A' for Active; 'I' for Inactive)
REMARK    1  A    between atoms: C_2  and  C_3
REMARK    2  A    between atoms: C_2  and  C_10
REMARK    3  A    between atoms: C_13  and  S_14
REMARK    4  A    between atoms: S_14  and  C_17
REMARK                            x       y       z     vdW  Elec       q    Type
REMARK                         _______ _______ _______ _____ _____    ______ ____
ROOT
ATOM      1  C   UNL     1       1.295   9.313  19.039  0.00  0.00    +0.000 A 
ATOM      2  C   UNL     1       1.374   8.561  20.219  0.00  0.00    +0.000 A 
ATOM      3  C   UNL     1       1.960   7.291  20.204  0.00  0.00    +0.000 A 
ATOM      4  C   UNL     1       2.482   6.786  19.009  0.00  0.00    +0.000 A 
ATOM      5  C   UNL     1       2.415   7.531  17.829  0.00  0.00    +0.000 A 
ATOM      6  C   UNL     1       1.841   8.803  17.852  0.00  0.00    +0.000 A 
ENDROOT
BRANCH   4   7
ATOM      7  S   UNL     1       3.196   5.155  18.976  0.00  0.00    +0.000 S 
ATOM      8  O   UNL     1       3.956   4.993  20.201  0.00  0.00    +0.000 OA
ATOM      9  O   UNL     1       2.133   4.225  18.643  0.00  0.00    +0.000 OA
BRANCH   7  10
ATOM     10  C   UNL     1       4.352   5.147  17.623  0.00  0.00    +0.000 A 
ATOM     11  C   UNL     1       5.363   6.113  17.576  0.00  0.00    +0.000 A 
ATOM     12  C   UNL     1       6.281   6.096  16.524  0.00  0.00    +0.000 A 
ATOM     13  C   UNL     1       6.192   5.111  15.540  0.00  0.00    +0.000 A 
ATOM     14 CL   UNL     1       7.326   5.096  14.245  0.00  0.00    +0.000 Cl
ATOM     15  C   UNL     1       5.196   4.135  15.599  0.00  0.00    +0.000 A 
ATOM     16  C   UNL     1       4.272   4.147  16.646  0.00  0.00    +0.000 A 
ENDBRANCH   7  10
ENDBRANCH   4   7
BRANCH   1  18
ATOM     17  O   UNL     1       1.291  11.632  19.432  0.00  0.00    +0.000 OA
ATOM     18  C   UNL     1       0.641  10.650  19.085  0.00  0.00    +0.000 C 
BRANCH  18  19
ATOM     19  C   UNL     1      -0.787  10.812  18.702  0.00  0.00    +0.000 A 
ATOM     20  C   UNL     1      -1.568  11.759  19.377  0.00  0.00    +0.000 A 
ATOM     21  C   UNL     1      -2.892  11.979  18.985  0.00  0.00    +0.000 A 
ATOM     22  C   UNL     1      -3.432  11.249  17.926  0.00  0.00    +0.000 A 
ATOM     23 CL   UNL     1      -5.044  11.552  17.410  0.00  0.00    +0.000 Cl
ATOM     24  C   UNL     1      -2.673  10.276  17.278  0.00  0.00    +0.000 A 
ATOM     25  C   UNL     1      -1.357  10.043  17.678  0.00  0.00    +0.000 A 
ENDBRANCH  18  19
ENDBRANCH   1  18
TORSDOF 4
ENDMDL
MODEL 6
REMARK VINA RESULT:      -7.9      0.303      1.017
REMARK  Name = 
REMARK  4 active torsions:
REMARK  status: ('A' for Active; 'I' for Inactive)
REMARK    1  A    between atoms: C_2  and  C_3
REMARK    2  A    between atoms: C_2  and  C_10
REMARK    3  A    between atoms: C_13  and  S_14
REMARK    4  A    between atoms: S_14  and  C_17
REMARK                            x       y       z     vdW  Elec       q    Type
REMARK                         _______ _______ _______ _____ _____    ______ ____
ROOT
ATOM      1  C   UNL     1       2.157   6.845  19.620  0.00  0.00    +0.000 A 
ATOM      2  C   UNL     1       2.328   7.705  18.527  0.00  0.00    +0.000 A 
ATOM      3  C   UNL     1       1.885   9.029  18.599  0.00  0.00    +0.000 A 
ATOM      4  C   UNL     1       1.286   9.493  19.775  0.00  0.00    +0.000 A 
ATOM      5  C   UNL     1       1.116   8.646  20.873  0.00  0.00    +0.000 A 
ATOM      6  C   UNL     1       1.573   7.329  20.801  0.00  0.00    +0.000 A 
ENDROOT
BRANCH   4   7
ATOM      7  S   UNL     1       0.685  11.167  19.859  0.00  0.00    +0.000 S 
ATOM      8  O   UNL     1       0.575  11.515  21.263  0.00  0.00    +0.000 OA
ATOM      9  O   UNL     1       1.505  11.966  18.967  0.00  0.00    +0.000 OA
BRANCH   7  10
ATOM     10  C   UNL     1      -0.961  11.138  19.184  0.00  0.00    +0.000 A 
ATOM     11  C   UNL     1      -1.919  12.036  19.667  0.00  0.00    +0.000 A 
ATOM     12  C   UNL     1      -3.206  12.025  19.125  0.00  0.00    +0.000 A 
ATOM     13  C   UNL     1      -3.521  11.133  18.100  0.00  0.00    +0.000 A 
ATOM     14 CL   UNL     1      -5.108  11.124  17.435  0.00  0.00    +0.000 Cl
ATOM     15  C   UNL     1      -2.558  10.252  17.603  0.00  0.00    +0.000 A 
ATOM     16  C   UNL     1      -1.269  10.254  18.143  0.00  0.00    +0.000 A 
ENDBRANCH   7  10
ENDBRANCH   4   7
BRANCH   1  18
ATOM     17  O   UNL     1       2.004   4.545  20.085  0.00  0.00    +0.000 OA
ATOM     18  C   UNL     1       2.616   5.433  19.500  0.00  0.00    +0.000 C 
BRANCH  18  19
ATOM     19  C   UNL     1       3.799   5.086  18.668  0.00  0.00    +0.000 A 
ATOM     20  C   UNL     1       3.597   4.531  17.398  0.00  0.00    +0.000 A 
ATOM     21  C   UNL     1       4.692   4.265  16.571  0.00  0.00    +0.000 A 
ATOM     22  C   UNL     1       5.984   4.547  17.017  0.00  0.00    +0.000 A 
ATOM     23 CL   UNL     1       7.328   4.266  15.982  0.00  0.00    +0.000 Cl
ATOM     24  C   UNL     1       6.194   5.061  18.295  0.00  0.00    +0.000 A 
ATOM     25  C   UNL     1       5.103   5.312  19.129  0.00  0.00    +0.000 A 
ENDBRANCH  18  19
ENDBRANCH   1  18
TORSDOF 4
ENDMDL
MODEL 7
REMARK VINA RESULT:      -7.8      0.788      1.468
REMARK  Name = 
REMARK  4 active torsions:
REMARK  status: ('A' for Active; 'I' for Inactive)
REMARK    1  A    between atoms: C_2  and  C_3
REMARK    2  A    between atoms: C_2  and  C_10
REMARK    3  A    between atoms: C_13  and  S_14
REMARK    4  A    between atoms: S_14  and  C_17
REMARK                            x       y       z     vdW  Elec       q    Type
REMARK                         _______ _______ _______ _____ _____    ______ ____
ROOT
ATOM      1  C   UNL     1       2.245   7.437  19.233  0.00  0.00    +0.000 A 
ATOM      2  C   UNL     1       1.651   7.875  20.424  0.00  0.00    +0.000 A 
ATOM      3  C   UNL     1       1.068   9.144  20.493  0.00  0.00    +0.000 A 
ATOM      4  C   UNL     1       1.068   9.965  19.361  0.00  0.00    +0.000 A 
ATOM      5  C   UNL     1       1.652   9.535  18.166  0.00  0.00    +0.000 A 
ATOM      6  C   UNL     1       2.220   8.263  18.099  0.00  0.00    +0.000 A 
ENDROOT
BRANCH   4   7
ATOM      7  S   UNL     1       0.361  11.597  19.453  0.00  0.00    +0.000 S 
ATOM      8  O   UNL     1       0.370  11.992  20.849  0.00  0.00    +0.000 OA
ATOM      9  O   UNL     1       1.027  12.414  18.454  0.00  0.00    +0.000 OA
BRANCH   7  10
ATOM     10  C   UNL     1      -1.339  11.430  18.954  0.00  0.00    +0.000 A 
ATOM     11  C   UNL     1      -1.687  10.457  18.010  0.00  0.00    +0.000 A 
ATOM     12  C   UNL     1      -3.024  10.314  17.632  0.00  0.00    +0.000 A 
ATOM     13  C   UNL     1      -3.999  11.128  18.206  0.00  0.00    +0.000 A 
ATOM     14 CL   UNL     1      -5.645  10.947  17.736  0.00  0.00    +0.000 Cl
ATOM     15  C   UNL     1      -3.655  12.084  19.163  0.00  0.00    +0.000 A 
ATOM     16  C   UNL     1      -2.319  12.236  19.545  0.00  0.00    +0.000 A 
ENDBRANCH   7  10
ENDBRANCH   4   7
BRANCH   1  18
ATOM     17  O   UNL     1       2.701   5.315  20.138  0.00  0.00    +0.000 OA
ATOM     18  C   UNL     1       2.880   6.090  19.203  0.00  0.00    +0.000 C 
BRANCH  18  19
ATOM     19  C   UNL     1       3.717   5.668  18.048  0.00  0.00    +0.000 A 
ATOM     20  C   UNL     1       4.670   6.560  17.539  0.00  0.00    +0.000 A 
ATOM     21  C   UNL     1       5.517   6.158  16.502  0.00  0.00    +0.000 A 
ATOM     22  C   UNL     1       5.405   4.871  15.973  0.00  0.00    +0.000 A 
ATOM     23 CL   UNL     1       6.477   4.358  14.731  0.00  0.00    +0.000 Cl
ATOM     24  C   UNL     1       4.431   3.994  16.448  0.00  0.00    +0.000 A 
ATOM     25  C   UNL     1       3.573   4.399  17.472  0.00  0.00    +0.000 A 
ENDBRANCH  18  19
ENDBRANCH   1  18
TORSDOF 4
ENDMDL
MODEL 8
REMARK VINA RESULT:      -7.7      0.225      1.389
REMARK  Name = 
REMARK  4 active torsions:
REMARK  status: ('A' for Active; 'I' for Inactive)
REMARK    1  A    between atoms: C_2  and  C_3
REMARK    2  A    between atoms: C_2  and  C_10
REMARK    3  A    between atoms: C_13  and  S_14
REMARK    4  A    between atoms: S_14  and  C_17
REMARK                            x       y       z     vdW  Elec       q    Type
REMARK                         _______ _______ _______ _____ _____    ______ ____
ROOT
ATOM      1  C   UNL     1       2.086   7.232  19.647  0.00  0.00    +0.000 A 
ATOM      2  C   UNL     1       2.233   8.038  18.511  0.00  0.00    +0.000 A 
ATOM      3  C   UNL     1       1.727   9.342  18.505  0.00  0.00    +0.000 A 
ATOM      4  C   UNL     1       1.089   9.840  19.646  0.00  0.00    +0.000 A 
ATOM      5  C   UNL     1       0.943   9.046  20.786  0.00  0.00    +0.000 A 
ATOM      6  C   UNL     1       1.462   7.750  20.792  0.00  0.00    +0.000 A 
ENDROOT
BRANCH   4   7
ATOM      7  S   UNL     1       0.409  11.486  19.631  0.00  0.00    +0.000 S 
ATOM      8  O   UNL     1       0.374  11.950  21.005  0.00  0.00    +0.000 OA
ATOM      9  O   UNL     1       1.126  12.240  18.619  0.00  0.00    +0.000 OA
BRANCH   7  10
ATOM     10  C   UNL     1      -1.275  11.322  19.078  0.00  0.00    +0.000 A 
ATOM     11  C   UNL     1      -2.245  12.208  19.556  0.00  0.00    +0.000 A 
ATOM     12  C   UNL     1      -3.563  12.091  19.109  0.00  0.00    +0.000 A 
ATOM     13  C   UNL     1      -3.897  11.104  18.182  0.00  0.00    +0.000 A 
ATOM     14 CL   UNL     1      -5.522  10.964  17.634  0.00  0.00    +0.000 Cl
ATOM     15  C   UNL     1      -2.923  10.233  17.689  0.00  0.00    +0.000 A 
ATOM     16  C   UNL     1      -1.603  10.341  18.134  0.00  0.00    +0.000 A 
ENDBRANCH   7  10
ENDBRANCH   4   7
BRANCH   1  18
ATOM     17  O   UNL     1       2.087   4.974  20.304  0.00  0.00    +0.000 OA
ATOM     18  C   UNL     1       2.613   5.839  19.610  0.00  0.00    +0.000 C 
BRANCH  18  19
ATOM     19  C   UNL     1       3.759   5.482  18.733  0.00  0.00    +0.000 A 
ATOM     20  C   UNL     1       5.063   5.673  19.208  0.00  0.00    +0.000 A 
ATOM     21  C   UNL     1       6.154   5.276  18.429  0.00  0.00    +0.000 A 
ATOM     22  C   UNL     1       5.939   4.697  17.177  0.00  0.00    +0.000 A 
ATOM     23 CL   UNL     1       7.278   4.164  16.239  0.00  0.00    +0.000 Cl
ATOM     24  C   UNL     1       4.646   4.542  16.682  0.00  0.00    +0.000 A 
ATOM     25  C   UNL     1       3.556   4.953  17.451  0.00  0.00    +0.000 A 
ENDBRANCH  18  19
ENDBRANCH   1  18
TORSDOF 4
ENDMDL
MODEL 9
REMARK VINA RESULT:      -7.7      0.564      1.737
REMARK  Name = 
REMARK  4 active torsions:
REMARK  status: ('A' for Active; 'I' for Inactive)
REMARK    1  A    between atoms: C_2  and  C_3
REMARK    2  A    between atoms: C_2  and  C_10
REMARK    3  A    between atoms: C_13  and  S_14
REMARK    4  A    between atoms: S_14  and  C_17
REMARK                            x       y       z     vdW  Elec       q    Type
REMARK                         _______ _______ _______ _____ _____    ______ ____
ROOT
ATOM      1  C   UNL     1       2.062   7.355  19.658  0.00  0.00    +0.000 A 
ATOM      2  C   UNL     1       2.178   8.096  18.474  0.00  0.00    +0.000 A 
ATOM      3  C   UNL     1       1.685   9.403  18.412  0.00  0.00    +0.000 A 
ATOM      4  C   UNL     1       1.091   9.971  19.544  0.00  0.00    +0.000 A 
ATOM      5  C   UNL     1       0.976   9.243  20.731  0.00  0.00    +0.000 A 
ATOM      6  C   UNL     1       1.482   7.944  20.792  0.00  0.00    +0.000 A 
ENDROOT
BRANCH   4   7
ATOM      7  S   UNL     1       0.427  11.621  19.460  0.00  0.00    +0.000 S 
ATOM      8  O   UNL     1       0.429  12.155  20.808  0.00  0.00    +0.000 OA
ATOM      9  O   UNL     1       1.126  12.314  18.393  0.00  0.00    +0.000 OA
BRANCH   7  10
ATOM     10  C   UNL     1      -1.271  11.447  18.955  0.00  0.00    +0.000 A 
ATOM     11  C   UNL     1      -1.617  10.451  18.035  0.00  0.00    +0.000 A 
ATOM     12  C   UNL     1      -2.952  10.303  17.654  0.00  0.00    +0.000 A 
ATOM     13  C   UNL     1      -3.928  11.136  18.200  0.00  0.00    +0.000 A 
ATOM     14 CL   UNL     1      -5.572  10.948  17.726  0.00  0.00    +0.000 Cl
ATOM     15  C   UNL     1      -3.585  12.115  19.134  0.00  0.00    +0.000 A 
ATOM     16  C   UNL     1      -2.251  12.272  19.519  0.00  0.00    +0.000 A 
ENDBRANCH   7  10
ENDBRANCH   4   7
BRANCH   1  18
ATOM     17  O   UNL     1       2.297   5.226  20.628  0.00  0.00    +0.000 OA
ATOM     18  C   UNL     1       2.574   5.957  19.681  0.00  0.00    +0.000 C 
BRANCH  18  19
ATOM     19  C   UNL     1       3.405   5.432  18.565  0.00  0.00    +0.000 A 
ATOM     20  C   UNL     1       4.660   6.004  18.325  0.00  0.00    +0.000 A 
ATOM     21  C   UNL     1       5.488   5.478  17.329  0.00  0.00    +0.000 A 
ATOM     22  C   UNL     1       5.057   4.388  16.572  0.00  0.00    +0.000 A 
ATOM     23 CL   UNL     1       6.092   3.710  15.379  0.00  0.00    +0.000 Cl
ATOM     24  C   UNL     1       3.792   3.841  16.778  0.00  0.00    +0.000 A 
ATOM     25  C   UNL     1       2.957   4.375  17.761  0.00  0.00    +0.000 A 
ENDBRANCH  18  19
ENDBRANCH   1  18
TORSDOF 4
ENDMDL
