MODEL 1
REMARK VINA RESULT:      -8.3      0.000      0.000
REMARK  Name = 
REMARK  7 active torsions:
REMARK  status: ('A' for Active; 'I' for Inactive)
REMARK    1  A    between atoms: C_2  and  O_16
REMARK    2  A    between atoms: N_3  and  C_4
REMARK    3  A    between atoms: C_9  and  N_10
REMARK    4  A    between atoms: O_16  and  C_17
REMARK    5  A    between atoms: C_17  and  C_18
REMARK    6  A    between atoms: C_21  and  O_22
REMARK    7  A    between atoms: O_22  and  C_23
REMARK                            x       y       z     vdW  Elec       q    Type
REMARK                         _______ _______ _______ _____ _____    ______ ____
ROOT
ATOM      1  O   UNL     1       2.461   5.077  20.711  0.00  0.00    +0.000 OA
ATOM      2  C   UNL     1       2.698   4.798  19.545  0.00  0.00    +0.000 C 
ATOM      3  N   UNL     1       3.125   3.545  19.201  0.00  0.00    +0.000 N 
ATOM      4  H   UNL     1       3.003   2.926  19.995  0.00  0.00    +0.000 HD
ENDROOT
BRANCH   3   5
ATOM      5  C   UNL     1       4.380   3.356  18.463  0.00  0.00    +0.000 C 
ATOM      6  C   UNL     1       5.491   4.262  19.020  0.00  0.00    +0.000 C 
ATOM      7  O   UNL     1       6.656   4.380  18.201  0.00  0.00    +0.000 OA
ATOM      8  C   UNL     1       6.460   4.435  16.891  0.00  0.00    +0.000 A 
ATOM      9  N   UNL     1       7.371   4.812  16.024  0.00  0.00    +0.000 NA
ATOM     10  C   UNL     1       6.769   4.654  14.789  0.00  0.00    +0.000 A 
ATOM     11  C   UNL     1       5.481   4.168  14.923  0.00  0.00    +0.000 A 
ATOM     12  N   UNL     1       5.313   4.042  16.270  0.00  0.00    +0.000 N 
ATOM     13  C   UNL     1       4.131   3.608  16.965  0.00  0.00    +0.000 C 
BRANCH  10  14
ATOM     14  N   UNL     1       7.458   4.969  13.559  0.00  0.00    +0.000 N 
ATOM     15  O   UNL     1       7.077   4.375  12.540  0.00  0.00    +0.000 OA
ATOM     16  O   UNL     1       8.373   5.807  13.605  0.00  0.00    +0.000 OA
ENDBRANCH  10  14
ENDBRANCH   3   5
BRANCH   2  17
ATOM     17  O   UNL     1       2.563   5.609  18.472  0.00  0.00    +0.000 OA
BRANCH  17  18
ATOM     18  C   UNL     1       3.177   6.904  18.583  0.00  0.00    +0.000 C 
BRANCH  18  19
ATOM     19  C   UNL     1       2.179   8.021  18.789  0.00  0.00    +0.000 A 
ATOM     20  C   UNL     1       1.602   8.228  20.048  0.00  0.00    +0.000 A 
ATOM     21  C   UNL     1       0.663   9.244  20.246  0.00  0.00    +0.000 A 
ATOM     22  C   UNL     1       0.299  10.092  19.201  0.00  0.00    +0.000 A 
ATOM     23  C   UNL     1       0.846   9.877  17.937  0.00  0.00    +0.000 A 
ATOM     24  C   UNL     1       1.789   8.857  17.735  0.00  0.00    +0.000 A 
BRANCH  22  25
ATOM     25  O   UNL     1      -0.644  11.017  19.523  0.00  0.00    +0.000 OA
BRANCH  25  26
ATOM     26  C   UNL     1      -1.793  11.174  18.705  0.00  0.00    +0.000 C 
ATOM     27  F   UNL     1      -1.584  11.874  17.571  0.00  0.00    +0.000 F 
ATOM     28  F   UNL     1      -2.272   9.954  18.378  0.00  0.00    +0.000 F 
ATOM     29  F   UNL     1      -2.744  11.820  19.418  0.00  0.00    +0.000 F 
ENDBRANCH  25  26
ENDBRANCH  22  25
ENDBRANCH  18  19
ENDBRANCH  17  18
ENDBRANCH   2  17
TORSDOF 7
ENDMDL
MODEL 2
REMARK VINA RESULT:      -7.9      0.893      1.054
REMARK  Name = 
REMARK  7 active torsions:
REMARK  status: ('A' for Active; 'I' for Inactive)
REMARK    1  A    between atoms: C_2  and  O_16
REMARK    2  A    between atoms: N_3  and  C_4
REMARK    3  A    between atoms: C_9  and  N_10
REMARK    4  A    between atoms: O_16  and  C_17
REMARK    5  A    between atoms: C_17  and  C_18
REMARK    6  A    between atoms: C_21  and  O_22
REMARK    7  A    between atoms: O_22  and  C_23
REMARK                            x       y       z     vdW  Elec       q    Type
REMARK                         _______ _______ _______ _____ _____    ______ ____
ROOT
ATOM      1  O   UNL     1       2.690   4.423  20.959  0.00  0.00    +0.000 OA
ATOM      2  C   UNL     1       3.104   4.769  19.862  0.00  0.00    +0.000 C 
ATOM      3  N   UNL     1       3.205   3.867  18.839  0.00  0.00    +0.000 N 
ATOM      4  H   UNL     1       2.720   3.016  19.101  0.00  0.00    +0.000 HD
ENDROOT
BRANCH   3   5
ATOM      5  C   UNL     1       4.484   3.655  18.149  0.00  0.00    +0.000 C 
ATOM      6  C   UNL     1       5.576   4.583  18.712  0.00  0.00    +0.000 C 
ATOM      7  O   UNL     1       6.767   4.675  17.928  0.00  0.00    +0.000 OA
ATOM      8  C   UNL     1       6.614   4.686  16.611  0.00  0.00    +0.000 A 
ATOM      9  N   UNL     1       7.553   5.035  15.762  0.00  0.00    +0.000 NA
ATOM     10  C   UNL     1       6.992   4.834  14.514  0.00  0.00    +0.000 A 
ATOM     11  C   UNL     1       5.701   4.350  14.622  0.00  0.00    +0.000 A 
ATOM     12  N   UNL     1       5.488   4.269  15.967  0.00  0.00    +0.000 N 
ATOM     13  C   UNL     1       4.285   3.856  16.637  0.00  0.00    +0.000 C 
BRANCH  10  14
ATOM     14  N   UNL     1       7.720   5.109  13.298  0.00  0.00    +0.000 N 
ATOM     15  O   UNL     1       7.305   4.564  12.265  0.00  0.00    +0.000 OA
ATOM     16  O   UNL     1       8.702   5.867  13.368  0.00  0.00    +0.000 OA
ENDBRANCH  10  14
ENDBRANCH   3   5
BRANCH   2  17
ATOM     17  O   UNL     1       3.476   6.013  19.490  0.00  0.00    +0.000 OA
BRANCH  17  18
ATOM     18  C   UNL     1       2.683   6.622  18.456  0.00  0.00    +0.000 C 
BRANCH  18  19
ATOM     19  C   UNL     1       2.079   7.945  18.869  0.00  0.00    +0.000 A 
ATOM     20  C   UNL     1       1.524   8.099  20.146  0.00  0.00    +0.000 A 
ATOM     21  C   UNL     1       0.944   9.309  20.533  0.00  0.00    +0.000 A 
ATOM     22  C   UNL     1       0.928  10.402  19.666  0.00  0.00    +0.000 A 
ATOM     23  C   UNL     1       1.453  10.252  18.383  0.00  0.00    +0.000 A 
ATOM     24  C   UNL     1       2.035   9.036  17.992  0.00  0.00    +0.000 A 
BRANCH  22  25
ATOM     25  O   UNL     1       0.309  11.508  20.158  0.00  0.00    +0.000 OA
BRANCH  25  26
ATOM     26  C   UNL     1      -1.108  11.563  20.210  0.00  0.00    +0.000 C 
ATOM     27  F   UNL     1      -1.736  10.709  19.376  0.00  0.00    +0.000 F 
ATOM     28  F   UNL     1      -1.513  11.309  21.474  0.00  0.00    +0.000 F 
ATOM     29  F   UNL     1      -1.501  12.817  19.889  0.00  0.00    +0.000 F 
ENDBRANCH  25  26
ENDBRANCH  22  25
ENDBRANCH  18  19
ENDBRANCH  17  18
ENDBRANCH   2  17
TORSDOF 7
ENDMDL
MODEL 3
REMARK VINA RESULT:      -7.8      1.832      2.465
REMARK  Name = 
REMARK  7 active torsions:
REMARK  status: ('A' for Active; 'I' for Inactive)
REMARK    1  A    between atoms: C_2  and  O_16
REMARK    2  A    between atoms: N_3  and  C_4
REMARK    3  A    between atoms: C_9  and  N_10
REMARK    4  A    between atoms: O_16  and  C_17
REMARK    5  A    between atoms: C_17  and  C_18
REMARK    6  A    between atoms: C_21  and  O_22
REMARK    7  A    between atoms: O_22  and  C_23
REMARK                            x       y       z     vdW  Elec       q    Type
REMARK                         _______ _______ _______ _____ _____    ______ ____
ROOT
ATOM      1  O   UNL     1       1.209   2.606  22.190  0.00  0.00    +0.000 OA
ATOM      2  C   UNL     1       1.406   2.921  21.025  0.00  0.00    +0.000 C 
ATOM      3  N   UNL     1       1.763   1.980  20.099  0.00  0.00    +0.000 N 
ATOM      4  H   UNL     1       1.630   1.057  20.499  0.00  0.00    +0.000 HD
ENDROOT
BRANCH   3   5
ATOM      5  C   UNL     1       2.990   2.134  19.308  0.00  0.00    +0.000 C 
ATOM      6  C   UNL     1       4.142   2.674  20.173  0.00  0.00    +0.000 C 
ATOM      7  O   UNL     1       5.285   3.139  19.452  0.00  0.00    +0.000 OA
ATOM      8  C   UNL     1       5.051   3.788  18.320  0.00  0.00    +0.000 A 
ATOM      9  N   UNL     1       5.947   4.509  17.684  0.00  0.00    +0.000 NA
ATOM     10  C   UNL     1       5.304   4.938  16.537  0.00  0.00    +0.000 A 
ATOM     11  C   UNL     1       4.008   4.458  16.485  0.00  0.00    +0.000 A 
ATOM     12  N   UNL     1       3.876   3.733  17.633  0.00  0.00    +0.000 N 
ATOM     13  C   UNL     1       2.704   3.043  18.100  0.00  0.00    +0.000 C 
BRANCH  10  14
ATOM     14  N   UNL     1       5.965   5.770  15.560  0.00  0.00    +0.000 N 
ATOM     15  O   UNL     1       6.999   5.316  15.049  0.00  0.00    +0.000 OA
ATOM     16  O   UNL     1       5.456   6.873  15.298  0.00  0.00    +0.000 OA
ENDBRANCH  10  14
ENDBRANCH   3   5
BRANCH   2  17
ATOM     17  O   UNL     1       1.285   4.154  20.486  0.00  0.00    +0.000 OA
BRANCH  17  18
ATOM     18  C   UNL     1       2.139   5.169  21.043  0.00  0.00    +0.000 C 
BRANCH  18  19
ATOM     19  C   UNL     1       1.815   6.559  20.545  0.00  0.00    +0.000 A 
ATOM     20  C   UNL     1       2.227   6.966  19.269  0.00  0.00    +0.000 A 
ATOM     21  C   UNL     1       1.952   8.254  18.805  0.00  0.00    +0.000 A 
ATOM     22  C   UNL     1       1.237   9.157  19.592  0.00  0.00    +0.000 A 
ATOM     23  C   UNL     1       0.845   8.773  20.873  0.00  0.00    +0.000 A 
ATOM     24  C   UNL     1       1.122   7.478  21.341  0.00  0.00    +0.000 A 
BRANCH  22  25
ATOM     25  O   UNL     1       1.063  10.384  19.031  0.00  0.00    +0.000 OA
BRANCH  25  26
ATOM     26  C   UNL     1      -0.223  10.787  18.589  0.00  0.00    +0.000 C 
ATOM     27  F   UNL     1      -0.704  10.086  17.542  0.00  0.00    +0.000 F 
ATOM     28  F   UNL     1      -1.095  10.682  19.616  0.00  0.00    +0.000 F 
ATOM     29  F   UNL     1      -0.164  12.088  18.223  0.00  0.00    +0.000 F 
ENDBRANCH  25  26
ENDBRANCH  22  25
ENDBRANCH  18  19
ENDBRANCH  17  18
ENDBRANCH   2  17
TORSDOF 7
ENDMDL
MODEL 4
REMARK VINA RESULT:      -7.8      0.910      1.165
REMARK  Name = 
REMARK  7 active torsions:
REMARK  status: ('A' for Active; 'I' for Inactive)
REMARK    1  A    between atoms: C_2  and  O_16
REMARK    2  A    between atoms: N_3  and  C_4
REMARK    3  A    between atoms: C_9  and  N_10
REMARK    4  A    between atoms: O_16  and  C_17
REMARK    5  A    between atoms: C_17  and  C_18
REMARK    6  A    between atoms: C_21  and  O_22
REMARK    7  A    between atoms: O_22  and  C_23
REMARK                            x       y       z     vdW  Elec       q    Type
REMARK                         _______ _______ _______ _____ _____    ______ ____
ROOT
ATOM      1  O   UNL     1       1.507   4.205  21.213  0.00  0.00    +0.000 OA
ATOM      2  C   UNL     1       1.867   4.245  20.046  0.00  0.00    +0.000 C 
ATOM      3  N   UNL     1       2.163   3.096  19.366  0.00  0.00    +0.000 N 
ATOM      4  H   UNL     1       1.848   2.301  19.912  0.00  0.00    +0.000 HD
ENDROOT
BRANCH   3   5
ATOM      5  C   UNL     1       3.472   2.919  18.725  0.00  0.00    +0.000 C 
ATOM      6  C   UNL     1       4.569   3.682  19.488  0.00  0.00    +0.000 C 
ATOM      7  O   UNL     1       5.811   3.825  18.797  0.00  0.00    +0.000 OA
ATOM      8  C   UNL     1       5.744   4.049  17.492  0.00  0.00    +0.000 A 
ATOM      9  N   UNL     1       6.753   4.470  16.763  0.00  0.00    +0.000 NA
ATOM     10  C   UNL     1       6.264   4.498  15.469  0.00  0.00    +0.000 A 
ATOM     11  C   UNL     1       4.947   4.080  15.427  0.00  0.00    +0.000 A 
ATOM     12  N   UNL     1       4.644   3.804  16.727  0.00  0.00    +0.000 N 
ATOM     13  C   UNL     1       3.381   3.364  17.255  0.00  0.00    +0.000 C 
BRANCH  10  14
ATOM     14  N   UNL     1       7.083   4.915  14.355  0.00  0.00    +0.000 N 
ATOM     15  O   UNL     1       6.827   4.405  13.254  0.00  0.00    +0.000 OA
ATOM     16  O   UNL     1       7.977   5.750  14.572  0.00  0.00    +0.000 OA
ENDBRANCH  10  14
ENDBRANCH   3   5
BRANCH   2  17
ATOM     17  O   UNL     1       1.995   5.347  19.274  0.00  0.00    +0.000 OA
BRANCH  17  18
ATOM     18  C   UNL     1       2.592   6.492  19.908  0.00  0.00    +0.000 C 
BRANCH  18  19
ATOM     19  C   UNL     1       1.918   7.795  19.541  0.00  0.00    +0.000 A 
ATOM     20  C   UNL     1       1.226   8.529  20.513  0.00  0.00    +0.000 A 
ATOM     21  C   UNL     1       0.583   9.724  20.183  0.00  0.00    +0.000 A 
ATOM     22  C   UNL     1       0.636  10.227  18.883  0.00  0.00    +0.000 A 
ATOM     23  C   UNL     1       1.298   9.491  17.902  0.00  0.00    +0.000 A 
ATOM     24  C   UNL     1       1.946   8.289  18.232  0.00  0.00    +0.000 A 
BRANCH  22  25
ATOM     25  O   UNL     1      -0.056  11.382  18.693  0.00  0.00    +0.000 OA
BRANCH  25  26
ATOM     26  C   UNL     1      -1.436  11.336  18.365  0.00  0.00    +0.000 C 
ATOM     27  F   UNL     1      -2.259  11.811  19.321  0.00  0.00    +0.000 F 
ATOM     28  F   UNL     1      -1.642  12.038  17.229  0.00  0.00    +0.000 F 
ATOM     29  F   UNL     1      -1.779  10.049  18.127  0.00  0.00    +0.000 F 
ENDBRANCH  25  26
ENDBRANCH  22  25
ENDBRANCH  18  19
ENDBRANCH  17  18
ENDBRANCH   2  17
TORSDOF 7
ENDMDL
MODEL 5
REMARK VINA RESULT:      -7.8      4.367      7.982
REMARK  Name = 
REMARK  7 active torsions:
REMARK  status: ('A' for Active; 'I' for Inactive)
REMARK    1  A    between atoms: C_2  and  O_16
REMARK    2  A    between atoms: N_3  and  C_4
REMARK    3  A    between atoms: C_9  and  N_10
REMARK    4  A    between atoms: O_16  and  C_17
REMARK    5  A    between atoms: C_17  and  C_18
REMARK    6  A    between atoms: C_21  and  O_22
REMARK    7  A    between atoms: O_22  and  C_23
REMARK                            x       y       z     vdW  Elec       q    Type
REMARK                         _______ _______ _______ _____ _____    ______ ____
ROOT
ATOM      1  O   UNL     1       1.888   3.432  21.859  0.00  0.00    +0.000 OA
ATOM      2  C   UNL     1       2.064   4.021  20.802  0.00  0.00    +0.000 C 
ATOM      3  N   UNL     1       2.501   5.316  20.790  0.00  0.00    +0.000 N 
ATOM      4  H   UNL     1       2.812   5.568  21.723  0.00  0.00    +0.000 HD
ENDROOT
BRANCH   3   5
ATOM      5  C   UNL     1       1.736   6.360  20.097  0.00  0.00    +0.000 C 
ATOM      6  C   UNL     1       2.490   6.864  18.853  0.00  0.00    +0.000 C 
ATOM      7  O   UNL     1       1.987   8.071  18.277  0.00  0.00    +0.000 OA
ATOM      8  C   UNL     1       1.564   9.002  19.121  0.00  0.00    +0.000 A 
ATOM      9  N   UNL     1       1.333  10.251  18.786  0.00  0.00    +0.000 NA
ATOM     10  C   UNL     1       0.849  10.841  19.939  0.00  0.00    +0.000 A 
ATOM     11  C   UNL     1       0.784   9.927  20.975  0.00  0.00    +0.000 A 
ATOM     12  N   UNL     1       1.248   8.769  20.425  0.00  0.00    +0.000 N 
ATOM     13  C   UNL     1       1.426   7.501  21.081  0.00  0.00    +0.000 C 
BRANCH  10  14
ATOM     14  N   UNL     1       0.473  12.235  19.982  0.00  0.00    +0.000 N 
ATOM     15  O   UNL     1      -0.143  12.615  20.989  0.00  0.00    +0.000 OA
ATOM     16  O   UNL     1       0.791  12.952  19.019  0.00  0.00    +0.000 OA
ENDBRANCH  10  14
ENDBRANCH   3   5
BRANCH   2  17
ATOM     17  O   UNL     1       1.899   3.522  19.558  0.00  0.00    +0.000 OA
BRANCH  17  18
ATOM     18  C   UNL     1       2.968   2.695  19.066  0.00  0.00    +0.000 C 
BRANCH  18  19
ATOM     19  C   UNL     1       4.110   3.488  18.471  0.00  0.00    +0.000 A 
ATOM     20  C   UNL     1       5.224   3.816  19.254  0.00  0.00    +0.000 A 
ATOM     21  C   UNL     1       6.276   4.566  18.723  0.00  0.00    +0.000 A 
ATOM     22  C   UNL     1       6.253   4.982  17.392  0.00  0.00    +0.000 A 
ATOM     23  C   UNL     1       5.138   4.685  16.611  0.00  0.00    +0.000 A 
ATOM     24  C   UNL     1       4.079   3.932  17.144  0.00  0.00    +0.000 A 
BRANCH  22  25
ATOM     25  O   UNL     1       7.326   5.728  17.013  0.00  0.00    +0.000 OA
BRANCH  25  26
ATOM     26  C   UNL     1       7.482   7.049  17.507  0.00  0.00    +0.000 C 
ATOM     27  F   UNL     1       8.061   7.130  18.722  0.00  0.00    +0.000 F 
ATOM     28  F   UNL     1       8.219   7.764  16.628  0.00  0.00    +0.000 F 
ATOM     29  F   UNL     1       6.260   7.623  17.592  0.00  0.00    +0.000 F 
ENDBRANCH  25  26
ENDBRANCH  22  25
ENDBRANCH  18  19
ENDBRANCH  17  18
ENDBRANCH   2  17
TORSDOF 7
ENDMDL
MODEL 6
REMARK VINA RESULT:      -7.7      2.038      2.558
REMARK  Name = 
REMARK  7 active torsions:
REMARK  status: ('A' for Active; 'I' for Inactive)
REMARK    1  A    between atoms: C_2  and  O_16
REMARK    2  A    between atoms: N_3  and  C_4
REMARK    3  A    between atoms: C_9  and  N_10
REMARK    4  A    between atoms: O_16  and  C_17
REMARK    5  A    between atoms: C_17  and  C_18
REMARK    6  A    between atoms: C_21  and  O_22
REMARK    7  A    between atoms: O_22  and  C_23
REMARK                            x       y       z     vdW  Elec       q    Type
REMARK                         _______ _______ _______ _____ _____    ______ ____
ROOT
ATOM      1  O   UNL     1       0.858   3.363  21.209  0.00  0.00    +0.000 OA
ATOM      2  C   UNL     1       1.332   3.588  20.106  0.00  0.00    +0.000 C 
ATOM      3  N   UNL     1       1.790   2.566  19.321  0.00  0.00    +0.000 N 
ATOM      4  H   UNL     1       1.487   1.683  19.720  0.00  0.00    +0.000 HD
ENDROOT
BRANCH   3   5
ATOM      5  C   UNL     1       3.168   2.568  18.815  0.00  0.00    +0.000 C 
ATOM      6  C   UNL     1       4.164   2.948  19.925  0.00  0.00    +0.000 C 
ATOM      7  O   UNL     1       5.484   3.269  19.482  0.00  0.00    +0.000 OA
ATOM      8  C   UNL     1       5.582   3.952  18.349  0.00  0.00    +0.000 A 
ATOM      9  N   UNL     1       6.676   4.557  17.946  0.00  0.00    +0.000 NA
ATOM     10  C   UNL     1       6.354   5.075  16.704  0.00  0.00    +0.000 A 
ATOM     11  C   UNL     1       5.050   4.766  16.360  0.00  0.00    +0.000 A 
ATOM     12  N   UNL     1       4.586   4.054  17.427  0.00  0.00    +0.000 N 
ATOM     13  C   UNL     1       3.264   3.516  17.608  0.00  0.00    +0.000 C 
BRANCH  10  14
ATOM     14  N   UNL     1       7.307   5.824  15.920  0.00  0.00    +0.000 N 
ATOM     15  O   UNL     1       7.581   5.376  14.797  0.00  0.00    +0.000 OA
ATOM     16  O   UNL     1       7.782   6.859  16.418  0.00  0.00    +0.000 OA
ENDBRANCH  10  14
ENDBRANCH   3   5
BRANCH   2  17
ATOM     17  O   UNL     1       1.449   4.791  19.503  0.00  0.00    +0.000 OA
BRANCH  17  18
ATOM     18  C   UNL     1       2.145   5.803  20.250  0.00  0.00    +0.000 C 
BRANCH  18  19
ATOM     19  C   UNL     1       1.761   7.210  19.851  0.00  0.00    +0.000 A 
ATOM     20  C   UNL     1       1.953   7.647  18.534  0.00  0.00    +0.000 A 
ATOM     21  C   UNL     1       1.621   8.950  18.157  0.00  0.00    +0.000 A 
ATOM     22  C   UNL     1       1.066   9.839  19.078  0.00  0.00    +0.000 A 
ATOM     23  C   UNL     1       0.897   9.424  20.398  0.00  0.00    +0.000 A 
ATOM     24  C   UNL     1       1.230   8.115  20.778  0.00  0.00    +0.000 A 
BRANCH  22  25
ATOM     25  O   UNL     1       0.817  11.083  18.586  0.00  0.00    +0.000 OA
BRANCH  25  26
ATOM     26  C   UNL     1       1.828  12.077  18.628  0.00  0.00    +0.000 C 
ATOM     27  F   UNL     1       2.978  11.737  18.012  0.00  0.00    +0.000 F 
ATOM     28  F   UNL     1       1.355  13.210  18.064  0.00  0.00    +0.000 F 
ATOM     29  F   UNL     1       2.116  12.344  19.922  0.00  0.00    +0.000 F 
ENDBRANCH  25  26
ENDBRANCH  22  25
ENDBRANCH  18  19
ENDBRANCH  17  18
ENDBRANCH   2  17
TORSDOF 7
ENDMDL
MODEL 7
REMARK VINA RESULT:      -7.7      1.539      2.045
REMARK  Name = 
REMARK  7 active torsions:
REMARK  status: ('A' for Active; 'I' for Inactive)
REMARK    1  A    between atoms: C_2  and  O_16
REMARK    2  A    between atoms: N_3  and  C_4
REMARK    3  A    between atoms: C_9  and  N_10
REMARK    4  A    between atoms: O_16  and  C_17
REMARK    5  A    between atoms: C_17  and  C_18
REMARK    6  A    between atoms: C_21  and  O_22
REMARK    7  A    between atoms: O_22  and  C_23
REMARK                            x       y       z     vdW  Elec       q    Type
REMARK                         _______ _______ _______ _____ _____    ______ ____
ROOT
ATOM      1  O   UNL     1       2.620   4.543  21.077  0.00  0.00    +0.000 OA
ATOM      2  C   UNL     1       3.019   4.841  19.961  0.00  0.00    +0.000 C 
ATOM      3  N   UNL     1       3.042   3.912  18.957  0.00  0.00    +0.000 N 
ATOM      4  H   UNL     1       2.518   3.095  19.252  0.00  0.00    +0.000 HD
ENDROOT
BRANCH   3   5
ATOM      5  C   UNL     1       4.286   3.615  18.237  0.00  0.00    +0.000 C 
ATOM      6  C   UNL     1       5.475   4.376  18.851  0.00  0.00    +0.000 C 
ATOM      7  O   UNL     1       6.665   4.396  18.060  0.00  0.00    +0.000 OA
ATOM      8  C   UNL     1       6.507   4.518  16.749  0.00  0.00    +0.000 A 
ATOM      9  N   UNL     1       7.474   4.825  15.915  0.00  0.00    +0.000 NA
ATOM     10  C   UNL     1       6.888   4.776  14.663  0.00  0.00    +0.000 A 
ATOM     11  C   UNL     1       5.553   4.427  14.753  0.00  0.00    +0.000 A 
ATOM     12  N   UNL     1       5.340   4.273  16.092  0.00  0.00    +0.000 N 
ATOM     13  C   UNL     1       4.102   3.944  16.746  0.00  0.00    +0.000 C 
BRANCH  10  14
ATOM     14  N   UNL     1       7.636   5.058  13.461  0.00  0.00    +0.000 N 
ATOM     15  O   UNL     1       8.563   5.875  13.560  0.00  0.00    +0.000 OA
ATOM     16  O   UNL     1       7.305   4.467  12.419  0.00  0.00    +0.000 OA
ENDBRANCH  10  14
ENDBRANCH   3   5
BRANCH   2  17
ATOM     17  O   UNL     1       3.448   6.054  19.549  0.00  0.00    +0.000 OA
BRANCH  17  18
ATOM     18  C   UNL     1       2.635   6.704  18.557  0.00  0.00    +0.000 C 
BRANCH  18  19
ATOM     19  C   UNL     1       1.908   7.920  19.084  0.00  0.00    +0.000 A 
ATOM     20  C   UNL     1       1.540   8.954  18.214  0.00  0.00    +0.000 A 
ATOM     21  C   UNL     1       0.886  10.092  18.692  0.00  0.00    +0.000 A 
ATOM     22  C   UNL     1       0.562  10.213  20.044  0.00  0.00    +0.000 A 
ATOM     23  C   UNL     1       0.949   9.203  20.923  0.00  0.00    +0.000 A 
ATOM     24  C   UNL     1       1.606   8.059  20.444  0.00  0.00    +0.000 A 
BRANCH  22  25
ATOM     25  O   UNL     1      -0.047  11.382  20.378  0.00  0.00    +0.000 OA
BRANCH  25  26
ATOM     26  C   UNL     1       0.726  12.558  20.559  0.00  0.00    +0.000 C 
ATOM     27  F   UNL     1       0.313  13.354  21.566  0.00  0.00    +0.000 F 
ATOM     28  F   UNL     1       2.012  12.210  20.782  0.00  0.00    +0.000 F 
ATOM     29  F   UNL     1       0.682  13.282  19.416  0.00  0.00    +0.000 F 
ENDBRANCH  25  26
ENDBRANCH  22  25
ENDBRANCH  18  19
ENDBRANCH  17  18
ENDBRANCH   2  17
TORSDOF 7
ENDMDL
MODEL 8
REMARK VINA RESULT:      -7.6      2.147      2.841
REMARK  Name = 
REMARK  7 active torsions:
REMARK  status: ('A' for Active; 'I' for Inactive)
REMARK    1  A    between atoms: C_2  and  O_16
REMARK    2  A    between atoms: N_3  and  C_4
REMARK    3  A    between atoms: C_9  and  N_10
REMARK    4  A    between atoms: O_16  and  C_17
REMARK    5  A    between atoms: C_17  and  C_18
REMARK    6  A    between atoms: C_21  and  O_22
REMARK    7  A    between atoms: O_22  and  C_23
REMARK                            x       y       z     vdW  Elec       q    Type
REMARK                         _______ _______ _______ _____ _____    ______ ____
ROOT
ATOM      1  O   UNL     1       0.997   2.772  22.017  0.00  0.00    +0.000 OA
ATOM      2  C   UNL     1       1.279   3.061  20.864  0.00  0.00    +0.000 C 
ATOM      3  N   UNL     1       1.685   2.098  19.982  0.00  0.00    +0.000 N 
ATOM      4  H   UNL     1       1.511   1.185  20.389  0.00  0.00    +0.000 HD
ENDROOT
BRANCH   3   5
ATOM      5  C   UNL     1       2.966   2.219  19.275  0.00  0.00    +0.000 C 
ATOM      6  C   UNL     1       4.119   2.478  20.261  0.00  0.00    +0.000 C 
ATOM      7  O   UNL     1       5.348   2.905  19.669  0.00  0.00    +0.000 OA
ATOM      8  C   UNL     1       5.257   3.740  18.644  0.00  0.00    +0.000 A 
ATOM      9  N   UNL     1       6.265   4.434  18.166  0.00  0.00    +0.000 NA
ATOM     10  C   UNL     1       5.744   5.106  17.075  0.00  0.00    +0.000 A 
ATOM     11  C   UNL     1       4.407   4.801  16.896  0.00  0.00    +0.000 A 
ATOM     12  N   UNL     1       4.126   3.933  17.910  0.00  0.00    +0.000 N 
ATOM     13  C   UNL     1       2.857   3.328  18.214  0.00  0.00    +0.000 C 
BRANCH  10  14
ATOM     14  N   UNL     1       6.551   5.991  16.269  0.00  0.00    +0.000 N 
ATOM     15  O   UNL     1       7.408   5.460  15.547  0.00  0.00    +0.000 OA
ATOM     16  O   UNL     1       6.333   7.211  16.350  0.00  0.00    +0.000 OA
ENDBRANCH  10  14
ENDBRANCH   3   5
BRANCH   2  17
ATOM     17  O   UNL     1       1.214   4.285  20.294  0.00  0.00    +0.000 OA
BRANCH  17  18
ATOM     18  C   UNL     1       1.965   5.322  20.950  0.00  0.00    +0.000 C 
BRANCH  18  19
ATOM     19  C   UNL     1       1.797   6.679  20.302  0.00  0.00    +0.000 A 
ATOM     20  C   UNL     1       2.332   6.924  19.031  0.00  0.00    +0.000 A 
ATOM     21  C   UNL     1       2.202   8.178  18.430  0.00  0.00    +0.000 A 
ATOM     22  C   UNL     1       1.515   9.208  19.072  0.00  0.00    +0.000 A 
ATOM     23  C   UNL     1       1.003   8.984  20.349  0.00  0.00    +0.000 A 
ATOM     24  C   UNL     1       1.133   7.724  20.955  0.00  0.00    +0.000 A 
BRANCH  22  25
ATOM     25  O   UNL     1       1.488  10.384  18.389  0.00  0.00    +0.000 OA
BRANCH  25  26
ATOM     26  C   UNL     1       1.442  11.614  19.096  0.00  0.00    +0.000 C 
ATOM     27  F   UNL     1       1.387  11.491  20.437  0.00  0.00    +0.000 F 
ATOM     28  F   UNL     1       2.530  12.348  18.773  0.00  0.00    +0.000 F 
ATOM     29  F   UNL     1       0.345  12.297  18.698  0.00  0.00    +0.000 F 
ENDBRANCH  25  26
ENDBRANCH  22  25
ENDBRANCH  18  19
ENDBRANCH  17  18
ENDBRANCH   2  17
TORSDOF 7
ENDMDL
MODEL 9
REMARK VINA RESULT:      -7.6      2.219      2.903
REMARK  Name = 
REMARK  7 active torsions:
REMARK  status: ('A' for Active; 'I' for Inactive)
REMARK    1  A    between atoms: C_2  and  O_16
REMARK    2  A    between atoms: N_3  and  C_4
REMARK    3  A    between atoms: C_9  and  N_10
REMARK    4  A    between atoms: O_16  and  C_17
REMARK    5  A    between atoms: C_17  and  C_18
REMARK    6  A    between atoms: C_21  and  O_22
REMARK    7  A    between atoms: O_22  and  C_23
REMARK                            x       y       z     vdW  Elec       q    Type
REMARK                         _______ _______ _______ _____ _____    ______ ____
ROOT
ATOM      1  O   UNL     1       0.520   2.234  19.674  0.00  0.00    +0.000 OA
ATOM      2  C   UNL     1       1.246   2.853  18.912  0.00  0.00    +0.000 C 
ATOM      3  N   UNL     1       2.094   2.193  18.067  0.00  0.00    +0.000 N 
ATOM      4  H   UNL     1       1.856   1.207  18.064  0.00  0.00    +0.000 HD
ENDROOT
BRANCH   3   5
ATOM      5  C   UNL     1       3.535   2.474  18.079  0.00  0.00    +0.000 C 
ATOM      6  C   UNL     1       4.068   2.570  19.520  0.00  0.00    +0.000 C 
ATOM      7  O   UNL     1       5.377   3.128  19.655  0.00  0.00    +0.000 OA
ATOM      8  C   UNL     1       5.679   4.139  18.852  0.00  0.00    +0.000 A 
ATOM      9  N   UNL     1       6.711   4.933  19.023  0.00  0.00    +0.000 NA
ATOM     10  C   UNL     1       6.682   5.786  17.935  0.00  0.00    +0.000 A 
ATOM     11  C   UNL     1       5.621   5.490  17.099  0.00  0.00    +0.000 A 
ATOM     12  N   UNL     1       5.000   4.441  17.710  0.00  0.00    +0.000 N 
ATOM     13  C   UNL     1       3.809   3.761  17.280  0.00  0.00    +0.000 C 
BRANCH  10  14
ATOM     14  N   UNL     1       7.669   6.825  17.755  0.00  0.00    +0.000 N 
ATOM     15  O   UNL     1       7.812   7.265  16.605  0.00  0.00    +0.000 OA
ATOM     16  O   UNL     1       8.300   7.206  18.755  0.00  0.00    +0.000 OA
ENDBRANCH  10  14
ENDBRANCH   3   5
BRANCH   2  17
ATOM     17  O   UNL     1       1.311   4.195  18.761  0.00  0.00    +0.000 OA
BRANCH  17  18
ATOM     18  C   UNL     1       1.752   4.935  19.912  0.00  0.00    +0.000 C 
BRANCH  18  19
ATOM     19  C   UNL     1       1.686   6.433  19.719  0.00  0.00    +0.000 A 
ATOM     20  C   UNL     1       2.135   7.011  18.525  0.00  0.00    +0.000 A 
ATOM     21  C   UNL     1       2.098   8.395  18.342  0.00  0.00    +0.000 A 
ATOM     22  C   UNL     1       1.588   9.232  19.334  0.00  0.00    +0.000 A 
ATOM     23  C   UNL     1       1.164   8.671  20.537  0.00  0.00    +0.000 A 
ATOM     24  C   UNL     1       1.201   7.279  20.724  0.00  0.00    +0.000 A 
BRANCH  22  25
ATOM     25  O   UNL     1       1.637  10.558  19.038  0.00  0.00    +0.000 OA
BRANCH  25  26
ATOM     26  C   UNL     1       0.435  11.300  18.904  0.00  0.00    +0.000 C 
ATOM     27  F   UNL     1      -0.255  11.466  20.050  0.00  0.00    +0.000 F 
ATOM     28  F   UNL     1       0.723  12.517  18.393  0.00  0.00    +0.000 F 
ATOM     29  F   UNL     1      -0.371  10.659  18.026  0.00  0.00    +0.000 F 
ENDBRANCH  25  26
ENDBRANCH  22  25
ENDBRANCH  18  19
ENDBRANCH  17  18
ENDBRANCH   2  17
TORSDOF 7
ENDMDL
