MODEL 1
REMARK VINA RESULT:      -8.1      0.000      0.000
REMARK  Name = 
REMARK  8 active torsions:
REMARK  status: ('A' for Active; 'I' for Inactive)
REMARK    1  A    between atoms: C_1  and  C_2
REMARK    2  A    between atoms: C_2  and  N_3
REMARK    3  A    between atoms: N_3  and  C_4
REMARK    4  A    between atoms: C_4  and  C_5
REMARK    5  A    between atoms: C_11  and  C_13
REMARK    6  A    between atoms: C_18  and  S_19
REMARK    7  A    between atoms: S_19  and  N_22
REMARK    8  A    between atoms: C_30  and  C_31
REMARK                            x       y       z     vdW  Elec       q    Type
REMARK                         _______ _______ _______ _____ _____    ______ ____
ROOT
ATOM      1  C   UNL     1       0.926   9.826  20.135  0.00  0.00    +0.000 A 
ATOM      2  O   UNL     1       0.805   8.686  20.872  0.00  0.00    +0.000 OA
ATOM      3  C   UNL     1       1.516   7.695  20.288  0.00  0.00    +0.000 A 
ATOM      4  C   UNL     1       1.613   6.405  20.785  0.00  0.00    +0.000 A 
ATOM      5  C   UNL     1       2.413   5.517  20.065  0.00  0.00    +0.000 A 
ATOM      6  C   UNL     1       3.084   5.947  18.917  0.00  0.00    +0.000 A 
ATOM      7  C   UNL     1       2.947   7.270  18.427  0.00  0.00    +0.000 A 
ATOM      8  C   UNL     1       2.109   8.164  19.128  0.00  0.00    +0.000 A 
ATOM      9  C   UNL     1       1.614   9.507  18.956  0.00  0.00    +0.000 A 
ATOM     10  C   UNL     1       1.794  10.371  17.757  0.00  0.00    +0.000 C 
ENDROOT
BRANCH   1  12
ATOM     11  N   UNL     1      -0.905  11.550  20.195  0.00  0.00    +0.000 N 
ATOM     12  C   UNL     1       0.369  11.091  20.646  0.00  0.00    +0.000 C 
ATOM     13  O   UNL     1       0.983  11.737  21.492  0.00  0.00    +0.000 OA
BRANCH  11  15
ATOM     14  C   UNL     1      -1.727  11.863  17.835  0.00  0.00    +0.000 C 
ATOM     15  C   UNL     1      -1.644  10.968  19.066  0.00  0.00    +0.000 C 
ENDBRANCH  11  15
BRANCH  11  16
ATOM     16  C   UNL     1      -1.439  12.805  20.748  0.00  0.00    +0.000 C 
BRANCH  16  17
ATOM     17  C   UNL     1      -2.653  12.707  21.659  0.00  0.00    +0.000 A 
ATOM     18  C   UNL     1      -3.967  12.936  21.236  0.00  0.00    +0.000 A 
ATOM     19  C   UNL     1      -5.030  12.895  22.149  0.00  0.00    +0.000 A 
ATOM     20  C   UNL     1      -4.800  12.609  23.492  0.00  0.00    +0.000 A 
ATOM     21  C   UNL     1      -3.507  12.325  23.922  0.00  0.00    +0.000 A 
ATOM     22  C   UNL     1      -2.447  12.366  23.012  0.00  0.00    +0.000 A 
ENDBRANCH  16  17
ENDBRANCH  11  16
ENDBRANCH   1  12
BRANCH   6  23
ATOM     23  S   UNL     1       3.990   4.750  17.961  0.00  0.00    +0.000 S 
ATOM     24  O   UNL     1       4.850   4.053  18.892  0.00  0.00    +0.000 OA
ATOM     25  O   UNL     1       3.030   4.024  17.158  0.00  0.00    +0.000 OA
BRANCH  23  26
ATOM     26  N   UNL     1       5.003   5.643  16.907  0.00  0.00    +0.000 NA
ATOM     27  C   UNL     1       5.327   5.062  15.566  0.00  0.00    +0.000 C 
ATOM     28  C   UNL     1       6.346   3.922  15.673  0.00  0.00    +0.000 C 
ATOM     29  O   UNL     1       7.551   4.352  16.325  0.00  0.00    +0.000 OA
ATOM     30  C   UNL     1       7.295   4.906  17.626  0.00  0.00    +0.000 C 
ATOM     31  C   UNL     1       6.298   6.072  17.553  0.00  0.00    +0.000 C 
ENDBRANCH  23  26
ENDBRANCH   6  23
TORSDOF 6
ENDMDL
MODEL 2
REMARK VINA RESULT:      -8.0      1.939      2.843
REMARK  Name = 
REMARK  8 active torsions:
REMARK  status: ('A' for Active; 'I' for Inactive)
REMARK    1  A    between atoms: C_1  and  C_2
REMARK    2  A    between atoms: C_2  and  N_3
REMARK    3  A    between atoms: N_3  and  C_4
REMARK    4  A    between atoms: C_4  and  C_5
REMARK    5  A    between atoms: C_11  and  C_13
REMARK    6  A    between atoms: C_18  and  S_19
REMARK    7  A    between atoms: S_19  and  N_22
REMARK    8  A    between atoms: C_30  and  C_31
REMARK                            x       y       z     vdW  Elec       q    Type
REMARK                         _______ _______ _______ _____ _____    ______ ____
ROOT
ATOM      1  C   UNL     1       0.370  10.802  20.765  0.00  0.00    +0.000 A 
ATOM      2  O   UNL     1       0.910  10.717  19.517  0.00  0.00    +0.000 OA
ATOM      3  C   UNL     1       1.460   9.495  19.345  0.00  0.00    +0.000 A 
ATOM      4  C   UNL     1       2.087   9.075  18.183  0.00  0.00    +0.000 A 
ATOM      5  C   UNL     1       2.576   7.768  18.174  0.00  0.00    +0.000 A 
ATOM      6  C   UNL     1       2.404   6.945  19.291  0.00  0.00    +0.000 A 
ATOM      7  C   UNL     1       1.773   7.413  20.470  0.00  0.00    +0.000 A 
ATOM      8  C   UNL     1       1.310   8.746  20.502  0.00  0.00    +0.000 A 
ATOM      9  C   UNL     1       0.725   9.642  21.468  0.00  0.00    +0.000 A 
ATOM     10  C   UNL     1       0.549   9.382  22.924  0.00  0.00    +0.000 C 
ENDROOT
BRANCH   1  12
ATOM     11  N   UNL     1      -1.716  12.194  20.567  0.00  0.00    +0.000 N 
ATOM     12  C   UNL     1      -0.427  11.983  21.140  0.00  0.00    +0.000 C 
ATOM     13  O   UNL     1       0.002  12.773  21.979  0.00  0.00    +0.000 OA
BRANCH  11  15
ATOM     14  C   UNL     1      -1.899  11.995  18.063  0.00  0.00    +0.000 C 
ATOM     15  C   UNL     1      -2.254  11.429  19.433  0.00  0.00    +0.000 C 
ENDBRANCH  11  15
BRANCH  11  16
ATOM     16  C   UNL     1      -2.492  13.372  20.988  0.00  0.00    +0.000 C 
BRANCH  16  17
ATOM     17  C   UNL     1      -3.607  13.151  21.997  0.00  0.00    +0.000 A 
ATOM     18  C   UNL     1      -4.963  13.361  21.719  0.00  0.00    +0.000 A 
ATOM     19  C   UNL     1      -5.931  13.203  22.721  0.00  0.00    +0.000 A 
ATOM     20  C   UNL     1      -5.562  12.818  24.008  0.00  0.00    +0.000 A 
ATOM     21  C   UNL     1      -4.226  12.553  24.289  0.00  0.00    +0.000 A 
ATOM     22  C   UNL     1      -3.260  12.711  23.291  0.00  0.00    +0.000 A 
ENDBRANCH  16  17
ENDBRANCH  11  16
ENDBRANCH   1  12
BRANCH   6  23
ATOM     23  S   UNL     1       3.153   5.330  19.282  0.00  0.00    +0.000 S 
ATOM     24  O   UNL     1       4.534   5.525  18.895  0.00  0.00    +0.000 OA
ATOM     25  O   UNL     1       2.822   4.695  20.539  0.00  0.00    +0.000 OA
BRANCH  23  26
ATOM     26  N   UNL     1       2.392   4.454  18.021  0.00  0.00    +0.000 NA
ATOM     27  C   UNL     1       1.264   3.536  18.371  0.00  0.00    +0.000 C 
ATOM     28  C   UNL     1       1.764   2.251  19.041  0.00  0.00    +0.000 C 
ATOM     29  O   UNL     1       2.717   1.563  18.215  0.00  0.00    +0.000 OA
ATOM     30  C   UNL     1       3.831   2.400  17.862  0.00  0.00    +0.000 C 
ATOM     31  C   UNL     1       3.367   3.686  17.162  0.00  0.00    +0.000 C 
ENDBRANCH  23  26
ENDBRANCH   6  23
TORSDOF 6
ENDMDL
MODEL 3
REMARK VINA RESULT:      -8.0      2.200     10.478
REMARK  Name = 
REMARK  8 active torsions:
REMARK  status: ('A' for Active; 'I' for Inactive)
REMARK    1  A    between atoms: C_1  and  C_2
REMARK    2  A    between atoms: C_2  and  N_3
REMARK    3  A    between atoms: N_3  and  C_4
REMARK    4  A    between atoms: C_4  and  C_5
REMARK    5  A    between atoms: C_11  and  C_13
REMARK    6  A    between atoms: C_18  and  S_19
REMARK    7  A    between atoms: S_19  and  N_22
REMARK    8  A    between atoms: C_30  and  C_31
REMARK                            x       y       z     vdW  Elec       q    Type
REMARK                         _______ _______ _______ _____ _____    ______ ____
ROOT
ATOM      1  C   UNL     1       3.574   5.964  17.904  0.00  0.00    +0.000 A 
ATOM      2  O   UNL     1       3.158   7.074  17.233  0.00  0.00    +0.000 OA
ATOM      3  C   UNL     1       2.445   7.864  18.066  0.00  0.00    +0.000 A 
ATOM      4  C   UNL     1       1.882   9.077  17.704  0.00  0.00    +0.000 A 
ATOM      5  C   UNL     1       1.199   9.773  18.703  0.00  0.00    +0.000 A 
ATOM      6  C   UNL     1       1.126   9.252  19.998  0.00  0.00    +0.000 A 
ATOM      7  C   UNL     1       1.698   7.998  20.329  0.00  0.00    +0.000 A 
ATOM      8  C   UNL     1       2.357   7.270  19.315  0.00  0.00    +0.000 A 
ATOM      9  C   UNL     1       2.972   5.974  19.170  0.00  0.00    +0.000 A 
ATOM     10  C   UNL     1       2.956   4.870  20.169  0.00  0.00    +0.000 C 
ENDROOT
BRANCH   1  12
ATOM     11  N   UNL     1       5.831   5.426  16.932  0.00  0.00    +0.000 N 
ATOM     12  C   UNL     1       4.501   5.020  17.256  0.00  0.00    +0.000 C 
ATOM     13  O   UNL     1       4.145   3.867  17.026  0.00  0.00    +0.000 OA
BRANCH  11  15
ATOM     14  C   UNL     1       7.613   7.002  17.762  0.00  0.00    +0.000 C 
ATOM     15  C   UNL     1       6.311   6.813  16.990  0.00  0.00    +0.000 C 
ENDBRANCH  11  15
BRANCH  11  16
ATOM     16  C   UNL     1       6.735   4.446  16.309  0.00  0.00    +0.000 C 
BRANCH  16  17
ATOM     17  C   UNL     1       6.768   4.393  14.790  0.00  0.00    +0.000 A 
ATOM     18  C   UNL     1       5.929   3.580  14.019  0.00  0.00    +0.000 A 
ATOM     19  C   UNL     1       6.063   3.531  12.625  0.00  0.00    +0.000 A 
ATOM     20  C   UNL     1       7.024   4.306  11.978  0.00  0.00    +0.000 A 
ATOM     21  C   UNL     1       7.830   5.161  12.722  0.00  0.00    +0.000 A 
ATOM     22  C   UNL     1       7.698   5.209  14.112  0.00  0.00    +0.000 A 
ENDBRANCH  16  17
ENDBRANCH  11  16
ENDBRANCH   1  12
BRANCH   6  23
ATOM     23  S   UNL     1       0.139  10.109  21.207  0.00  0.00    +0.000 S 
ATOM     24  O   UNL     1      -0.989   9.251  21.492  0.00  0.00    +0.000 OA
ATOM     25  O   UNL     1       1.029  10.535  22.264  0.00  0.00    +0.000 OA
BRANCH  23  26
ATOM     26  N   UNL     1      -0.472  11.506  20.424  0.00  0.00    +0.000 NA
ATOM     27  C   UNL     1       0.381  12.735  20.391  0.00  0.00    +0.000 C 
ATOM     28  C   UNL     1       0.414  13.441  21.751  0.00  0.00    +0.000 C 
ATOM     29  O   UNL     1      -0.907  13.774  22.204  0.00  0.00    +0.000 OA
ATOM     30  C   UNL     1      -1.764  12.621  22.268  0.00  0.00    +0.000 C 
ATOM     31  C   UNL     1      -1.843  11.905  20.912  0.00  0.00    +0.000 C 
ENDBRANCH  23  26
ENDBRANCH   6  23
TORSDOF 6
ENDMDL
MODEL 4
REMARK VINA RESULT:      -8.0      2.022      3.039
REMARK  Name = 
REMARK  8 active torsions:
REMARK  status: ('A' for Active; 'I' for Inactive)
REMARK    1  A    between atoms: C_1  and  C_2
REMARK    2  A    between atoms: C_2  and  N_3
REMARK    3  A    between atoms: N_3  and  C_4
REMARK    4  A    between atoms: C_4  and  C_5
REMARK    5  A    between atoms: C_11  and  C_13
REMARK    6  A    between atoms: C_18  and  S_19
REMARK    7  A    between atoms: S_19  and  N_22
REMARK    8  A    between atoms: C_30  and  C_31
REMARK                            x       y       z     vdW  Elec       q    Type
REMARK                         _______ _______ _______ _____ _____    ______ ____
ROOT
ATOM      1  C   UNL     1       0.257  10.804  20.352  0.00  0.00    +0.000 A 
ATOM      2  O   UNL     1       0.855  10.614  19.143  0.00  0.00    +0.000 OA
ATOM      3  C   UNL     1       1.437   9.395  19.114  0.00  0.00    +0.000 A 
ATOM      4  C   UNL     1       2.125   8.882  18.026  0.00  0.00    +0.000 A 
ATOM      5  C   UNL     1       2.640   7.592  18.163  0.00  0.00    +0.000 A 
ATOM      6  C   UNL     1       2.434   6.876  19.345  0.00  0.00    +0.000 A 
ATOM      7  C   UNL     1       1.740   7.438  20.446  0.00  0.00    +0.000 A 
ATOM      8  C   UNL     1       1.250   8.757  20.329  0.00  0.00    +0.000 A 
ATOM      9  C   UNL     1       0.603   9.726  21.179  0.00  0.00    +0.000 A 
ATOM     10  C   UNL     1       0.367   9.601  22.643  0.00  0.00    +0.000 C 
ENDROOT
BRANCH   1  12
ATOM     11  N   UNL     1      -1.874  12.089  19.985  0.00  0.00    +0.000 N 
ATOM     12  C   UNL     1      -0.579  11.996  20.578  0.00  0.00    +0.000 C 
ATOM     13  O   UNL     1      -0.179  12.899  21.310  0.00  0.00    +0.000 OA
BRANCH  11  15
ATOM     14  C   UNL     1      -2.134  11.625  17.523  0.00  0.00    +0.000 C 
ATOM     15  C   UNL     1      -2.383  11.171  18.957  0.00  0.00    +0.000 C 
ENDBRANCH  11  15
BRANCH  11  16
ATOM     16  C   UNL     1      -2.689  13.285  20.255  0.00  0.00    +0.000 C 
BRANCH  16  17
ATOM     17  C   UNL     1      -3.816  13.149  21.267  0.00  0.00    +0.000 A 
ATOM     18  C   UNL     1      -3.642  13.272  22.650  0.00  0.00    +0.000 A 
ATOM     19  C   UNL     1      -4.715  13.065  23.528  0.00  0.00    +0.000 A 
ATOM     20  C   UNL     1      -5.980  12.749  23.037  0.00  0.00    +0.000 A 
ATOM     21  C   UNL     1      -6.185  12.675  21.663  0.00  0.00    +0.000 A 
ATOM     22  C   UNL     1      -5.115  12.881  20.788  0.00  0.00    +0.000 A 
ENDBRANCH  16  17
ENDBRANCH  11  16
ENDBRANCH   1  12
BRANCH   6  23
ATOM     23  S   UNL     1       3.215   5.286  19.524  0.00  0.00    +0.000 S 
ATOM     24  O   UNL     1       4.640   5.521  19.433  0.00  0.00    +0.000 OA
ATOM     25  O   UNL     1       2.646   4.655  20.695  0.00  0.00    +0.000 OA
BRANCH  23  26
ATOM     26  N   UNL     1       2.763   4.370  18.148  0.00  0.00    +0.000 NA
ATOM     27  C   UNL     1       1.389   3.780  18.105  0.00  0.00    +0.000 C 
ATOM     28  C   UNL     1       1.265   2.562  19.027  0.00  0.00    +0.000 C 
ATOM     29  O   UNL     1       2.240   1.558  18.708  0.00  0.00    +0.000 OA
ATOM     30  C   UNL     1       3.581   2.072  18.750  0.00  0.00    +0.000 C 
ATOM     31  C   UNL     1       3.749   3.278  17.814  0.00  0.00    +0.000 C 
ENDBRANCH  23  26
ENDBRANCH   6  23
TORSDOF 6
ENDMDL
MODEL 5
REMARK VINA RESULT:      -7.9      2.285      3.144
REMARK  Name = 
REMARK  8 active torsions:
REMARK  status: ('A' for Active; 'I' for Inactive)
REMARK    1  A    between atoms: C_1  and  C_2
REMARK    2  A    between atoms: C_2  and  N_3
REMARK    3  A    between atoms: N_3  and  C_4
REMARK    4  A    between atoms: C_4  and  C_5
REMARK    5  A    between atoms: C_11  and  C_13
REMARK    6  A    between atoms: C_18  and  S_19
REMARK    7  A    between atoms: S_19  and  N_22
REMARK    8  A    between atoms: C_30  and  C_31
REMARK                            x       y       z     vdW  Elec       q    Type
REMARK                         _______ _______ _______ _____ _____    ______ ____
ROOT
ATOM      1  C   UNL     1       0.463  10.816  20.614  0.00  0.00    +0.000 A 
ATOM      2  O   UNL     1       0.976  10.786  19.352  0.00  0.00    +0.000 OA
ATOM      3  C   UNL     1       1.533   9.576  19.121  0.00  0.00    +0.000 A 
ATOM      4  C   UNL     1       2.138   9.208  17.930  0.00  0.00    +0.000 A 
ATOM      5  C   UNL     1       2.637   7.907  17.858  0.00  0.00    +0.000 A 
ATOM      6  C   UNL     1       2.497   7.040  18.945  0.00  0.00    +0.000 A 
ATOM      7  C   UNL     1       1.888   7.455  20.156  0.00  0.00    +0.000 A 
ATOM      8  C   UNL     1       1.414   8.782  20.250  0.00  0.00    +0.000 A 
ATOM      9  C   UNL     1       0.843   9.633  21.263  0.00  0.00    +0.000 A 
ATOM     10  C   UNL     1       0.701   9.314  22.711  0.00  0.00    +0.000 C 
ENDROOT
BRANCH   1  12
ATOM     11  N   UNL     1      -1.650  12.180  20.537  0.00  0.00    +0.000 N 
ATOM     12  C   UNL     1      -0.335  11.975  21.053  0.00  0.00    +0.000 C 
ATOM     13  O   UNL     1       0.115  12.748  21.896  0.00  0.00    +0.000 OA
BRANCH  11  15
ATOM     14  C   UNL     1      -1.885  12.017  18.034  0.00  0.00    +0.000 C 
ATOM     15  C   UNL     1      -2.221  11.438  19.404  0.00  0.00    +0.000 C 
ENDBRANCH  11  15
BRANCH  11  16
ATOM     16  C   UNL     1      -2.425  13.335  21.020  0.00  0.00    +0.000 C 
BRANCH  16  17
ATOM     17  C   UNL     1      -3.513  13.066  22.047  0.00  0.00    +0.000 A 
ATOM     18  C   UNL     1      -4.882  13.192  21.784  0.00  0.00    +0.000 A 
ATOM     19  C   UNL     1      -5.826  12.994  22.802  0.00  0.00    +0.000 A 
ATOM     20  C   UNL     1      -5.420  12.652  24.089  0.00  0.00    +0.000 A 
ATOM     21  C   UNL     1      -4.067  12.469  24.356  0.00  0.00    +0.000 A 
ATOM     22  C   UNL     1      -3.125  12.667  23.343  0.00  0.00    +0.000 A 
ENDBRANCH  16  17
ENDBRANCH  11  16
ENDBRANCH   1  12
BRANCH   6  23
ATOM     23  S   UNL     1       3.260   5.433  18.857  0.00  0.00    +0.000 S 
ATOM     24  O   UNL     1       3.014   4.941  17.519  0.00  0.00    +0.000 OA
ATOM     25  O   UNL     1       4.610   5.569  19.356  0.00  0.00    +0.000 OA
BRANCH  23  26
ATOM     26  N   UNL     1       2.387   4.427  19.936  0.00  0.00    +0.000 NA
ATOM     27  C   UNL     1       3.120   3.322  20.630  0.00  0.00    +0.000 C 
ATOM     28  C   UNL     1       3.412   2.152  19.683  0.00  0.00    +0.000 C 
ATOM     29  O   UNL     1       2.208   1.644  19.088  0.00  0.00    +0.000 OA
ATOM     30  C   UNL     1       1.474   2.666  18.394  0.00  0.00    +0.000 C 
ATOM     31  C   UNL     1       1.138   3.844  19.322  0.00  0.00    +0.000 C 
ENDBRANCH  23  26
ENDBRANCH   6  23
TORSDOF 6
ENDMDL
MODEL 6
REMARK VINA RESULT:      -7.9      2.066      3.178
REMARK  Name = 
REMARK  8 active torsions:
REMARK  status: ('A' for Active; 'I' for Inactive)
REMARK    1  A    between atoms: C_1  and  C_2
REMARK    2  A    between atoms: C_2  and  N_3
REMARK    3  A    between atoms: N_3  and  C_4
REMARK    4  A    between atoms: C_4  and  C_5
REMARK    5  A    between atoms: C_11  and  C_13
REMARK    6  A    between atoms: C_18  and  S_19
REMARK    7  A    between atoms: S_19  and  N_22
REMARK    8  A    between atoms: C_30  and  C_31
REMARK                            x       y       z     vdW  Elec       q    Type
REMARK                         _______ _______ _______ _____ _____    ______ ____
ROOT
ATOM      1  C   UNL     1       1.227   9.842  18.944  0.00  0.00    +0.000 A 
ATOM      2  O   UNL     1       2.120   9.573  17.950  0.00  0.00    +0.000 OA
ATOM      3  C   UNL     1       2.659   8.350  18.148  0.00  0.00    +0.000 A 
ATOM      4  C   UNL     1       3.599   7.765  17.313  0.00  0.00    +0.000 A 
ATOM      5  C   UNL     1       4.028   6.483  17.657  0.00  0.00    +0.000 A 
ATOM      6  C   UNL     1       3.500   5.843  18.782  0.00  0.00    +0.000 A 
ATOM      7  C   UNL     1       2.553   6.478  19.624  0.00  0.00    +0.000 A 
ATOM      8  C   UNL     1       2.142   7.790  19.304  0.00  0.00    +0.000 A 
ATOM      9  C   UNL     1       1.317   8.815  19.894  0.00  0.00    +0.000 A 
ATOM     10  C   UNL     1       0.698   8.783  21.248  0.00  0.00    +0.000 C 
ENDROOT
BRANCH   1  12
ATOM     11  N   UNL     1      -0.980  10.956  18.484  0.00  0.00    +0.000 N 
ATOM     12  C   UNL     1       0.390  11.052  18.870  0.00  0.00    +0.000 C 
ATOM     13  O   UNL     1       0.859  12.145  19.178  0.00  0.00    +0.000 OA
BRANCH  11  15
ATOM     14  C   UNL     1      -2.321   9.963  16.596  0.00  0.00    +0.000 C 
ATOM     15  C   UNL     1      -1.601   9.748  17.923  0.00  0.00    +0.000 C 
ENDBRANCH  11  15
BRANCH  11  16
ATOM     16  C   UNL     1      -1.791  12.184  18.446  0.00  0.00    +0.000 C 
BRANCH  16  17
ATOM     17  C   UNL     1      -2.921  12.307  19.456  0.00  0.00    +0.000 A 
ATOM     18  C   UNL     1      -4.272  12.126  19.141  0.00  0.00    +0.000 A 
ATOM     19  C   UNL     1      -5.266  12.323  20.110  0.00  0.00    +0.000 A 
ATOM     20  C   UNL     1      -4.925  12.687  21.410  0.00  0.00    +0.000 A 
ATOM     21  C   UNL     1      -3.584  12.819  21.757  0.00  0.00    +0.000 A 
ATOM     22  C   UNL     1      -2.593  12.623  20.791  0.00  0.00    +0.000 A 
ENDBRANCH  16  17
ENDBRANCH  11  16
ENDBRANCH   1  12
BRANCH   6  23
ATOM     23  S   UNL     1       4.168   4.261  19.254  0.00  0.00    +0.000 S 
ATOM     24  O   UNL     1       5.603   4.369  19.112  0.00  0.00    +0.000 OA
ATOM     25  O   UNL     1       3.576   3.906  20.525  0.00  0.00    +0.000 OA
BRANCH  23  26
ATOM     26  N   UNL     1       3.625   3.140  18.078  0.00  0.00    +0.000 NA
ATOM     27  C   UNL     1       2.537   3.560  17.141  0.00  0.00    +0.000 C 
ATOM     28  C   UNL     1       1.169   3.585  17.832  0.00  0.00    +0.000 C 
ATOM     29  O   UNL     1       0.850   2.311  18.413  0.00  0.00    +0.000 OA
ATOM     30  C   UNL     1       1.860   1.869  19.335  0.00  0.00    +0.000 C 
ATOM     31  C   UNL     1       3.241   1.804  18.666  0.00  0.00    +0.000 C 
ENDBRANCH  23  26
ENDBRANCH   6  23
TORSDOF 6
ENDMDL
MODEL 7
REMARK VINA RESULT:      -7.9      2.469      3.525
REMARK  Name = 
REMARK  8 active torsions:
REMARK  status: ('A' for Active; 'I' for Inactive)
REMARK    1  A    between atoms: C_1  and  C_2
REMARK    2  A    between atoms: C_2  and  N_3
REMARK    3  A    between atoms: N_3  and  C_4
REMARK    4  A    between atoms: C_4  and  C_5
REMARK    5  A    between atoms: C_11  and  C_13
REMARK    6  A    between atoms: C_18  and  S_19
REMARK    7  A    between atoms: S_19  and  N_22
REMARK    8  A    between atoms: C_30  and  C_31
REMARK                            x       y       z     vdW  Elec       q    Type
REMARK                         _______ _______ _______ _____ _____    ______ ____
ROOT
ATOM      1  C   UNL     1       0.039  10.372  19.465  0.00  0.00    +0.000 A 
ATOM      2  O   UNL     1       0.880  10.214  18.405  0.00  0.00    +0.000 OA
ATOM      3  C   UNL     1       1.582   9.068  18.554  0.00  0.00    +0.000 A 
ATOM      4  C   UNL     1       2.521   8.603  17.648  0.00  0.00    +0.000 A 
ATOM      5  C   UNL     1       3.132   7.385  17.951  0.00  0.00    +0.000 A 
ATOM      6  C   UNL     1       2.774   6.688  19.108  0.00  0.00    +0.000 A 
ATOM      7  C   UNL     1       1.822   7.202  20.022  0.00  0.00    +0.000 A 
ATOM      8  C   UNL     1       1.227   8.452  19.743  0.00  0.00    +0.000 A 
ATOM      9  C   UNL     1       0.327   9.367  20.399  0.00  0.00    +0.000 A 
ATOM     10  C   UNL     1      -0.179   9.263  21.795  0.00  0.00    +0.000 C 
ENDROOT
BRANCH   1  12
ATOM     11  N   UNL     1      -2.230  11.279  18.866  0.00  0.00    +0.000 N 
ATOM     12  C   UNL     1      -0.947  11.468  19.461  0.00  0.00    +0.000 C 
ATOM     13  O   UNL     1      -0.680  12.537  20.005  0.00  0.00    +0.000 OA
BRANCH  11  15
ATOM     14  C   UNL     1      -2.328  10.306  16.544  0.00  0.00    +0.000 C 
ATOM     15  C   UNL     1      -2.596  10.124  18.034  0.00  0.00    +0.000 C 
ENDBRANCH  11  15
BRANCH  11  16
ATOM     16  C   UNL     1      -3.196  12.389  18.905  0.00  0.00    +0.000 C 
BRANCH  16  17
ATOM     17  C   UNL     1      -4.637  12.049  19.251  0.00  0.00    +0.000 A 
ATOM     18  C   UNL     1      -5.220  12.301  20.499  0.00  0.00    +0.000 A 
ATOM     19  C   UNL     1      -6.535  11.897  20.768  0.00  0.00    +0.000 A 
ATOM     20  C   UNL     1      -7.292  11.252  19.793  0.00  0.00    +0.000 A 
ATOM     21  C   UNL     1      -6.749  11.042  18.529  0.00  0.00    +0.000 A 
ATOM     22  C   UNL     1      -5.437  11.443  18.260  0.00  0.00    +0.000 A 
ENDBRANCH  16  17
ENDBRANCH  11  16
ENDBRANCH   1  12
BRANCH   6  23
ATOM     23  S   UNL     1       3.669   5.204  19.519  0.00  0.00    +0.000 S 
ATOM     24  O   UNL     1       5.072   5.556  19.493  0.00  0.00    +0.000 OA
ATOM     25  O   UNL     1       3.067   4.656  20.715  0.00  0.00    +0.000 OA
BRANCH  23  26
ATOM     26  N   UNL     1       3.397   4.107  18.231  0.00  0.00    +0.000 NA
ATOM     27  C   UNL     1       2.019   4.008  17.657  0.00  0.00    +0.000 C 
ATOM     28  C   UNL     1       1.071   3.241  18.587  0.00  0.00    +0.000 C 
ATOM     29  O   UNL     1       1.572   1.930  18.885  0.00  0.00    +0.000 OA
ATOM     30  C   UNL     1       2.891   1.971  19.454  0.00  0.00    +0.000 C 
ATOM     31  C   UNL     1       3.876   2.708  18.534  0.00  0.00    +0.000 C 
ENDBRANCH  23  26
ENDBRANCH   6  23
TORSDOF 6
ENDMDL
MODEL 8
REMARK VINA RESULT:      -7.9      2.051      3.035
REMARK  Name = 
REMARK  8 active torsions:
REMARK  status: ('A' for Active; 'I' for Inactive)
REMARK    1  A    between atoms: C_1  and  C_2
REMARK    2  A    between atoms: C_2  and  N_3
REMARK    3  A    between atoms: N_3  and  C_4
REMARK    4  A    between atoms: C_4  and  C_5
REMARK    5  A    between atoms: C_11  and  C_13
REMARK    6  A    between atoms: C_18  and  S_19
REMARK    7  A    between atoms: S_19  and  N_22
REMARK    8  A    between atoms: C_30  and  C_31
REMARK                            x       y       z     vdW  Elec       q    Type
REMARK                         _______ _______ _______ _____ _____    ______ ____
ROOT
ATOM      1  C   UNL     1       0.244  10.621  20.232  0.00  0.00    +0.000 A 
ATOM      2  O   UNL     1       0.901  10.533  19.042  0.00  0.00    +0.000 OA
ATOM      3  C   UNL     1       1.543   9.346  18.968  0.00  0.00    +0.000 A 
ATOM      4  C   UNL     1       2.301   8.933  17.884  0.00  0.00    +0.000 A 
ATOM      5  C   UNL     1       2.873   7.663  17.968  0.00  0.00    +0.000 A 
ATOM      6  C   UNL     1       2.653   6.867  19.096  0.00  0.00    +0.000 A 
ATOM      7  C   UNL     1       1.886   7.329  20.195  0.00  0.00    +0.000 A 
ATOM      8  C   UNL     1       1.337   8.627  20.134  0.00  0.00    +0.000 A 
ATOM      9  C   UNL     1       0.608   9.512  21.009  0.00  0.00    +0.000 A 
ATOM     10  C   UNL     1       0.316   9.287  22.452  0.00  0.00    +0.000 C 
ENDROOT
BRANCH   1  12
ATOM     11  N   UNL     1      -1.677  12.094  19.548  0.00  0.00    +0.000 N 
ATOM     12  C   UNL     1      -0.659  11.757  20.489  0.00  0.00    +0.000 C 
ATOM     13  O   UNL     1      -0.562  12.395  21.535  0.00  0.00    +0.000 OA
BRANCH  11  15
ATOM     14  C   UNL     1      -2.511  10.197  18.116  0.00  0.00    +0.000 C 
ATOM     15  C   UNL     1      -1.774  11.530  18.195  0.00  0.00    +0.000 C 
ENDBRANCH  11  15
BRANCH  11  16
ATOM     16  C   UNL     1      -2.575  13.219  19.853  0.00  0.00    +0.000 C 
BRANCH  16  17
ATOM     17  C   UNL     1      -3.940  12.887  20.435  0.00  0.00    +0.000 A 
ATOM     18  C   UNL     1      -4.988  12.328  19.696  0.00  0.00    +0.000 A 
ATOM     19  C   UNL     1      -6.242  12.112  20.284  0.00  0.00    +0.000 A 
ATOM     20  C   UNL     1      -6.463  12.434  21.621  0.00  0.00    +0.000 A 
ATOM     21  C   UNL     1      -5.418  12.941  22.387  0.00  0.00    +0.000 A 
ATOM     22  C   UNL     1      -4.167  13.157  21.801  0.00  0.00    +0.000 A 
ENDBRANCH  16  17
ENDBRANCH  11  16
ENDBRANCH   1  12
BRANCH   6  23
ATOM     23  S   UNL     1       3.503   5.307  19.217  0.00  0.00    +0.000 S 
ATOM     24  O   UNL     1       4.903   5.590  18.984  0.00  0.00    +0.000 OA
ATOM     25  O   UNL     1       3.072   4.676  20.444  0.00  0.00    +0.000 OA
BRANCH  23  26
ATOM     26  N   UNL     1       2.952   4.357  17.902  0.00  0.00    +0.000 NA
ATOM     27  C   UNL     1       1.493   4.039  17.814  0.00  0.00    +0.000 C 
ATOM     28  C   UNL     1       1.081   2.971  18.834  0.00  0.00    +0.000 C 
ATOM     29  O   UNL     1       1.853   1.771  18.680  0.00  0.00    +0.000 OA
ATOM     30  C   UNL     1       3.266   2.020  18.771  0.00  0.00    +0.000 C 
ATOM     31  C   UNL     1       3.719   3.067  17.742  0.00  0.00    +0.000 C 
ENDBRANCH  23  26
ENDBRANCH   6  23
TORSDOF 6
ENDMDL
MODEL 9
REMARK VINA RESULT:      -7.6      1.453      2.333
REMARK  Name = 
REMARK  8 active torsions:
REMARK  status: ('A' for Active; 'I' for Inactive)
REMARK    1  A    between atoms: C_1  and  C_2
REMARK    2  A    between atoms: C_2  and  N_3
REMARK    3  A    between atoms: N_3  and  C_4
REMARK    4  A    between atoms: C_4  and  C_5
REMARK    5  A    between atoms: C_11  and  C_13
REMARK    6  A    between atoms: C_18  and  S_19
REMARK    7  A    between atoms: S_19  and  N_22
REMARK    8  A    between atoms: C_30  and  C_31
REMARK                            x       y       z     vdW  Elec       q    Type
REMARK                         _______ _______ _______ _____ _____    ______ ____
ROOT
ATOM      1  C   UNL     1       0.873   9.373  20.241  0.00  0.00    +0.000 A 
ATOM      2  O   UNL     1       0.791   8.191  20.914  0.00  0.00    +0.000 OA
ATOM      3  C   UNL     1       1.566   7.269  20.300  0.00  0.00    +0.000 A 
ATOM      4  C   UNL     1       1.716   5.961  20.733  0.00  0.00    +0.000 A 
ATOM      5  C   UNL     1       2.578   5.152  19.990  0.00  0.00    +0.000 A 
ATOM      6  C   UNL     1       3.254   5.675  18.885  0.00  0.00    +0.000 A 
ATOM      7  C   UNL     1       3.063   7.014  18.460  0.00  0.00    +0.000 A 
ATOM      8  C   UNL     1       2.164   7.827  19.183  0.00  0.00    +0.000 A 
ATOM      9  C   UNL     1       1.606   9.152  19.067  0.00  0.00    +0.000 A 
ATOM     10  C   UNL     1       1.773  10.085  17.919  0.00  0.00    +0.000 C 
ENDROOT
BRANCH   1  12
ATOM     11  N   UNL     1      -0.939  11.118  20.202  0.00  0.00    +0.000 N 
ATOM     12  C   UNL     1       0.240  10.580  20.801  0.00  0.00    +0.000 C 
ATOM     13  O   UNL     1       0.703  11.107  21.810  0.00  0.00    +0.000 OA
BRANCH  11  15
ATOM     14  C   UNL     1      -2.809  11.330  18.527  0.00  0.00    +0.000 C 
ATOM     15  C   UNL     1      -1.477  10.691  18.902  0.00  0.00    +0.000 C 
ENDBRANCH  11  15
BRANCH  11  16
ATOM     16  C   UNL     1      -1.557  12.310  20.805  0.00  0.00    +0.000 C 
BRANCH  16  17
ATOM     17  C   UNL     1      -1.116  13.667  20.281  0.00  0.00    +0.000 A 
ATOM     18  C   UNL     1      -1.756  14.871  20.596  0.00  0.00    +0.000 A 
ATOM     19  C   UNL     1      -1.335  16.077  20.019  0.00  0.00    +0.000 A 
ATOM     20  C   UNL     1      -0.261  16.102  19.134  0.00  0.00    +0.000 A 
ATOM     21  C   UNL     1       0.423  14.924  18.850  0.00  0.00    +0.000 A 
ATOM     22  C   UNL     1       0.003  13.721  19.424  0.00  0.00    +0.000 A 
ENDBRANCH  16  17
ENDBRANCH  11  16
ENDBRANCH   1  12
BRANCH   6  23
ATOM     23  S   UNL     1       4.244   4.576  17.894  0.00  0.00    +0.000 S 
ATOM     24  O   UNL     1       5.105   3.865  18.814  0.00  0.00    +0.000 OA
ATOM     25  O   UNL     1       3.344   3.857  17.019  0.00  0.00    +0.000 OA
BRANCH  23  26
ATOM     26  N   UNL     1       5.249   5.573  16.928  0.00  0.00    +0.000 NA
ATOM     27  C   UNL     1       5.564   5.130  15.534  0.00  0.00    +0.000 C 
ATOM     28  C   UNL     1       6.585   3.987  15.518  0.00  0.00    +0.000 C 
ATOM     29  O   UNL     1       7.794   4.352  16.201  0.00  0.00    +0.000 OA
ATOM     30  C   UNL     1       7.546   4.771  17.553  0.00  0.00    +0.000 C 
ATOM     31  C   UNL     1       6.547   5.937  17.605  0.00  0.00    +0.000 C 
ENDBRANCH  23  26
ENDBRANCH   6  23
TORSDOF 6
ENDMDL
