MODEL 1
REMARK VINA RESULT:      -8.1      0.000      0.000
REMARK  Name = 
REMARK  8 active torsions:
REMARK  status: ('A' for Active; 'I' for Inactive)
REMARK    1  A    between atoms: S_2  and  C_4
REMARK    2  A    between atoms: S_2  and  N_10
REMARK    3  A    between atoms: N_10  and  C_11
REMARK    4  A    between atoms: N_10  and  C_28
REMARK    5  A    between atoms: C_11  and  C_12
REMARK    6  A    between atoms: C_12  and  O_13
REMARK    7  A    between atoms: C_12  and  C_14
REMARK    8  A    between atoms: C_14  and  N_15
REMARK                            x       y       z     vdW  Elec       q    Type
REMARK                         _______ _______ _______ _____ _____    ______ ____
ROOT
ATOM      1  C   UNL     1       0.527   8.227  20.003  0.00  0.00    +0.000 C 
ENDROOT
BRANCH   1   2
ATOM      2  N   UNL     1       0.172   9.691  20.046  0.00  0.00    +0.000 NA
BRANCH   2   3
ATOM      3  C   UNL     1       0.837  10.436  21.209  0.00  0.00    +0.000 C 
ATOM      4  C   UNL     1       0.389  11.891  21.418  0.00  0.00    +0.000 C 
ATOM      5  C   UNL     1      -1.020  12.054  21.987  0.00  0.00    +0.000 C 
ATOM      6  C   UNL     1      -1.276  11.187  23.219  0.00  0.00    +0.000 C 
ATOM      7  C   UNL     1      -0.839   9.746  23.001  0.00  0.00    +0.000 C 
ATOM      8  C   UNL     1       0.622   9.703  22.557  0.00  0.00    +0.000 C 
ENDBRANCH   2   3
BRANCH   2  10
ATOM      9  O   UNL     1       0.884   9.555  17.573  0.00  0.00    +0.000 OA
ATOM     10  S   UNL     1       0.253  10.472  18.497  0.00  0.00    +0.000 S 
ATOM     11  O   UNL     1       0.765  11.813  18.687  0.00  0.00    +0.000 OA
BRANCH  10  12
ATOM     12  C   UNL     1      -1.457  10.660  17.980  0.00  0.00    +0.000 A 
ATOM     13  C   UNL     1      -2.286  11.577  18.648  0.00  0.00    +0.000 A 
ATOM     14  C   UNL     1      -3.626  11.677  18.263  0.00  0.00    +0.000 A 
ATOM     15  C   UNL     1      -4.142  10.891  17.230  0.00  0.00    +0.000 A 
ATOM     16  C   UNL     1      -3.300  10.009  16.552  0.00  0.00    +0.000 A 
ATOM     17  C   UNL     1      -1.957   9.894  16.919  0.00  0.00    +0.000 A 
ENDBRANCH  10  12
ENDBRANCH   2  10
ENDBRANCH   1   2
BRANCH   1  18
ATOM     18  C   UNL     1       2.018   7.843  20.121  0.00  0.00    +0.000 C 
BRANCH  18  19
ATOM     19  O   UNL     1       2.354   7.070  21.270  0.00  0.00    +0.000 OA
ATOM     20  H   UNL     1       3.260   6.735  21.184  0.00  0.00    +0.000 HD
ENDBRANCH  18  19
BRANCH  18  21
ATOM     21  C   UNL     1       2.357   7.033  18.869  0.00  0.00    +0.000 C 
BRANCH  21  22
ATOM     22  N   UNL     1       3.076   5.774  19.072  0.00  0.00    +0.000 N 
ATOM     23  C   UNL     1       2.371   4.578  19.157  0.00  0.00    +0.000 A 
ATOM     24  C   UNL     1       1.299   4.185  19.973  0.00  0.00    +0.000 A 
ATOM     25  C   UNL     1       0.743   2.921  19.746  0.00  0.00    +0.000 A 
ATOM     26  C   UNL     1       1.222   2.098  18.730  0.00  0.00    +0.000 A 
ATOM     27  C   UNL     1       2.246   2.531  17.880  0.00  0.00    +0.000 A 
ATOM     28  C   UNL     1       2.833   3.794  18.094  0.00  0.00    +0.000 A 
ATOM     29  C   UNL     1       3.839   4.556  17.423  0.00  0.00    +0.000 A 
ATOM     30  C   UNL     1       4.478   4.513  16.173  0.00  0.00    +0.000 A 
ATOM     31  C   UNL     1       5.518   5.415  15.917  0.00  0.00    +0.000 A 
ATOM     32  C   UNL     1       6.014   6.241  16.925  0.00  0.00    +0.000 A 
ATOM     33  C   UNL     1       5.380   6.317  18.164  0.00  0.00    +0.000 A 
ATOM     34  C   UNL     1       4.219   5.555  18.314  0.00  0.00    +0.000 A 
ENDBRANCH  21  22
ENDBRANCH  18  21
ENDBRANCH   1  18
TORSDOF 8
ENDMDL
MODEL 2
REMARK VINA RESULT:      -7.9      2.864      8.066
REMARK  Name = 
REMARK  8 active torsions:
REMARK  status: ('A' for Active; 'I' for Inactive)
REMARK    1  A    between atoms: S_2  and  C_4
REMARK    2  A    between atoms: S_2  and  N_10
REMARK    3  A    between atoms: N_10  and  C_11
REMARK    4  A    between atoms: N_10  and  C_28
REMARK    5  A    between atoms: C_11  and  C_12
REMARK    6  A    between atoms: C_12  and  O_13
REMARK    7  A    between atoms: C_12  and  C_14
REMARK    8  A    between atoms: C_14  and  N_15
REMARK                            x       y       z     vdW  Elec       q    Type
REMARK                         _______ _______ _______ _____ _____    ______ ____
ROOT
ATOM      1  C   UNL     1       2.852   6.336  18.800  0.00  0.00    +0.000 C 
ENDROOT
BRANCH   1   2
ATOM      2  N   UNL     1       3.423   4.942  18.750  0.00  0.00    +0.000 NA
BRANCH   2   3
ATOM      3  C   UNL     1       2.696   4.031  17.753  0.00  0.00    +0.000 C 
ATOM      4  C   UNL     1       3.157   2.565  17.723  0.00  0.00    +0.000 C 
ATOM      5  C   UNL     1       2.741   1.737  18.937  0.00  0.00    +0.000 C 
ATOM      6  C   UNL     1       1.258   1.870  19.279  0.00  0.00    +0.000 C 
ATOM      7  C   UNL     1       0.812   3.324  19.317  0.00  0.00    +0.000 C 
ATOM      8  C   UNL     1       1.167   4.016  18.002  0.00  0.00    +0.000 C 
ENDBRANCH   2   3
BRANCH   2  10
ATOM      9  O   UNL     1       5.589   3.627  19.220  0.00  0.00    +0.000 OA
ATOM     10  S   UNL     1       5.158   4.902  18.689  0.00  0.00    +0.000 S 
ATOM     11  O   UNL     1       5.664   6.146  19.229  0.00  0.00    +0.000 OA
BRANCH  10  12
ATOM     12  C   UNL     1       5.563   4.917  16.939  0.00  0.00    +0.000 A 
ATOM     13  C   UNL     1       5.301   6.068  16.178  0.00  0.00    +0.000 A 
ATOM     14  C   UNL     1       5.581   6.046  14.807  0.00  0.00    +0.000 A 
ATOM     15  C   UNL     1       6.117   4.911  14.197  0.00  0.00    +0.000 A 
ATOM     16  C   UNL     1       6.404   3.785  14.971  0.00  0.00    +0.000 A 
ATOM     17  C   UNL     1       6.135   3.786  16.342  0.00  0.00    +0.000 A 
ENDBRANCH  10  12
ENDBRANCH   2  10
ENDBRANCH   1   2
BRANCH   1  18
ATOM     18  C   UNL     1       1.938   6.698  19.990  0.00  0.00    +0.000 C 
BRANCH  18  19
ATOM     19  O   UNL     1       2.205   5.988  21.196  0.00  0.00    +0.000 OA
ATOM     20  H   UNL     1       2.411   6.616  21.906  0.00  0.00    +0.000 HD
ENDBRANCH  18  19
BRANCH  18  21
ATOM     21  C   UNL     1       2.135   8.192  20.247  0.00  0.00    +0.000 C 
BRANCH  21  22
ATOM     22  N   UNL     1       0.971   9.057  20.040  0.00  0.00    +0.000 N 
ATOM     23  C   UNL     1       0.195   9.448  21.127  0.00  0.00    +0.000 A 
ATOM     24  C   UNL     1      -0.442   8.704  22.131  0.00  0.00    +0.000 A 
ATOM     25  C   UNL     1      -1.081   9.412  23.154  0.00  0.00    +0.000 A 
ATOM     26  C   UNL     1      -1.062  10.804  23.184  0.00  0.00    +0.000 A 
ATOM     27  C   UNL     1      -0.365  11.531  22.212  0.00  0.00    +0.000 A 
ATOM     28  C   UNL     1       0.277  10.843  21.163  0.00  0.00    +0.000 A 
ATOM     29  C   UNL     1       1.089  11.241  20.056  0.00  0.00    +0.000 A 
ATOM     30  C   UNL     1       1.791  12.397  19.677  0.00  0.00    +0.000 A 
ATOM     31  C   UNL     1       2.414  12.426  18.423  0.00  0.00    +0.000 A 
ATOM     32  C   UNL     1       2.223  11.395  17.505  0.00  0.00    +0.000 A 
ATOM     33  C   UNL     1       1.550  10.229  17.868  0.00  0.00    +0.000 A 
ATOM     34  C   UNL     1       1.122  10.149  19.194  0.00  0.00    +0.000 A 
ENDBRANCH  21  22
ENDBRANCH  18  21
ENDBRANCH   1  18
TORSDOF 8
ENDMDL
MODEL 3
REMARK VINA RESULT:      -7.8      1.999      2.455
REMARK  Name = 
REMARK  8 active torsions:
REMARK  status: ('A' for Active; 'I' for Inactive)
REMARK    1  A    between atoms: S_2  and  C_4
REMARK    2  A    between atoms: S_2  and  N_10
REMARK    3  A    between atoms: N_10  and  C_11
REMARK    4  A    between atoms: N_10  and  C_28
REMARK    5  A    between atoms: C_11  and  C_12
REMARK    6  A    between atoms: C_12  and  O_13
REMARK    7  A    between atoms: C_12  and  C_14
REMARK    8  A    between atoms: C_14  and  N_15
REMARK                            x       y       z     vdW  Elec       q    Type
REMARK                         _______ _______ _______ _____ _____    ______ ____
ROOT
ATOM      1  C   UNL     1       1.217   9.853  18.235  0.00  0.00    +0.000 C 
ENDROOT
BRANCH   1   2
ATOM      2  N   UNL     1       0.560  11.003  18.954  0.00  0.00    +0.000 NA
BRANCH   2   3
ATOM      3  C   UNL     1       0.667  12.328  18.190  0.00  0.00    +0.000 C 
ATOM      4  C   UNL     1      -0.106  13.513  18.790  0.00  0.00    +0.000 C 
ATOM      5  C   UNL     1       0.496  14.089  20.071  0.00  0.00    +0.000 C 
ATOM      6  C   UNL     1       1.993  14.370  19.962  0.00  0.00    +0.000 C 
ATOM      7  C   UNL     1       2.752  13.188  19.376  0.00  0.00    +0.000 C 
ATOM      8  C   UNL     1       2.140  12.784  18.036  0.00  0.00    +0.000 C 
ENDBRANCH   2   3
BRANCH   2  10
ATOM      9  O   UNL     1      -1.386  11.681  20.501  0.00  0.00    +0.000 OA
ATOM     10  S   UNL     1      -1.008  10.619  19.594  0.00  0.00    +0.000 S 
ATOM     11  O   UNL     1      -1.002   9.236  20.023  0.00  0.00    +0.000 OA
BRANCH  10  12
ATOM     12  C   UNL     1      -2.119  10.700  18.184  0.00  0.00    +0.000 A 
ATOM     13  C   UNL     1      -3.230  11.556  18.227  0.00  0.00    +0.000 A 
ATOM     14  C   UNL     1      -4.110  11.573  17.140  0.00  0.00    +0.000 A 
ATOM     15  C   UNL     1      -3.893  10.762  16.024  0.00  0.00    +0.000 A 
ATOM     16  C   UNL     1      -2.766   9.940  15.979  0.00  0.00    +0.000 A 
ATOM     17  C   UNL     1      -1.874   9.910  17.053  0.00  0.00    +0.000 A 
ENDBRANCH  10  12
ENDBRANCH   2  10
ENDBRANCH   1   2
BRANCH   1  18
ATOM     18  C   UNL     1       2.096   8.892  19.064  0.00  0.00    +0.000 C 
BRANCH  18  19
ATOM     19  O   UNL     1       1.612   8.606  20.373  0.00  0.00    +0.000 OA
ATOM     20  H   UNL     1       1.112   9.365  20.709  0.00  0.00    +0.000 HD
ENDBRANCH  18  19
BRANCH  18  21
ATOM     21  C   UNL     1       2.173   7.586  18.273  0.00  0.00    +0.000 C 
BRANCH  21  22
ATOM     22  N   UNL     1       3.044   6.538  18.810  0.00  0.00    +0.000 N 
ATOM     23  C   UNL     1       2.487   5.397  19.378  0.00  0.00    +0.000 A 
ATOM     24  C   UNL     1       1.536   5.233  20.396  0.00  0.00    +0.000 A 
ATOM     25  C   UNL     1       1.110   3.931  20.679  0.00  0.00    +0.000 A 
ATOM     26  C   UNL     1       1.596   2.843  19.958  0.00  0.00    +0.000 A 
ATOM     27  C   UNL     1       2.494   3.029  18.901  0.00  0.00    +0.000 A 
ATOM     28  C   UNL     1       2.949   4.329  18.602  0.00  0.00    +0.000 A 
ATOM     29  C   UNL     1       3.807   4.883  17.601  0.00  0.00    +0.000 A 
ATOM     30  C   UNL     1       4.345   4.454  16.377  0.00  0.00    +0.000 A 
ATOM     31  C   UNL     1       5.253   5.288  15.711  0.00  0.00    +0.000 A 
ATOM     32  C   UNL     1       5.730   6.450  16.313  0.00  0.00    +0.000 A 
ATOM     33  C   UNL     1       5.192   6.907  17.515  0.00  0.00    +0.000 A 
ATOM     34  C   UNL     1       4.141   6.158  18.047  0.00  0.00    +0.000 A 
ENDBRANCH  21  22
ENDBRANCH  18  21
ENDBRANCH   1  18
TORSDOF 8
ENDMDL
MODEL 4
REMARK VINA RESULT:      -7.8      1.954      3.087
REMARK  Name = 
REMARK  8 active torsions:
REMARK  status: ('A' for Active; 'I' for Inactive)
REMARK    1  A    between atoms: S_2  and  C_4
REMARK    2  A    between atoms: S_2  and  N_10
REMARK    3  A    between atoms: N_10  and  C_11
REMARK    4  A    between atoms: N_10  and  C_28
REMARK    5  A    between atoms: C_11  and  C_12
REMARK    6  A    between atoms: C_12  and  O_13
REMARK    7  A    between atoms: C_12  and  C_14
REMARK    8  A    between atoms: C_14  and  N_15
REMARK                            x       y       z     vdW  Elec       q    Type
REMARK                         _______ _______ _______ _____ _____    ______ ____
ROOT
ATOM      1  C   UNL     1       1.347  10.104  18.162  0.00  0.00    +0.000 C 
ENDROOT
BRANCH   1   2
ATOM      2  N   UNL     1       0.644  11.282  18.784  0.00  0.00    +0.000 NA
BRANCH   2   3
ATOM      3  C   UNL     1       1.171  12.631  18.278  0.00  0.00    +0.000 C 
ATOM      4  C   UNL     1       0.303  13.856  18.606  0.00  0.00    +0.000 C 
ATOM      5  C   UNL     1       0.325  14.284  20.072  0.00  0.00    +0.000 C 
ATOM      6  C   UNL     1       1.737  14.405  20.644  0.00  0.00    +0.000 C 
ATOM      7  C   UNL     1       2.586  13.184  20.324  0.00  0.00    +0.000 C 
ATOM      8  C   UNL     1       2.592  12.930  18.818  0.00  0.00    +0.000 C 
ENDBRANCH   2   3
BRANCH   2  10
ATOM      9  O   UNL     1      -1.393   9.707  18.700  0.00  0.00    +0.000 OA
ATOM     10  S   UNL     1      -1.083  11.113  18.838  0.00  0.00    +0.000 S 
ATOM     11  O   UNL     1      -1.668  12.098  17.953  0.00  0.00    +0.000 OA
BRANCH  10  12
ATOM     12  C   UNL     1      -1.547  11.602  20.504  0.00  0.00    +0.000 A 
ATOM     13  C   UNL     1      -0.774  11.166  21.593  0.00  0.00    +0.000 A 
ATOM     14  C   UNL     1      -1.175  11.518  22.886  0.00  0.00    +0.000 A 
ATOM     15  C   UNL     1      -2.316  12.293  23.102  0.00  0.00    +0.000 A 
ATOM     16  C   UNL     1      -3.056  12.749  22.010  0.00  0.00    +0.000 A 
ATOM     17  C   UNL     1      -2.672  12.411  20.710  0.00  0.00    +0.000 A 
ENDBRANCH  10  12
ENDBRANCH   2  10
ENDBRANCH   1   2
BRANCH   1  18
ATOM     18  C   UNL     1       1.929   9.030  19.106  0.00  0.00    +0.000 C 
BRANCH  18  19
ATOM     19  O   UNL     1       1.127   8.727  20.244  0.00  0.00    +0.000 OA
ATOM     20  H   UNL     1       0.403   9.367  20.313  0.00  0.00    +0.000 HD
ENDBRANCH  18  19
BRANCH  18  21
ATOM     21  C   UNL     1       2.093   7.761  18.269  0.00  0.00    +0.000 C 
BRANCH  21  22
ATOM     22  N   UNL     1       2.966   6.719  18.814  0.00  0.00    +0.000 N 
ATOM     23  C   UNL     1       2.412   5.573  19.376  0.00  0.00    +0.000 A 
ATOM     24  C   UNL     1       1.452   5.402  20.384  0.00  0.00    +0.000 A 
ATOM     25  C   UNL     1       1.033   4.097  20.663  0.00  0.00    +0.000 A 
ATOM     26  C   UNL     1       1.533   3.013  19.945  0.00  0.00    +0.000 A 
ATOM     27  C   UNL     1       2.439   3.206  18.896  0.00  0.00    +0.000 A 
ATOM     28  C   UNL     1       2.888   4.509  18.603  0.00  0.00    +0.000 A 
ATOM     29  C   UNL     1       3.751   5.070  17.610  0.00  0.00    +0.000 A 
ATOM     30  C   UNL     1       4.304   4.646  16.391  0.00  0.00    +0.000 A 
ATOM     31  C   UNL     1       5.212   5.486  15.734  0.00  0.00    +0.000 A 
ATOM     32  C   UNL     1       5.676   6.651  16.341  0.00  0.00    +0.000 A 
ATOM     33  C   UNL     1       5.124   7.103  17.539  0.00  0.00    +0.000 A 
ATOM     34  C   UNL     1       4.072   6.347  18.061  0.00  0.00    +0.000 A 
ENDBRANCH  21  22
ENDBRANCH  18  21
ENDBRANCH   1  18
TORSDOF 8
ENDMDL
MODEL 5
REMARK VINA RESULT:      -7.6      0.918      3.038
REMARK  Name = 
REMARK  8 active torsions:
REMARK  status: ('A' for Active; 'I' for Inactive)
REMARK    1  A    between atoms: S_2  and  C_4
REMARK    2  A    between atoms: S_2  and  N_10
REMARK    3  A    between atoms: N_10  and  C_11
REMARK    4  A    between atoms: N_10  and  C_28
REMARK    5  A    between atoms: C_11  and  C_12
REMARK    6  A    between atoms: C_12  and  O_13
REMARK    7  A    between atoms: C_12  and  C_14
REMARK    8  A    between atoms: C_14  and  N_15
REMARK                            x       y       z     vdW  Elec       q    Type
REMARK                         _______ _______ _______ _____ _____    ______ ____
ROOT
ATOM      1  C   UNL     1       1.768   8.051  19.394  0.00  0.00    +0.000 C 
ENDROOT
BRANCH   1   2
ATOM      2  N   UNL     1       1.051   9.308  19.818  0.00  0.00    +0.000 NA
BRANCH   2   3
ATOM      3  C   UNL     1       1.532   9.846  21.171  0.00  0.00    +0.000 C 
ATOM      4  C   UNL     1       1.077  11.270  21.527  0.00  0.00    +0.000 C 
ATOM      5  C   UNL     1      -0.402  11.399  21.889  0.00  0.00    +0.000 C 
ATOM      6  C   UNL     1      -0.864  10.369  22.919  0.00  0.00    +0.000 C 
ATOM      7  C   UNL     1      -0.417   8.961  22.553  0.00  0.00    +0.000 C 
ATOM      8  C   UNL     1       1.095   8.929  22.340  0.00  0.00    +0.000 C 
ENDBRANCH   2   3
BRANCH   2  10
ATOM      9  O   UNL     1       1.499   9.925  17.356  0.00  0.00    +0.000 OA
ATOM     10  S   UNL     1       0.892  10.480  18.547  0.00  0.00    +0.000 S 
ATOM     11  O   UNL     1       1.297  11.771  19.060  0.00  0.00    +0.000 OA
BRANCH  10  12
ATOM     12  C   UNL     1      -0.875  10.597  18.241  0.00  0.00    +0.000 A 
ATOM     13  C   UNL     1      -1.481   9.712  17.335  0.00  0.00    +0.000 A 
ATOM     14  C   UNL     1      -2.848   9.847  17.074  0.00  0.00    +0.000 A 
ATOM     15  C   UNL     1      -3.609  10.835  17.702  0.00  0.00    +0.000 A 
ATOM     16  C   UNL     1      -3.002  11.687  18.627  0.00  0.00    +0.000 A 
ATOM     17  C   UNL     1      -1.638  11.568  18.903  0.00  0.00    +0.000 A 
ENDBRANCH  10  12
ENDBRANCH   2  10
ENDBRANCH   1   2
BRANCH   1  18
ATOM     18  C   UNL     1       2.015   6.967  20.465  0.00  0.00    +0.000 C 
BRANCH  18  19
ATOM     19  O   UNL     1       0.859   6.237  20.865  0.00  0.00    +0.000 OA
ATOM     20  H   UNL     1       0.838   5.382  20.409  0.00  0.00    +0.000 HD
ENDBRANCH  18  19
BRANCH  18  21
ATOM     21  C   UNL     1       3.027   5.990  19.865  0.00  0.00    +0.000 C 
BRANCH  21  22
ATOM     22  N   UNL     1       2.791   5.558  18.486  0.00  0.00    +0.000 N 
ATOM     23  C   UNL     1       3.777   5.742  17.523  0.00  0.00    +0.000 A 
ATOM     24  C   UNL     1       4.487   6.884  17.123  0.00  0.00    +0.000 A 
ATOM     25  C   UNL     1       5.498   6.718  16.172  0.00  0.00    +0.000 A 
ATOM     26  C   UNL     1       5.804   5.458  15.662  0.00  0.00    +0.000 A 
ATOM     27  C   UNL     1       5.134   4.318  16.121  0.00  0.00    +0.000 A 
ATOM     28  C   UNL     1       4.102   4.459  17.069  0.00  0.00    +0.000 A 
ATOM     29  C   UNL     1       3.256   3.544  17.770  0.00  0.00    +0.000 A 
ATOM     30  C   UNL     1       3.243   2.161  18.017  0.00  0.00    +0.000 A 
ATOM     31  C   UNL     1       2.150   1.609  18.697  0.00  0.00    +0.000 A 
ATOM     32  C   UNL     1       1.029   2.380  18.994  0.00  0.00    +0.000 A 
ATOM     33  C   UNL     1       1.030   3.758  18.780  0.00  0.00    +0.000 A 
ATOM     34  C   UNL     1       2.217   4.308  18.292  0.00  0.00    +0.000 A 
ENDBRANCH  21  22
ENDBRANCH  18  21
ENDBRANCH   1  18
TORSDOF 8
ENDMDL
MODEL 6
REMARK VINA RESULT:      -7.6      1.905      3.285
REMARK  Name = 
REMARK  8 active torsions:
REMARK  status: ('A' for Active; 'I' for Inactive)
REMARK    1  A    between atoms: S_2  and  C_4
REMARK    2  A    between atoms: S_2  and  N_10
REMARK    3  A    between atoms: N_10  and  C_11
REMARK    4  A    between atoms: N_10  and  C_28
REMARK    5  A    between atoms: C_11  and  C_12
REMARK    6  A    between atoms: C_12  and  O_13
REMARK    7  A    between atoms: C_12  and  C_14
REMARK    8  A    between atoms: C_14  and  N_15
REMARK                            x       y       z     vdW  Elec       q    Type
REMARK                         _______ _______ _______ _____ _____    ______ ____
ROOT
ATOM      1  C   UNL     1       1.171   9.843  18.057  0.00  0.00    +0.000 C 
ENDROOT
BRANCH   1   2
ATOM      2  N   UNL     1       0.373  10.941  18.711  0.00  0.00    +0.000 NA
BRANCH   2   3
ATOM      3  C   UNL     1      -0.975  10.459  19.260  0.00  0.00    +0.000 C 
ATOM      4  C   UNL     1      -2.001  11.558  19.581  0.00  0.00    +0.000 C 
ATOM      5  C   UNL     1      -2.625  12.230  18.360  0.00  0.00    +0.000 C 
ATOM      6  C   UNL     1      -3.148  11.236  17.324  0.00  0.00    +0.000 C 
ATOM      7  C   UNL     1      -2.123  10.158  17.004  0.00  0.00    +0.000 C 
ATOM      8  C   UNL     1      -1.667   9.469  18.289  0.00  0.00    +0.000 C 
ENDBRANCH   2   3
BRANCH   2  10
ATOM      9  O   UNL     1       2.590  12.182  19.142  0.00  0.00    +0.000 OA
ATOM     10  S   UNL     1       1.311  11.944  19.774  0.00  0.00    +0.000 S 
ATOM     11  O   UNL     1       1.228  11.397  21.112  0.00  0.00    +0.000 OA
BRANCH  10  12
ATOM     12  C   UNL     1       0.438  13.514  19.823  0.00  0.00    +0.000 A 
ATOM     13  C   UNL     1      -0.137  13.950  21.028  0.00  0.00    +0.000 A 
ATOM     14  C   UNL     1      -0.851  15.152  21.037  0.00  0.00    +0.000 A 
ATOM     15  C   UNL     1      -0.991  15.918  19.878  0.00  0.00    +0.000 A 
ATOM     16  C   UNL     1      -0.386  15.491  18.694  0.00  0.00    +0.000 A 
ATOM     17  C   UNL     1       0.334  14.294  18.664  0.00  0.00    +0.000 A 
ENDBRANCH  10  12
ENDBRANCH   2  10
ENDBRANCH   1   2
BRANCH   1  18
ATOM     18  C   UNL     1       1.953   8.877  18.973  0.00  0.00    +0.000 C 
BRANCH  18  19
ATOM     19  O   UNL     1       1.339   8.603  20.229  0.00  0.00    +0.000 OA
ATOM     20  H   UNL     1       0.557   8.046  20.096  0.00  0.00    +0.000 HD
ENDBRANCH  18  19
BRANCH  18  21
ATOM     21  C   UNL     1       2.091   7.565  18.199  0.00  0.00    +0.000 C 
BRANCH  21  22
ATOM     22  N   UNL     1       2.992   6.557  18.763  0.00  0.00    +0.000 N 
ATOM     23  C   UNL     1       2.468   5.414  19.358  0.00  0.00    +0.000 A 
ATOM     24  C   UNL     1       1.520   5.247  20.378  0.00  0.00    +0.000 A 
ATOM     25  C   UNL     1       1.132   3.940  20.693  0.00  0.00    +0.000 A 
ATOM     26  C   UNL     1       1.652   2.850  20.000  0.00  0.00    +0.000 A 
ATOM     27  C   UNL     1       2.545   3.037  18.939  0.00  0.00    +0.000 A 
ATOM     28  C   UNL     1       2.963   4.341  18.609  0.00  0.00    +0.000 A 
ATOM     29  C   UNL     1       3.805   4.896  17.596  0.00  0.00    +0.000 A 
ATOM     30  C   UNL     1       4.358   4.453  16.383  0.00  0.00    +0.000 A 
ATOM     31  C   UNL     1       5.242   5.296  15.698  0.00  0.00    +0.000 A 
ATOM     32  C   UNL     1       5.683   6.487  16.271  0.00  0.00    +0.000 A 
ATOM     33  C   UNL     1       5.131   6.957  17.461  0.00  0.00    +0.000 A 
ATOM     34  C   UNL     1       4.101   6.191  18.010  0.00  0.00    +0.000 A 
ENDBRANCH  21  22
ENDBRANCH  18  21
ENDBRANCH   1  18
TORSDOF 8
ENDMDL
MODEL 7
REMARK VINA RESULT:      -7.6      1.248      3.046
REMARK  Name = 
REMARK  8 active torsions:
REMARK  status: ('A' for Active; 'I' for Inactive)
REMARK    1  A    between atoms: S_2  and  C_4
REMARK    2  A    between atoms: S_2  and  N_10
REMARK    3  A    between atoms: N_10  and  C_11
REMARK    4  A    between atoms: N_10  and  C_28
REMARK    5  A    between atoms: C_11  and  C_12
REMARK    6  A    between atoms: C_12  and  O_13
REMARK    7  A    between atoms: C_12  and  C_14
REMARK    8  A    between atoms: C_14  and  N_15
REMARK                            x       y       z     vdW  Elec       q    Type
REMARK                         _______ _______ _______ _____ _____    ______ ____
ROOT
ATOM      1  C   UNL     1       2.046   8.980  19.714  0.00  0.00    +0.000 C 
ENDROOT
BRANCH   1   2
ATOM      2  N   UNL     1       1.030  10.056  19.999  0.00  0.00    +0.000 NA
BRANCH   2   3
ATOM      3  C   UNL     1       1.220  10.713  21.372  0.00  0.00    +0.000 C 
ATOM      4  C   UNL     1       0.191  11.790  21.749  0.00  0.00    +0.000 C 
ATOM      5  C   UNL     1      -1.201  11.257  22.086  0.00  0.00    +0.000 C 
ATOM      6  C   UNL     1      -1.180  10.101  23.085  0.00  0.00    +0.000 C 
ATOM      7  C   UNL     1      -0.166   9.035  22.698  0.00  0.00    +0.000 C 
ATOM      8  C   UNL     1       1.213   9.665  22.513  0.00  0.00    +0.000 C 
ENDBRANCH   2   3
BRANCH   2  10
ATOM      9  O   UNL     1       1.536  10.647  17.542  0.00  0.00    +0.000 OA
ATOM     10  S   UNL     1       0.772  11.141  18.667  0.00  0.00    +0.000 S 
ATOM     11  O   UNL     1       0.934  12.498  19.143  0.00  0.00    +0.000 OA
BRANCH  10  12
ATOM     12  C   UNL     1      -0.968  10.962  18.252  0.00  0.00    +0.000 A 
ATOM     13  C   UNL     1      -1.889  11.918  18.709  0.00  0.00    +0.000 A 
ATOM     14  C   UNL     1      -3.245  11.739  18.416  0.00  0.00    +0.000 A 
ATOM     15  C   UNL     1      -3.685  10.640  17.677  0.00  0.00    +0.000 A 
ATOM     16  C   UNL     1      -2.755   9.715  17.199  0.00  0.00    +0.000 A 
ATOM     17  C   UNL     1      -1.396   9.875  17.479  0.00  0.00    +0.000 A 
ENDBRANCH  10  12
ENDBRANCH   2  10
ENDBRANCH   1   2
BRANCH   1  18
ATOM     18  C   UNL     1       1.586   7.753  18.898  0.00  0.00    +0.000 C 
BRANCH  18  19
ATOM     19  O   UNL     1       1.552   7.943  17.486  0.00  0.00    +0.000 OA
ATOM     20  H   UNL     1       0.704   7.629  17.135  0.00  0.00    +0.000 HD
ENDBRANCH  18  19
BRANCH  18  21
ATOM     21  C   UNL     1       2.572   6.628  19.217  0.00  0.00    +0.000 C 
BRANCH  21  22
ATOM     22  N   UNL     1       3.075   5.849  18.083  0.00  0.00    +0.000 N 
ATOM     23  C   UNL     1       4.415   5.936  17.721  0.00  0.00    +0.000 A 
ATOM     24  C   UNL     1       5.229   7.039  17.421  0.00  0.00    +0.000 A 
ATOM     25  C   UNL     1       6.585   6.796  17.179  0.00  0.00    +0.000 A 
ATOM     26  C   UNL     1       7.109   5.508  17.260  0.00  0.00    +0.000 A 
ATOM     27  C   UNL     1       6.299   4.428  17.627  0.00  0.00    +0.000 A 
ATOM     28  C   UNL     1       4.926   4.642  17.864  0.00  0.00    +0.000 A 
ATOM     29  C   UNL     1       3.841   3.811  18.282  0.00  0.00    +0.000 A 
ATOM     30  C   UNL     1       3.705   2.540  18.864  0.00  0.00    +0.000 A 
ATOM     31  C   UNL     1       2.418   2.016  19.043  0.00  0.00    +0.000 A 
ATOM     32  C   UNL     1       1.302   2.668  18.522  0.00  0.00    +0.000 A 
ATOM     33  C   UNL     1       1.412   3.939  17.962  0.00  0.00    +0.000 A 
ATOM     34  C   UNL     1       2.681   4.520  17.990  0.00  0.00    +0.000 A 
ENDBRANCH  21  22
ENDBRANCH  18  21
ENDBRANCH   1  18
TORSDOF 8
ENDMDL
MODEL 8
REMARK VINA RESULT:      -7.5      1.175      1.518
REMARK  Name = 
REMARK  8 active torsions:
REMARK  status: ('A' for Active; 'I' for Inactive)
REMARK    1  A    between atoms: S_2  and  C_4
REMARK    2  A    between atoms: S_2  and  N_10
REMARK    3  A    between atoms: N_10  and  C_11
REMARK    4  A    between atoms: N_10  and  C_28
REMARK    5  A    between atoms: C_11  and  C_12
REMARK    6  A    between atoms: C_12  and  O_13
REMARK    7  A    between atoms: C_12  and  C_14
REMARK    8  A    between atoms: C_14  and  N_15
REMARK                            x       y       z     vdW  Elec       q    Type
REMARK                         _______ _______ _______ _____ _____    ______ ____
ROOT
ATOM      1  C   UNL     1       1.403   8.444  19.669  0.00  0.00    +0.000 C 
ENDROOT
BRANCH   1   2
ATOM      2  N   UNL     1       0.652   9.731  19.895  0.00  0.00    +0.000 NA
BRANCH   2   3
ATOM      3  C   UNL     1       1.116  10.484  21.148  0.00  0.00    +0.000 C 
ATOM      4  C   UNL     1       0.281  11.714  21.540  0.00  0.00    +0.000 C 
ATOM      5  C   UNL     1      -1.096  11.395  22.120  0.00  0.00    +0.000 C 
ATOM      6  C   UNL     1      -1.056  10.345  23.229  0.00  0.00    +0.000 C 
ATOM      7  C   UNL     1      -0.236   9.128  22.829  0.00  0.00    +0.000 C 
ATOM      8  C   UNL     1       1.162   9.558  22.389  0.00  0.00    +0.000 C 
ENDBRANCH   2   3
BRANCH   2  10
ATOM      9  O   UNL     1       1.082   9.972  17.366  0.00  0.00    +0.000 OA
ATOM     10  S   UNL     1       0.463  10.689  18.459  0.00  0.00    +0.000 S 
ATOM     11  O   UNL     1       0.838  12.053  18.766  0.00  0.00    +0.000 OA
BRANCH  10  12
ATOM     12  C   UNL     1      -1.306  10.716  18.148  0.00  0.00    +0.000 A 
ATOM     13  C   UNL     1      -1.866   9.789  17.254  0.00  0.00    +0.000 A 
ATOM     14  C   UNL     1      -3.238   9.853  16.989  0.00  0.00    +0.000 A 
ATOM     15  C   UNL     1      -4.047  10.813  17.600  0.00  0.00    +0.000 A 
ATOM     16  C   UNL     1      -3.485  11.707  18.512  0.00  0.00    +0.000 A 
ATOM     17  C   UNL     1      -2.117  11.659  18.794  0.00  0.00    +0.000 A 
ENDBRANCH  10  12
ENDBRANCH   2  10
ENDBRANCH   1   2
BRANCH   1  18
ATOM     18  C   UNL     1       2.061   8.227  18.290  0.00  0.00    +0.000 C 
BRANCH  18  19
ATOM     19  O   UNL     1       3.369   8.774  18.150  0.00  0.00    +0.000 OA
ATOM     20  H   UNL     1       3.656   9.154  18.995  0.00  0.00    +0.000 HD
ENDBRANCH  18  19
BRANCH  18  21
ATOM     21  C   UNL     1       2.139   6.714  18.081  0.00  0.00    +0.000 C 
BRANCH  21  22
ATOM     22  N   UNL     1       3.257   6.016  18.718  0.00  0.00    +0.000 N 
ATOM     23  C   UNL     1       3.009   5.017  19.655  0.00  0.00    +0.000 A 
ATOM     24  C   UNL     1       2.239   5.011  20.827  0.00  0.00    +0.000 A 
ATOM     25  C   UNL     1       2.115   3.799  21.514  0.00  0.00    +0.000 A 
ATOM     26  C   UNL     1       2.714   2.637  21.034  0.00  0.00    +0.000 A 
ATOM     27  C   UNL     1       3.422   2.644  19.826  0.00  0.00    +0.000 A 
ATOM     28  C   UNL     1       3.574   3.854  19.121  0.00  0.00    +0.000 A 
ATOM     29  C   UNL     1       4.178   4.219  17.877  0.00  0.00    +0.000 A 
ATOM     30  C   UNL     1       4.637   3.540  16.736  0.00  0.00    +0.000 A 
ATOM     31  C   UNL     1       5.275   4.274  15.728  0.00  0.00    +0.000 A 
ATOM     32  C   UNL     1       5.584   5.620  15.910  0.00  0.00    +0.000 A 
ATOM     33  C   UNL     1       5.118   6.318  17.022  0.00  0.00    +0.000 A 
ATOM     34  C   UNL     1       4.306   5.604  17.906  0.00  0.00    +0.000 A 
ENDBRANCH  21  22
ENDBRANCH  18  21
ENDBRANCH   1  18
TORSDOF 8
ENDMDL
MODEL 9
REMARK VINA RESULT:      -7.3      2.115      3.308
REMARK  Name = 
REMARK  8 active torsions:
REMARK  status: ('A' for Active; 'I' for Inactive)
REMARK    1  A    between atoms: S_2  and  C_4
REMARK    2  A    between atoms: S_2  and  N_10
REMARK    3  A    between atoms: N_10  and  C_11
REMARK    4  A    between atoms: N_10  and  C_28
REMARK    5  A    between atoms: C_11  and  C_12
REMARK    6  A    between atoms: C_12  and  O_13
REMARK    7  A    between atoms: C_12  and  C_14
REMARK    8  A    between atoms: C_14  and  N_15
REMARK                            x       y       z     vdW  Elec       q    Type
REMARK                         _______ _______ _______ _____ _____    ______ ____
ROOT
ATOM      1  C   UNL     1       1.180   9.376  19.408  0.00  0.00    +0.000 C 
ENDROOT
BRANCH   1   2
ATOM      2  N   UNL     1       0.921  10.529  20.343  0.00  0.00    +0.000 NA
BRANCH   2   3
ATOM      3  C   UNL     1       0.502  11.810  19.612  0.00  0.00    +0.000 C 
ATOM      4  C   UNL     1       1.006  13.127  20.225  0.00  0.00    +0.000 C 
ATOM      5  C   UNL     1       2.499  13.390  20.039  0.00  0.00    +0.000 C 
ATOM      6  C   UNL     1       2.970  13.205  18.597  0.00  0.00    +0.000 C 
ATOM      7  C   UNL     1       2.476  11.895  18.003  0.00  0.00    +0.000 C 
ATOM      8  C   UNL     1       0.956  11.801  18.131  0.00  0.00    +0.000 C 
ENDBRANCH   2   3
BRANCH   2  10
ATOM      9  O   UNL     1       0.841  10.121  22.886  0.00  0.00    +0.000 OA
ATOM     10  S   UNL     1      -0.030  10.100  21.731  0.00  0.00    +0.000 S 
ATOM     11  O   UNL     1      -0.812   8.925  21.406  0.00  0.00    +0.000 OA
BRANCH  10  12
ATOM     12  C   UNL     1      -1.207  11.444  21.923  0.00  0.00    +0.000 A 
ATOM     13  C   UNL     1      -2.178  11.660  20.932  0.00  0.00    +0.000 A 
ATOM     14  C   UNL     1      -3.057  12.739  21.075  0.00  0.00    +0.000 A 
ATOM     15  C   UNL     1      -2.984  13.588  22.181  0.00  0.00    +0.000 A 
ATOM     16  C   UNL     1      -2.036  13.342  23.176  0.00  0.00    +0.000 A 
ATOM     17  C   UNL     1      -1.150  12.268  23.054  0.00  0.00    +0.000 A 
ENDBRANCH  10  12
ENDBRANCH   2  10
ENDBRANCH   1   2
BRANCH   1  18
ATOM     18  C   UNL     1       2.152   8.272  19.877  0.00  0.00    +0.000 C 
BRANCH  18  19
ATOM     19  O   UNL     1       1.787   7.618  21.089  0.00  0.00    +0.000 OA
ATOM     20  H   UNL     1       0.898   7.242  21.001  0.00  0.00    +0.000 HD
ENDBRANCH  18  19
BRANCH  18  21
ATOM     21  C   UNL     1       2.201   7.233  18.755  0.00  0.00    +0.000 C 
BRANCH  21  22
ATOM     22  N   UNL     1       2.983   6.022  19.010  0.00  0.00    +0.000 N 
ATOM     23  C   UNL     1       2.338   4.800  19.168  0.00  0.00    +0.000 A 
ATOM     24  C   UNL     1       1.298   4.399  20.021  0.00  0.00    +0.000 A 
ATOM     25  C   UNL     1       0.801   3.101  19.869  0.00  0.00    +0.000 A 
ATOM     26  C   UNL     1       1.304   2.249  18.888  0.00  0.00    +0.000 A 
ATOM     27  C   UNL     1       2.293   2.686  18.000  0.00  0.00    +0.000 A 
ATOM     28  C   UNL     1       2.822   3.985  18.139  0.00  0.00    +0.000 A 
ATOM     29  C   UNL     1       3.781   4.758  17.413  0.00  0.00    +0.000 A 
ATOM     30  C   UNL     1       4.403   4.680  16.156  0.00  0.00    +0.000 A 
ATOM     31  C   UNL     1       5.394   5.616  15.837  0.00  0.00    +0.000 A 
ATOM     32  C   UNL     1       5.864   6.516  16.792  0.00  0.00    +0.000 A 
ATOM     33  C   UNL     1       5.245   6.626  18.036  0.00  0.00    +0.000 A 
ATOM     34  C   UNL     1       4.124   5.819  18.245  0.00  0.00    +0.000 A 
ENDBRANCH  21  22
ENDBRANCH  18  21
ENDBRANCH   1  18
TORSDOF 8
ENDMDL
