MODEL 1
REMARK VINA RESULT:      -7.3      0.000      0.000
REMARK  Name = 
REMARK  5 active torsions:
REMARK  status: ('A' for Active; 'I' for Inactive)
REMARK    1  A    between atoms: C_4  and  C_5
REMARK    2  A    between atoms: C_5  and  N_6
REMARK    3  A    between atoms: C_8  and  O_9
REMARK    4  A    between atoms: O_9  and  C_10
REMARK    5  A    between atoms: C_10  and  C_11
REMARK                            x       y       z     vdW  Elec       q    Type
REMARK                         _______ _______ _______ _____ _____    ______ ____
ROOT
ATOM      1  N   UNL     1       5.290   3.863  18.884  0.00  0.00    +0.000 NA
ATOM      2  C   UNL     1       4.850   5.209  19.319  0.00  0.00    +0.000 C 
ATOM      3  C   UNL     1       4.590   6.062  18.055  0.00  0.00    +0.000 C 
ATOM      4  C   UNL     1       5.097   5.186  16.897  0.00  0.00    +0.000 C 
ATOM      5  C   UNL     1       6.084   5.844  15.960  0.00  0.00    +0.000 C 
ATOM      6  O   UNL     1       7.392   5.716  16.531  0.00  0.00    +0.000 OA
ATOM      7  C   UNL     1       7.326   4.800  17.636  0.00  0.00    +0.000 C 
ATOM      8  C   UNL     1       5.946   4.131  17.583  0.00  0.00    +0.000 C 
ENDROOT
BRANCH   1   9
ATOM      9  C   UNL     1       4.135   2.959  18.644  0.00  0.00    +0.000 C 
BRANCH   9  13
ATOM     10  C   UNL     1       1.179   3.533  20.835  0.00  0.00    +0.000 A 
ATOM     11  C   UNL     1       2.136   2.924  21.610  0.00  0.00    +0.000 A 
ATOM     12  O   UNL     1       3.232   2.640  20.864  0.00  0.00    +0.000 OA
ATOM     13  C   UNL     1       2.989   3.079  19.592  0.00  0.00    +0.000 A 
ATOM     14  C   UNL     1       1.722   3.621  19.526  0.00  0.00    +0.000 A 
ENDBRANCH   9  13
ENDBRANCH   1   9
BRANCH   3  15
ATOM     15  O   UNL     1       3.198   6.336  17.839  0.00  0.00    +0.000 OA
BRANCH  15  16
ATOM     16  C   UNL     1       2.945   7.666  17.374  0.00  0.00    +0.000 C 
BRANCH  16  17
ATOM     17  C   UNL     1       2.410   8.537  18.516  0.00  0.00    +0.000 C 
ATOM     18  C   UNL     1       1.961   7.661  19.696  0.00  0.00    +0.000 C 
ATOM     19  C   UNL     1       1.291   8.489  20.782  0.00  0.00    +0.000 C 
ATOM     20  O   UNL     1       0.217   9.263  20.254  0.00  0.00    +0.000 OA
ATOM     21  C   UNL     1       0.659  10.181  19.254  0.00  0.00    +0.000 C 
ATOM     22  C   UNL     1       1.246   9.431  18.065  0.00  0.00    +0.000 C 
ENDBRANCH  16  17
ENDBRANCH  15  16
ENDBRANCH   3  15
TORSDOF 5
ENDMDL
MODEL 2
REMARK VINA RESULT:      -7.2      0.628      1.198
REMARK  Name = 
REMARK  5 active torsions:
REMARK  status: ('A' for Active; 'I' for Inactive)
REMARK    1  A    between atoms: C_4  and  C_5
REMARK    2  A    between atoms: C_5  and  N_6
REMARK    3  A    between atoms: C_8  and  O_9
REMARK    4  A    between atoms: O_9  and  C_10
REMARK    5  A    between atoms: C_10  and  C_11
REMARK                            x       y       z     vdW  Elec       q    Type
REMARK                         _______ _______ _______ _____ _____    ______ ____
ROOT
ATOM      1  N   UNL     1       5.024   3.802  18.405  0.00  0.00    +0.000 NA
ATOM      2  C   UNL     1       4.830   5.087  19.115  0.00  0.00    +0.000 C 
ATOM      3  C   UNL     1       4.451   6.163  18.070  0.00  0.00    +0.000 C 
ATOM      4  C   UNL     1       4.637   5.455  16.717  0.00  0.00    +0.000 C 
ATOM      5  C   UNL     1       5.512   6.175  15.715  0.00  0.00    +0.000 C 
ATOM      6  O   UNL     1       6.877   5.838  15.994  0.00  0.00    +0.000 OA
ATOM      7  C   UNL     1       6.901   4.756  16.940  0.00  0.00    +0.000 C 
ATOM      8  C   UNL     1       5.465   4.230  17.057  0.00  0.00    +0.000 C 
ENDROOT
BRANCH   1   9
ATOM      9  C   UNL     1       3.747   3.056  18.261  0.00  0.00    +0.000 C 
BRANCH   9  13
ATOM     10  C   UNL     1       1.305   3.459  21.045  0.00  0.00    +0.000 A 
ATOM     11  C   UNL     1       2.377   2.765  21.553  0.00  0.00    +0.000 A 
ATOM     12  O   UNL     1       3.293   2.538  20.580  0.00  0.00    +0.000 OA
ATOM     13  C   UNL     1       2.816   3.101  19.428  0.00  0.00    +0.000 A 
ATOM     14  C   UNL     1       1.580   3.664  19.667  0.00  0.00    +0.000 A 
ENDBRANCH   9  13
ENDBRANCH   1   9
BRANCH   3  15
ATOM     15  O   UNL     1       3.085   6.590  18.173  0.00  0.00    +0.000 OA
BRANCH  15  16
ATOM     16  C   UNL     1       2.864   7.915  17.680  0.00  0.00    +0.000 C 
BRANCH  16  17
ATOM     17  C   UNL     1       1.718   8.585  18.447  0.00  0.00    +0.000 C 
ATOM     18  C   UNL     1       1.744  10.106  18.232  0.00  0.00    +0.000 C 
ATOM     19  C   UNL     1       0.709  10.809  19.097  0.00  0.00    +0.000 C 
ATOM     20  O   UNL     1       0.861  10.463  20.471  0.00  0.00    +0.000 OA
ATOM     21  C   UNL     1       0.696   9.062  20.691  0.00  0.00    +0.000 C 
ATOM     22  C   UNL     1       1.768   8.275  19.950  0.00  0.00    +0.000 C 
ENDBRANCH  16  17
ENDBRANCH  15  16
ENDBRANCH   3  15
TORSDOF 5
ENDMDL
MODEL 3
REMARK VINA RESULT:      -7.2      2.431      5.728
REMARK  Name = 
REMARK  5 active torsions:
REMARK  status: ('A' for Active; 'I' for Inactive)
REMARK    1  A    between atoms: C_4  and  C_5
REMARK    2  A    between atoms: C_5  and  N_6
REMARK    3  A    between atoms: C_8  and  O_9
REMARK    4  A    between atoms: O_9  and  C_10
REMARK    5  A    between atoms: C_10  and  C_11
REMARK                            x       y       z     vdW  Elec       q    Type
REMARK                         _______ _______ _______ _____ _____    ______ ____
ROOT
ATOM      1  N   UNL     1       6.768   5.804  17.388  0.00  0.00    +0.000 NA
ATOM      2  C   UNL     1       6.655   5.610  18.852  0.00  0.00    +0.000 C 
ATOM      3  C   UNL     1       5.219   5.125  19.164  0.00  0.00    +0.000 C 
ATOM      4  C   UNL     1       4.480   5.249  17.821  0.00  0.00    +0.000 C 
ATOM      5  C   UNL     1       3.185   6.029  17.854  0.00  0.00    +0.000 C 
ATOM      6  O   UNL     1       3.502   7.421  17.721  0.00  0.00    +0.000 OA
ATOM      7  C   UNL     1       4.885   7.545  17.351  0.00  0.00    +0.000 C 
ATOM      8  C   UNL     1       5.382   6.140  16.988  0.00  0.00    +0.000 C 
ENDROOT
BRANCH   1   9
ATOM      9  C   UNL     1       7.159   4.548  16.696  0.00  0.00    +0.000 C 
BRANCH   9  13
ATOM     10  C   UNL     1       6.502   4.112  13.056  0.00  0.00    +0.000 A 
ATOM     11  C   UNL     1       7.490   5.060  13.172  0.00  0.00    +0.000 A 
ATOM     12  O   UNL     1       7.752   5.308  14.478  0.00  0.00    +0.000 OA
ATOM     13  C   UNL     1       6.933   4.503  15.221  0.00  0.00    +0.000 A 
ATOM     14  C   UNL     1       6.129   3.761  14.381  0.00  0.00    +0.000 A 
ENDBRANCH   9  13
ENDBRANCH   1   9
BRANCH   3  15
ATOM     15  O   UNL     1       5.169   3.755  19.585  0.00  0.00    +0.000 OA
BRANCH  15  16
ATOM     16  C   UNL     1       4.478   2.902  18.667  0.00  0.00    +0.000 C 
BRANCH  16  17
ATOM     17  C   UNL     1       3.160   2.415  19.280  0.00  0.00    +0.000 C 
ATOM     18  C   UNL     1       2.004   2.600  18.284  0.00  0.00    +0.000 C 
ATOM     19  C   UNL     1       0.663   2.262  18.918  0.00  0.00    +0.000 C 
ATOM     20  O   UNL     1       0.456   3.004  20.118  0.00  0.00    +0.000 OA
ATOM     21  C   UNL     1       1.455   2.724  21.099  0.00  0.00    +0.000 C 
ATOM     22  C   UNL     1       2.830   3.139  20.593  0.00  0.00    +0.000 C 
ENDBRANCH  16  17
ENDBRANCH  15  16
ENDBRANCH   3  15
TORSDOF 5
ENDMDL
MODEL 4
REMARK VINA RESULT:      -7.2      0.860      1.074
REMARK  Name = 
REMARK  5 active torsions:
REMARK  status: ('A' for Active; 'I' for Inactive)
REMARK    1  A    between atoms: C_4  and  C_5
REMARK    2  A    between atoms: C_5  and  N_6
REMARK    3  A    between atoms: C_8  and  O_9
REMARK    4  A    between atoms: O_9  and  C_10
REMARK    5  A    between atoms: C_10  and  C_11
REMARK                            x       y       z     vdW  Elec       q    Type
REMARK                         _______ _______ _______ _____ _____    ______ ____
ROOT
ATOM      1  N   UNL     1       5.160   3.980  18.553  0.00  0.00    +0.000 NA
ATOM      2  C   UNL     1       4.886   5.364  19.002  0.00  0.00    +0.000 C 
ATOM      3  C   UNL     1       4.612   6.231  17.751  0.00  0.00    +0.000 C 
ATOM      4  C   UNL     1       4.942   5.303  16.570  0.00  0.00    +0.000 C 
ATOM      5  C   UNL     1       5.912   5.856  15.551  0.00  0.00    +0.000 C 
ATOM      6  O   UNL     1       7.242   5.605  16.021  0.00  0.00    +0.000 OA
ATOM      7  C   UNL     1       7.173   4.707  17.140  0.00  0.00    +0.000 C 
ATOM      8  C   UNL     1       5.735   4.175  17.203  0.00  0.00    +0.000 C 
ENDROOT
BRANCH   1   9
ATOM      9  C   UNL     1       3.908   3.190  18.414  0.00  0.00    +0.000 C 
BRANCH   9  13
ATOM     10  C   UNL     1       1.831   2.853  21.487  0.00  0.00    +0.000 A 
ATOM     11  C   UNL     1       1.024   3.401  20.520  0.00  0.00    +0.000 A 
ATOM     12  O   UNL     1       1.727   3.598  19.378  0.00  0.00    +0.000 OA
ATOM     13  C   UNL     1       3.004   3.163  19.602  0.00  0.00    +0.000 A 
ATOM     14  C   UNL     1       3.116   2.712  20.901  0.00  0.00    +0.000 A 
ENDBRANCH   9  13
ENDBRANCH   1   9
BRANCH   3  15
ATOM     15  O   UNL     1       3.241   6.638  17.638  0.00  0.00    +0.000 OA
BRANCH  15  16
ATOM     16  C   UNL     1       2.566   6.721  18.897  0.00  0.00    +0.000 C 
BRANCH  16  17
ATOM     17  C   UNL     1       2.199   8.176  19.211  0.00  0.00    +0.000 C 
ATOM     18  C   UNL     1       1.307   8.247  20.460  0.00  0.00    +0.000 C 
ATOM     19  C   UNL     1       0.808   9.663  20.708  0.00  0.00    +0.000 C 
ATOM     20  O   UNL     1       0.156  10.191  19.557  0.00  0.00    +0.000 OA
ATOM     21  C   UNL     1       1.029  10.256  18.429  0.00  0.00    +0.000 C 
ATOM     22  C   UNL     1       1.493   8.862  18.032  0.00  0.00    +0.000 C 
ENDBRANCH  16  17
ENDBRANCH  15  16
ENDBRANCH   3  15
TORSDOF 5
ENDMDL
MODEL 5
REMARK VINA RESULT:      -7.1      1.362      1.731
REMARK  Name = 
REMARK  5 active torsions:
REMARK  status: ('A' for Active; 'I' for Inactive)
REMARK    1  A    between atoms: C_4  and  C_5
REMARK    2  A    between atoms: C_5  and  N_6
REMARK    3  A    between atoms: C_8  and  O_9
REMARK    4  A    between atoms: O_9  and  C_10
REMARK    5  A    between atoms: C_10  and  C_11
REMARK                            x       y       z     vdW  Elec       q    Type
REMARK                         _______ _______ _______ _____ _____    ______ ____
ROOT
ATOM      1  N   UNL     1       5.028   3.608  17.605  0.00  0.00    +0.000 NA
ATOM      2  C   UNL     1       4.897   4.124  18.986  0.00  0.00    +0.000 C 
ATOM      3  C   UNL     1       4.970   5.669  18.932  0.00  0.00    +0.000 C 
ATOM      4  C   UNL     1       5.347   5.977  17.474  0.00  0.00    +0.000 C 
ATOM      5  C   UNL     1       6.546   6.878  17.282  0.00  0.00    +0.000 C 
ATOM      6  O   UNL     1       7.726   6.066  17.336  0.00  0.00    +0.000 OA
ATOM      7  C   UNL     1       7.336   4.684  17.292  0.00  0.00    +0.000 C 
ATOM      8  C   UNL     1       5.844   4.648  16.936  0.00  0.00    +0.000 C 
ENDROOT
BRANCH   1   9
ATOM      9  C   UNL     1       3.712   3.538  16.917  0.00  0.00    +0.000 C 
BRANCH   9  13
ATOM     10  C   UNL     1       0.748   2.978  19.102  0.00  0.00    +0.000 A 
ATOM     11  C   UNL     1       1.525   1.848  19.189  0.00  0.00    +0.000 A 
ATOM     12  O   UNL     1       2.607   1.960  18.379  0.00  0.00    +0.000 OA
ATOM     13  C   UNL     1       2.538   3.180  17.767  0.00  0.00    +0.000 A 
ATOM     14  C   UNL     1       1.392   3.835  18.171  0.00  0.00    +0.000 A 
ENDBRANCH   9  13
ENDBRANCH   1   9
BRANCH   3  15
ATOM     15  O   UNL     1       3.715   6.301  19.219  0.00  0.00    +0.000 OA
BRANCH  15  16
ATOM     16  C   UNL     1       3.172   7.020  18.108  0.00  0.00    +0.000 C 
BRANCH  16  17
ATOM     17  C   UNL     1       1.983   7.877  18.557  0.00  0.00    +0.000 C 
ATOM     18  C   UNL     1       2.075   9.285  17.950  0.00  0.00    +0.000 C 
ATOM     19  C   UNL     1       0.988  10.200  18.494  0.00  0.00    +0.000 C 
ATOM     20  O   UNL     1       1.005  10.232  19.919  0.00  0.00    +0.000 OA
ATOM     21  C   UNL     1       0.778   8.941  20.487  0.00  0.00    +0.000 C 
ATOM     22  C   UNL     1       1.888   7.980  20.086  0.00  0.00    +0.000 C 
ENDBRANCH  16  17
ENDBRANCH  15  16
ENDBRANCH   3  15
TORSDOF 5
ENDMDL
MODEL 6
REMARK VINA RESULT:      -7.1      1.649      6.053
REMARK  Name = 
REMARK  5 active torsions:
REMARK  status: ('A' for Active; 'I' for Inactive)
REMARK    1  A    between atoms: C_4  and  C_5
REMARK    2  A    between atoms: C_5  and  N_6
REMARK    3  A    between atoms: C_8  and  O_9
REMARK    4  A    between atoms: O_9  and  C_10
REMARK    5  A    between atoms: C_10  and  C_11
REMARK                            x       y       z     vdW  Elec       q    Type
REMARK                         _______ _______ _______ _____ _____    ______ ____
ROOT
ATOM      1  N   UNL     1       2.702   5.680  19.733  0.00  0.00    +0.000 NA
ATOM      2  C   UNL     1       3.870   4.806  19.986  0.00  0.00    +0.000 C 
ATOM      3  C   UNL     1       3.693   3.513  19.155  0.00  0.00    +0.000 C 
ATOM      4  C   UNL     1       2.271   3.626  18.580  0.00  0.00    +0.000 C 
ATOM      5  C   UNL     1       1.367   2.439  18.827  0.00  0.00    +0.000 C 
ATOM      6  O   UNL     1       0.775   2.594  20.123  0.00  0.00    +0.000 OA
ATOM      7  C   UNL     1       1.046   3.922  20.598  0.00  0.00    +0.000 C 
ATOM      8  C   UNL     1       1.625   4.713  19.418  0.00  0.00    +0.000 C 
ENDROOT
BRANCH   1   9
ATOM      9  C   UNL     1       2.911   6.545  18.542  0.00  0.00    +0.000 C 
BRANCH   9  13
ATOM     10  C   UNL     1       1.454   9.968  18.366  0.00  0.00    +0.000 A 
ATOM     11  C   UNL     1       1.163   9.476  19.616  0.00  0.00    +0.000 A 
ATOM     12  O   UNL     1       1.625   8.208  19.739  0.00  0.00    +0.000 OA
ATOM     13  C   UNL     1       2.232   7.875  18.560  0.00  0.00    +0.000 A 
ATOM     14  C   UNL     1       2.132   8.929  17.676  0.00  0.00    +0.000 A 
ENDBRANCH   9  13
ENDBRANCH   1   9
BRANCH   3  15
ATOM     15  O   UNL     1       4.617   3.416  18.062  0.00  0.00    +0.000 OA
BRANCH  15  16
ATOM     16  C   UNL     1       4.055   3.805  16.805  0.00  0.00    +0.000 C 
BRANCH  16  17
ATOM     17  C   UNL     1       5.011   4.746  16.062  0.00  0.00    +0.000 C 
ATOM     18  C   UNL     1       5.774   3.982  14.968  0.00  0.00    +0.000 C 
ATOM     19  C   UNL     1       6.834   4.856  14.314  0.00  0.00    +0.000 C 
ATOM     20  O   UNL     1       7.714   5.416  15.285  0.00  0.00    +0.000 OA
ATOM     21  C   UNL     1       7.022   6.243  16.221  0.00  0.00    +0.000 C 
ATOM     22  C   UNL     1       6.011   5.423  17.011  0.00  0.00    +0.000 C 
ENDBRANCH  16  17
ENDBRANCH  15  16
ENDBRANCH   3  15
TORSDOF 5
ENDMDL
MODEL 7
REMARK VINA RESULT:      -7.0      1.504      4.876
REMARK  Name = 
REMARK  5 active torsions:
REMARK  status: ('A' for Active; 'I' for Inactive)
REMARK    1  A    between atoms: C_4  and  C_5
REMARK    2  A    between atoms: C_5  and  N_6
REMARK    3  A    between atoms: C_8  and  O_9
REMARK    4  A    between atoms: O_9  and  C_10
REMARK    5  A    between atoms: C_10  and  C_11
REMARK                            x       y       z     vdW  Elec       q    Type
REMARK                         _______ _______ _______ _____ _____    ______ ____
ROOT
ATOM      1  N   UNL     1       4.087   5.982  17.587  0.00  0.00    +0.000 NA
ATOM      2  C   UNL     1       4.275   4.518  17.465  0.00  0.00    +0.000 C 
ATOM      3  C   UNL     1       5.472   4.111  18.356  0.00  0.00    +0.000 C 
ATOM      4  C   UNL     1       6.065   5.449  18.827  0.00  0.00    +0.000 C 
ATOM      5  C   UNL     1       7.547   5.629  18.590  0.00  0.00    +0.000 C 
ATOM      6  O   UNL     1       7.729   6.106  17.251  0.00  0.00    +0.000 OA
ATOM      7  C   UNL     1       6.448   6.480  16.717  0.00  0.00    +0.000 C 
ATOM      8  C   UNL     1       5.453   6.470  17.885  0.00  0.00    +0.000 C 
ENDROOT
BRANCH   1   9
ATOM      9  C   UNL     1       3.210   6.330  18.736  0.00  0.00    +0.000 C 
BRANCH   9  13
ATOM     10  C   UNL     1       1.534   9.618  18.235  0.00  0.00    +0.000 A 
ATOM     11  C   UNL     1       1.250   9.218  19.518  0.00  0.00    +0.000 A 
ATOM     12  O   UNL     1       1.791   7.999  19.760  0.00  0.00    +0.000 OA
ATOM     13  C   UNL     1       2.444   7.606  18.625  0.00  0.00    +0.000 A 
ATOM     14  C   UNL     1       2.294   8.571  17.650  0.00  0.00    +0.000 A 
ENDBRANCH   9  13
ENDBRANCH   1   9
BRANCH   3  15
ATOM     15  O   UNL     1       5.080   3.357  19.513  0.00  0.00    +0.000 OA
BRANCH  15  16
ATOM     16  C   UNL     1       4.447   2.114  19.196  0.00  0.00    +0.000 C 
BRANCH  16  17
ATOM     17  C   UNL     1       2.998   2.110  19.694  0.00  0.00    +0.000 C 
ATOM     18  C   UNL     1       2.026   2.329  18.524  0.00  0.00    +0.000 C 
ATOM     19  C   UNL     1       0.592   2.476  19.010  0.00  0.00    +0.000 C 
ATOM     20  O   UNL     1       0.481   3.502  19.993  0.00  0.00    +0.000 OA
ATOM     21  C   UNL     1       1.279   3.228  21.145  0.00  0.00    +0.000 C 
ATOM     22  C   UNL     1       2.754   3.176  20.773  0.00  0.00    +0.000 C 
ENDBRANCH  16  17
ENDBRANCH  15  16
ENDBRANCH   3  15
TORSDOF 5
ENDMDL
MODEL 8
REMARK VINA RESULT:      -7.0      1.365      1.448
REMARK  Name = 
REMARK  5 active torsions:
REMARK  status: ('A' for Active; 'I' for Inactive)
REMARK    1  A    between atoms: C_4  and  C_5
REMARK    2  A    between atoms: C_5  and  N_6
REMARK    3  A    between atoms: C_8  and  O_9
REMARK    4  A    between atoms: O_9  and  C_10
REMARK    5  A    between atoms: C_10  and  C_11
REMARK                            x       y       z     vdW  Elec       q    Type
REMARK                         _______ _______ _______ _____ _____    ______ ____
ROOT
ATOM      1  N   UNL     1       4.986   3.656  17.399  0.00  0.00    +0.000 NA
ATOM      2  C   UNL     1       4.926   4.082  18.816  0.00  0.00    +0.000 C 
ATOM      3  C   UNL     1       4.950   5.628  18.855  0.00  0.00    +0.000 C 
ATOM      4  C   UNL     1       5.226   6.038  17.399  0.00  0.00    +0.000 C 
ATOM      5  C   UNL     1       6.383   6.989  17.193  0.00  0.00    +0.000 C 
ATOM      6  O   UNL     1       7.587   6.215  17.124  0.00  0.00    +0.000 OA
ATOM      7  C   UNL     1       7.237   4.825  17.017  0.00  0.00    +0.000 C 
ATOM      8  C   UNL     1       5.727   4.761  16.750  0.00  0.00    +0.000 C 
ENDROOT
BRANCH   1   9
ATOM      9  C   UNL     1       3.632   3.584  16.790  0.00  0.00    +0.000 C 
BRANCH   9  13
ATOM     10  C   UNL     1       0.819   2.851  19.118  0.00  0.00    +0.000 A 
ATOM     11  C   UNL     1       1.630   1.742  19.113  0.00  0.00    +0.000 A 
ATOM     12  O   UNL     1       2.658   1.917  18.247  0.00  0.00    +0.000 OA
ATOM     13  C   UNL     1       2.520   3.158  17.691  0.00  0.00    +0.000 A 
ATOM     14  C   UNL     1       1.384   3.763  18.188  0.00  0.00    +0.000 A 
ENDBRANCH   9  13
ENDBRANCH   1   9
BRANCH   3  15
ATOM     15  O   UNL     1       3.696   6.200  19.257  0.00  0.00    +0.000 OA
BRANCH  15  16
ATOM     16  C   UNL     1       3.051   6.943  18.219  0.00  0.00    +0.000 C 
BRANCH  16  17
ATOM     17  C   UNL     1       2.436   8.228  18.786  0.00  0.00    +0.000 C 
ATOM     18  C   UNL     1       1.718   7.940  20.114  0.00  0.00    +0.000 C 
ATOM     19  C   UNL     1       0.976   9.166  20.624  0.00  0.00    +0.000 C 
ATOM     20  O   UNL     1       0.084   9.678  19.637  0.00  0.00    +0.000 OA
ATOM     21  C   UNL     1       0.772  10.079  18.451  0.00  0.00    +0.000 C 
ATOM     22  C   UNL     1       1.457   8.884  17.802  0.00  0.00    +0.000 C 
ENDBRANCH  16  17
ENDBRANCH  15  16
ENDBRANCH   3  15
TORSDOF 5
ENDMDL
MODEL 9
REMARK VINA RESULT:      -6.9      2.629      5.456
REMARK  Name = 
REMARK  5 active torsions:
REMARK  status: ('A' for Active; 'I' for Inactive)
REMARK    1  A    between atoms: C_4  and  C_5
REMARK    2  A    between atoms: C_5  and  N_6
REMARK    3  A    between atoms: C_8  and  O_9
REMARK    4  A    between atoms: O_9  and  C_10
REMARK    5  A    between atoms: C_10  and  C_11
REMARK                            x       y       z     vdW  Elec       q    Type
REMARK                         _______ _______ _______ _____ _____    ______ ____
ROOT
ATOM      1  N   UNL     1       6.019   4.086  15.798  0.00  0.00    +0.000 NA
ATOM      2  C   UNL     1       4.929   3.895  16.783  0.00  0.00    +0.000 C 
ATOM      3  C   UNL     1       4.833   5.173  17.648  0.00  0.00    +0.000 C 
ATOM      4  C   UNL     1       6.054   6.008  17.226  0.00  0.00    +0.000 C 
ATOM      5  C   UNL     1       6.948   6.479  18.351  0.00  0.00    +0.000 C 
ATOM      6  O   UNL     1       7.869   5.425  18.657  0.00  0.00    +0.000 OA
ATOM      7  C   UNL     1       7.781   4.423  17.631  0.00  0.00    +0.000 C 
ATOM      8  C   UNL     1       6.938   5.015  16.494  0.00  0.00    +0.000 C 
ENDROOT
BRANCH   1   9
ATOM      9  C   UNL     1       5.531   4.755  14.563  0.00  0.00    +0.000 C 
BRANCH   9  13
ATOM     10  C   UNL     1       5.438   2.626  11.508  0.00  0.00    +0.000 A 
ATOM     11  C   UNL     1       6.762   2.860  11.790  0.00  0.00    +0.000 A 
ATOM     12  O   UNL     1       6.876   3.672  12.870  0.00  0.00    +0.000 OA
ATOM     13  C   UNL     1       5.611   3.961  13.301  0.00  0.00    +0.000 A 
ATOM     14  C   UNL     1       4.691   3.350  12.475  0.00  0.00    +0.000 A 
ENDBRANCH   9  13
ENDBRANCH   1   9
BRANCH   3  15
ATOM     15  O   UNL     1       3.648   5.940  17.389  0.00  0.00    +0.000 OA
BRANCH  15  16
ATOM     16  C   UNL     1       2.810   6.099  18.537  0.00  0.00    +0.000 C 
BRANCH  16  17
ATOM     17  C   UNL     1       2.596   4.751  19.233  0.00  0.00    +0.000 C 
ATOM     18  C   UNL     1       1.483   3.955  18.535  0.00  0.00    +0.000 C 
ATOM     19  C   UNL     1       1.150   2.678  19.293  0.00  0.00    +0.000 C 
ATOM     20  O   UNL     1       0.834   2.953  20.655  0.00  0.00    +0.000 OA
ATOM     21  C   UNL     1       1.924   3.567  21.344  0.00  0.00    +0.000 C 
ATOM     22  C   UNL     1       2.256   4.916  20.722  0.00  0.00    +0.000 C 
ENDBRANCH  16  17
ENDBRANCH  15  16
ENDBRANCH   3  15
TORSDOF 5
ENDMDL
