MODEL 1
REMARK VINA RESULT:      -8.9      0.000      0.000
REMARK  Name = 
REMARK  5 active torsions:
REMARK  status: ('A' for Active; 'I' for Inactive)
REMARK    1  A    between atoms: C_2  and  C_4
REMARK    2  A    between atoms: N_8  and  C_9
REMARK    3  A    between atoms: C_14  and  N_15
REMARK    4  A    between atoms: C_17  and  N_18
REMARK    5  A    between atoms: N_18  and  C_19
REMARK                            x       y       z     vdW  Elec       q    Type
REMARK                         _______ _______ _______ _____ _____    ______ ____
ROOT
ATOM      1  C   UNL     1       2.330   3.609  19.410  0.00  0.00    +0.000 A 
ATOM      2  N   UNL     1       1.149   4.093  19.865  0.00  0.00    +0.000 NA
ATOM      3  N   UNL     1       1.094   5.394  20.256  0.00  0.00    +0.000 NA
ATOM      4  C   UNL     1       2.212   6.150  20.234  0.00  0.00    +0.000 A 
ATOM      5  N   UNL     1       2.227   7.454  20.710  0.00  0.00    +0.000 N 
ATOM      6  N   UNL     1       3.386   5.689  19.795  0.00  0.00    +0.000 NA
ATOM      7  C   UNL     1       3.450   4.423  19.313  0.00  0.00    +0.000 A 
ATOM      8  H   UNL     1       2.755   7.413  21.577  0.00  0.00    +0.000 HD
ENDROOT
BRANCH   5   9
ATOM      9  C   UNL     1       0.948   8.162  20.836  0.00  0.00    +0.000 C 
ATOM     10  C   UNL     1       0.893   9.315  19.812  0.00  0.00    +0.000 C 
ATOM     11  C   UNL     1      -0.317  10.221  20.018  0.00  0.00    +0.000 C 
ATOM     12  C   UNL     1      -0.389  10.770  21.435  0.00  0.00    +0.000 C 
ATOM     13  C   UNL     1      -0.363   9.642  22.464  0.00  0.00    +0.000 C 
ATOM     14  C   UNL     1       0.844   8.710  22.300  0.00  0.00    +0.000 C 
BRANCH  14  15
ATOM     15  N   UNL     1       2.084   9.386  22.735  0.00  0.00    +0.000 NA
ATOM     16  H   UNL     1       2.893   8.854  22.414  0.00  0.00    +0.000 HD
ATOM     17  H   UNL     1       2.137   9.298  23.754  0.00  0.00    +0.000 HD
ENDBRANCH  14  15
ENDBRANCH   5   9
BRANCH   1  19
ATOM     18  N   UNL     1       1.103   1.632  18.716  0.00  0.00    +0.000 N 
ATOM     19  C   UNL     1       2.327   2.179  19.011  0.00  0.00    +0.000 C 
ATOM     20  O   UNL     1       3.353   1.514  18.943  0.00  0.00    +0.000 OA
ATOM     21  H   UNL     1       1.046   0.652  18.472  0.00  0.00    +0.000 HD
ATOM     22  H   UNL     1       0.255   2.186  18.753  0.00  0.00    +0.000 HD
ENDBRANCH   1  19
BRANCH   7  23
ATOM     23  N   UNL     1       4.692   3.966  18.798  0.00  0.00    +0.000 N 
ATOM     24  H   UNL     1       4.736   2.941  18.841  0.00  0.00    +0.000 HD
BRANCH  23  25
ATOM     25  C   UNL     1       5.255   4.391  17.565  0.00  0.00    +0.000 A 
ATOM     26  C   UNL     1       4.939   3.744  16.349  0.00  0.00    +0.000 A 
ATOM     27  C   UNL     1       5.503   4.128  15.133  0.00  0.00    +0.000 A 
ATOM     28  C   UNL     1       6.436   5.161  15.072  0.00  0.00    +0.000 A 
ATOM     29  C   UNL     1       6.793   5.773  16.277  0.00  0.00    +0.000 A 
ATOM     30  N   UNL     1       7.690   6.792  16.509  0.00  0.00    +0.000 N 
ATOM     31  C   UNL     1       7.740   7.082  17.847  0.00  0.00    +0.000 A 
ATOM     32  C   UNL     1       6.857   6.247  18.492  0.00  0.00    +0.000 A 
ATOM     33  C   UNL     1       6.242   5.411  17.511  0.00  0.00    +0.000 A 
ATOM     34  H   UNL     1       8.230   7.254  15.791  0.00  0.00    +0.000 HD
ENDBRANCH  23  25
ENDBRANCH   7  23
TORSDOF 5
ENDMDL
MODEL 2
REMARK VINA RESULT:      -8.6      0.583      1.742
REMARK  Name = 
REMARK  5 active torsions:
REMARK  status: ('A' for Active; 'I' for Inactive)
REMARK    1  A    between atoms: C_2  and  C_4
REMARK    2  A    between atoms: N_8  and  C_9
REMARK    3  A    between atoms: C_14  and  N_15
REMARK    4  A    between atoms: C_17  and  N_18
REMARK    5  A    between atoms: N_18  and  C_19
REMARK                            x       y       z     vdW  Elec       q    Type
REMARK                         _______ _______ _______ _____ _____    ______ ____
ROOT
ATOM      1  C   UNL     1       2.312   3.542  19.377  0.00  0.00    +0.000 A 
ATOM      2  N   UNL     1       1.129   4.048  19.798  0.00  0.00    +0.000 NA
ATOM      3  N   UNL     1       1.088   5.349  20.191  0.00  0.00    +0.000 NA
ATOM      4  C   UNL     1       2.221   6.083  20.205  0.00  0.00    +0.000 A 
ATOM      5  N   UNL     1       2.247   7.385  20.685  0.00  0.00    +0.000 N 
ATOM      6  N   UNL     1       3.398   5.599  19.799  0.00  0.00    +0.000 NA
ATOM      7  C   UNL     1       3.451   4.334  19.316  0.00  0.00    +0.000 A 
ATOM      8  H   UNL     1       2.749   7.331  21.567  0.00  0.00    +0.000 HD
ENDROOT
BRANCH   5   9
ATOM      9  C   UNL     1       0.979   8.118  20.774  0.00  0.00    +0.000 C 
ATOM     10  C   UNL     1       0.966   9.257  19.734  0.00  0.00    +0.000 C 
ATOM     11  C   UNL     1      -0.231  10.188  19.901  0.00  0.00    +0.000 C 
ATOM     12  C   UNL     1      -0.321  10.759  21.309  0.00  0.00    +0.000 C 
ATOM     13  C   UNL     1      -0.336   9.646  22.355  0.00  0.00    +0.000 C 
ATOM     14  C   UNL     1       0.857   8.690  22.228  0.00  0.00    +0.000 C 
BRANCH  14  15
ATOM     15  N   UNL     1       2.100   9.350  22.678  0.00  0.00    +0.000 NA
ATOM     16  H   UNL     1       1.917  10.338  22.853  0.00  0.00    +0.000 HD
ATOM     17  H   UNL     1       2.740   9.370  21.878  0.00  0.00    +0.000 HD
ENDBRANCH  14  15
ENDBRANCH   5   9
BRANCH   1  19
ATOM     18  N   UNL     1       1.064   1.584  18.668  0.00  0.00    +0.000 N 
ATOM     19  C   UNL     1       2.293   2.113  18.974  0.00  0.00    +0.000 C 
ATOM     20  O   UNL     1       3.310   1.434  18.912  0.00  0.00    +0.000 OA
ATOM     21  H   UNL     1       0.995   0.606  18.420  0.00  0.00    +0.000 HD
ATOM     22  H   UNL     1       0.224   2.150  18.700  0.00  0.00    +0.000 HD
ENDBRANCH   1  19
BRANCH   7  23
ATOM     23  N   UNL     1       4.698   3.853  18.837  0.00  0.00    +0.000 N 
ATOM     24  H   UNL     1       4.550   3.077  18.181  0.00  0.00    +0.000 HD
BRANCH  23  25
ATOM     25  C   UNL     1       5.736   4.680  18.329  0.00  0.00    +0.000 A 
ATOM     26  C   UNL     1       6.516   5.492  19.182  0.00  0.00    +0.000 A 
ATOM     27  C   UNL     1       7.519   6.330  18.699  0.00  0.00    +0.000 A 
ATOM     28  C   UNL     1       7.778   6.423  17.333  0.00  0.00    +0.000 A 
ATOM     29  C   UNL     1       6.978   5.661  16.477  0.00  0.00    +0.000 A 
ATOM     30  N   UNL     1       7.001   5.575  15.102  0.00  0.00    +0.000 N 
ATOM     31  C   UNL     1       6.031   4.710  14.667  0.00  0.00    +0.000 A 
ATOM     32  C   UNL     1       5.376   4.221  15.774  0.00  0.00    +0.000 A 
ATOM     33  C   UNL     1       5.966   4.809  16.933  0.00  0.00    +0.000 A 
ATOM     34  H   UNL     1       7.643   6.080  14.508  0.00  0.00    +0.000 HD
ENDBRANCH  23  25
ENDBRANCH   7  23
TORSDOF 5
ENDMDL
MODEL 3
REMARK VINA RESULT:      -8.1      2.004      2.551
REMARK  Name = 
REMARK  5 active torsions:
REMARK  status: ('A' for Active; 'I' for Inactive)
REMARK    1  A    between atoms: C_2  and  C_4
REMARK    2  A    between atoms: N_8  and  C_9
REMARK    3  A    between atoms: C_14  and  N_15
REMARK    4  A    between atoms: C_17  and  N_18
REMARK    5  A    between atoms: N_18  and  C_19
REMARK                            x       y       z     vdW  Elec       q    Type
REMARK                         _______ _______ _______ _____ _____    ______ ____
ROOT
ATOM      1  C   UNL     1       2.248   5.255  19.756  0.00  0.00    +0.000 A 
ATOM      2  N   UNL     1       1.694   6.217  20.530  0.00  0.00    +0.000 NA
ATOM      3  N   UNL     1       1.625   7.482  20.036  0.00  0.00    +0.000 NA
ATOM      4  C   UNL     1       2.151   7.759  18.824  0.00  0.00    +0.000 A 
ATOM      5  N   UNL     1       2.187   9.050  18.317  0.00  0.00    +0.000 N 
ATOM      6  N   UNL     1       2.706   6.825  18.048  0.00  0.00    +0.000 NA
ATOM      7  C   UNL     1       2.707   5.539  18.477  0.00  0.00    +0.000 A 
ATOM      8  H   UNL     1       3.166   9.323  18.357  0.00  0.00    +0.000 HD
ENDROOT
BRANCH   5   9
ATOM      9  C   UNL     1       1.277  10.048  18.890  0.00  0.00    +0.000 C 
ATOM     10  C   UNL     1      -0.067  10.017  18.134  0.00  0.00    +0.000 C 
ATOM     11  C   UNL     1      -0.992  11.161  18.538  0.00  0.00    +0.000 C 
ATOM     12  C   UNL     1      -0.327  12.521  18.377  0.00  0.00    +0.000 C 
ATOM     13  C   UNL     1       0.994  12.581  19.141  0.00  0.00    +0.000 C 
ATOM     14  C   UNL     1       1.959  11.453  18.758  0.00  0.00    +0.000 C 
BRANCH  14  15
ATOM     15  N   UNL     1       2.515  11.682  17.408  0.00  0.00    +0.000 NA
ATOM     16  H   UNL     1       2.752  10.786  16.981  0.00  0.00    +0.000 HD
ATOM     17  H   UNL     1       3.428  12.131  17.528  0.00  0.00    +0.000 HD
ENDBRANCH  14  15
ENDBRANCH   5   9
BRANCH   1  19
ATOM     18  N   UNL     1       1.141   3.431  20.914  0.00  0.00    +0.000 N 
ATOM     19  C   UNL     1       2.306   3.898  20.358  0.00  0.00    +0.000 C 
ATOM     20  O   UNL     1       3.327   3.224  20.363  0.00  0.00    +0.000 OA
ATOM     21  H   UNL     1       1.138   2.526  21.366  0.00  0.00    +0.000 HD
ATOM     22  H   UNL     1       0.289   3.980  20.893  0.00  0.00    +0.000 HD
ENDBRANCH   1  19
BRANCH   7  23
ATOM     23  N   UNL     1       3.252   4.548  17.616  0.00  0.00    +0.000 N 
ATOM     24  H   UNL     1       2.569   4.295  16.892  0.00  0.00    +0.000 HD
BRANCH  23  25
ATOM     25  C   UNL     1       4.537   4.624  17.016  0.00  0.00    +0.000 A 
ATOM     26  C   UNL     1       4.739   4.278  15.662  0.00  0.00    +0.000 A 
ATOM     27  C   UNL     1       5.997   4.319  15.062  0.00  0.00    +0.000 A 
ATOM     28  C   UNL     1       7.126   4.681  15.794  0.00  0.00    +0.000 A 
ATOM     29  C   UNL     1       6.944   4.977  17.149  0.00  0.00    +0.000 A 
ATOM     30  N   UNL     1       7.873   5.341  18.098  0.00  0.00    +0.000 N 
ATOM     31  C   UNL     1       7.261   5.529  19.310  0.00  0.00    +0.000 A 
ATOM     32  C   UNL     1       5.916   5.294  19.142  0.00  0.00    +0.000 A 
ATOM     33  C   UNL     1       5.693   4.946  17.776  0.00  0.00    +0.000 A 
ATOM     34  H   UNL     1       8.861   5.450  17.920  0.00  0.00    +0.000 HD
ENDBRANCH  23  25
ENDBRANCH   7  23
TORSDOF 5
ENDMDL
MODEL 4
REMARK VINA RESULT:      -8.1      1.982      2.960
REMARK  Name = 
REMARK  5 active torsions:
REMARK  status: ('A' for Active; 'I' for Inactive)
REMARK    1  A    between atoms: C_2  and  C_4
REMARK    2  A    between atoms: N_8  and  C_9
REMARK    3  A    between atoms: C_14  and  N_15
REMARK    4  A    between atoms: C_17  and  N_18
REMARK    5  A    between atoms: N_18  and  C_19
REMARK                            x       y       z     vdW  Elec       q    Type
REMARK                         _______ _______ _______ _____ _____    ______ ____
ROOT
ATOM      1  C   UNL     1       2.102   5.412  20.078  0.00  0.00    +0.000 A 
ATOM      2  N   UNL     1       1.323   6.294  20.748  0.00  0.00    +0.000 NA
ATOM      3  N   UNL     1       1.244   7.569  20.281  0.00  0.00    +0.000 NA
ATOM      4  C   UNL     1       1.974   7.937  19.207  0.00  0.00    +0.000 A 
ATOM      5  N   UNL     1       1.998   9.246  18.748  0.00  0.00    +0.000 N 
ATOM      6  N   UNL     1       2.752   7.082  18.536  0.00  0.00    +0.000 NA
ATOM      7  C   UNL     1       2.779   5.784  18.925  0.00  0.00    +0.000 A 
ATOM      8  H   UNL     1       2.922   9.595  18.991  0.00  0.00    +0.000 HD
ENDROOT
BRANCH   5   9
ATOM      9  C   UNL     1       0.909  10.144  19.151  0.00  0.00    +0.000 C 
ATOM     10  C   UNL     1      -0.280   9.981  18.182  0.00  0.00    +0.000 C 
ATOM     11  C   UNL     1      -1.370  11.023  18.413  0.00  0.00    +0.000 C 
ATOM     12  C   UNL     1      -0.828  12.444  18.350  0.00  0.00    +0.000 C 
ATOM     13  C   UNL     1       0.334  12.634  19.322  0.00  0.00    +0.000 C 
ATOM     14  C   UNL     1       1.459  11.611  19.118  0.00  0.00    +0.000 C 
BRANCH  14  15
ATOM     15  N   UNL     1       2.205  11.902  17.877  0.00  0.00    +0.000 NA
ATOM     16  H   UNL     1       2.729  12.771  17.991  0.00  0.00    +0.000 HD
ATOM     17  H   UNL     1       1.517  12.139  17.156  0.00  0.00    +0.000 HD
ENDBRANCH  14  15
ENDBRANCH   5   9
BRANCH   1  19
ATOM     18  N   UNL     1       0.951   3.472  20.976  0.00  0.00    +0.000 N 
ATOM     19  C   UNL     1       2.156   4.041  20.646  0.00  0.00    +0.000 C 
ATOM     20  O   UNL     1       3.209   3.441  20.815  0.00  0.00    +0.000 OA
ATOM     21  H   UNL     1       0.938   2.552  21.397  0.00  0.00    +0.000 HD
ATOM     22  H   UNL     1       0.077   3.960  20.819  0.00  0.00    +0.000 HD
ENDBRANCH   1  19
BRANCH   7  23
ATOM     23  N   UNL     1       3.567   4.877  18.168  0.00  0.00    +0.000 N 
ATOM     24  H   UNL     1       3.186   4.784  17.218  0.00  0.00    +0.000 HD
BRANCH  23  25
ATOM     25  C   UNL     1       4.985   4.922  18.081  0.00  0.00    +0.000 A 
ATOM     26  C   UNL     1       5.781   5.241  19.204  0.00  0.00    +0.000 A 
ATOM     27  C   UNL     1       7.171   5.318  19.132  0.00  0.00    +0.000 A 
ATOM     28  C   UNL     1       7.838   5.110  17.927  0.00  0.00    +0.000 A 
ATOM     29  C   UNL     1       7.054   4.843  16.800  0.00  0.00    +0.000 A 
ATOM     30  N   UNL     1       7.443   4.618  15.497  0.00  0.00    +0.000 N 
ATOM     31  C   UNL     1       6.343   4.406  14.707  0.00  0.00    +0.000 A 
ATOM     32  C   UNL     1       5.227   4.485  15.509  0.00  0.00    +0.000 A 
ATOM     33  C   UNL     1       5.659   4.757  16.842  0.00  0.00    +0.000 A 
ATOM     34  H   UNL     1       8.400   4.613  15.178  0.00  0.00    +0.000 HD
ENDBRANCH  23  25
ENDBRANCH   7  23
TORSDOF 5
ENDMDL
MODEL 5
REMARK VINA RESULT:      -8.1      1.083      1.932
REMARK  Name = 
REMARK  5 active torsions:
REMARK  status: ('A' for Active; 'I' for Inactive)
REMARK    1  A    between atoms: C_2  and  C_4
REMARK    2  A    between atoms: N_8  and  C_9
REMARK    3  A    between atoms: C_14  and  N_15
REMARK    4  A    between atoms: C_17  and  N_18
REMARK    5  A    between atoms: N_18  and  C_19
REMARK                            x       y       z     vdW  Elec       q    Type
REMARK                         _______ _______ _______ _____ _____    ______ ____
ROOT
ATOM      1  C   UNL     1       2.058   4.161  19.967  0.00  0.00    +0.000 A 
ATOM      2  N   UNL     1       1.153   4.688  20.826  0.00  0.00    +0.000 NA
ATOM      3  N   UNL     1       1.018   6.041  20.870  0.00  0.00    +0.000 NA
ATOM      4  C   UNL     1       1.814   6.820  20.108  0.00  0.00    +0.000 A 
ATOM      5  N   UNL     1       1.779   8.205  20.185  0.00  0.00    +0.000 N 
ATOM      6  N   UNL     1       2.716   6.319  19.259  0.00  0.00    +0.000 NA
ATOM      7  C   UNL     1       2.809   4.973  19.128  0.00  0.00    +0.000 A 
ATOM      8  H   UNL     1       2.645   8.467  20.648  0.00  0.00    +0.000 HD
ENDROOT
BRANCH   5   9
ATOM      9  C   UNL     1       0.589   8.838  20.768  0.00  0.00    +0.000 C 
ATOM     10  C   UNL     1       0.401  10.243  20.160  0.00  0.00    +0.000 C 
ATOM     11  C   UNL     1      -0.694  11.041  20.860  0.00  0.00    +0.000 C 
ATOM     12  C   UNL     1      -0.460  11.142  22.361  0.00  0.00    +0.000 C 
ATOM     13  C   UNL     1      -0.297   9.759  22.987  0.00  0.00    +0.000 C 
ATOM     14  C   UNL     1       0.802   8.924  22.318  0.00  0.00    +0.000 C 
BRANCH  14  15
ATOM     15  N   UNL     1       2.138   9.447  22.673  0.00  0.00    +0.000 NA
ATOM     16  H   UNL     1       2.052  10.099  23.452  0.00  0.00    +0.000 HD
ATOM     17  H   UNL     1       2.444  10.047  21.901  0.00  0.00    +0.000 HD
ENDBRANCH  14  15
ENDBRANCH   5   9
BRANCH   1  19
ATOM     18  N   UNL     1       2.158   2.078  21.210  0.00  0.00    +0.000 N 
ATOM     19  C   UNL     1       2.167   2.680  19.977  0.00  0.00    +0.000 C 
ATOM     20  O   UNL     1       2.258   2.021  18.949  0.00  0.00    +0.000 OA
ATOM     21  H   UNL     1       2.263   1.073  21.271  0.00  0.00    +0.000 HD
ATOM     22  H   UNL     1       2.063   2.620  22.061  0.00  0.00    +0.000 HD
ENDBRANCH   1  19
BRANCH   7  23
ATOM     23  N   UNL     1       3.734   4.456  18.182  0.00  0.00    +0.000 N 
ATOM     24  H   UNL     1       3.330   4.490  17.238  0.00  0.00    +0.000 HD
BRANCH  23  25
ATOM     25  C   UNL     1       5.099   4.839  18.101  0.00  0.00    +0.000 A 
ATOM     26  C   UNL     1       5.823   5.233  19.249  0.00  0.00    +0.000 A 
ATOM     27  C   UNL     1       7.155   5.638  19.186  0.00  0.00    +0.000 A 
ATOM     28  C   UNL     1       7.827   5.701  17.966  0.00  0.00    +0.000 A 
ATOM     29  C   UNL     1       7.103   5.362  16.819  0.00  0.00    +0.000 A 
ATOM     30  N   UNL     1       7.506   5.353  15.502  0.00  0.00    +0.000 N 
ATOM     31  C   UNL     1       6.470   4.961  14.694  0.00  0.00    +0.000 A 
ATOM     32  C   UNL     1       5.384   4.704  15.499  0.00  0.00    +0.000 A 
ATOM     33  C   UNL     1       5.767   4.949  16.852  0.00  0.00    +0.000 A 
ATOM     34  H   UNL     1       8.432   5.600  15.184  0.00  0.00    +0.000 HD
ENDBRANCH  23  25
ENDBRANCH   7  23
TORSDOF 5
ENDMDL
MODEL 6
REMARK VINA RESULT:      -7.6      3.780      7.365
REMARK  Name = 
REMARK  5 active torsions:
REMARK  status: ('A' for Active; 'I' for Inactive)
REMARK    1  A    between atoms: C_2  and  C_4
REMARK    2  A    between atoms: N_8  and  C_9
REMARK    3  A    between atoms: C_14  and  N_15
REMARK    4  A    between atoms: C_17  and  N_18
REMARK    5  A    between atoms: N_18  and  C_19
REMARK                            x       y       z     vdW  Elec       q    Type
REMARK                         _______ _______ _______ _____ _____    ______ ____
ROOT
ATOM      1  C   UNL     1       7.670   6.590  18.369  0.00  0.00    +0.000 A 
ATOM      2  N   UNL     1       8.634   7.115  19.161  0.00  0.00    +0.000 NA
ATOM      3  N   UNL     1       8.917   8.439  19.042  0.00  0.00    +0.000 NA
ATOM      4  C   UNL     1       8.278   9.181  18.113  0.00  0.00    +0.000 A 
ATOM      5  N   UNL     1       8.596  10.513  17.890  0.00  0.00    +0.000 N 
ATOM      6  N   UNL     1       7.327   8.680  17.319  0.00  0.00    +0.000 NA
ATOM      7  C   UNL     1       6.962   7.385  17.478  0.00  0.00    +0.000 A 
ATOM      8  H   UNL     1       9.070  10.526  16.991  0.00  0.00    +0.000 HD
ENDROOT
BRANCH   5   9
ATOM      9  C   UNL     1       9.315  11.241  18.942  0.00  0.00    +0.000 C 
ATOM     10  C   UNL     1       8.829  12.705  18.984  0.00  0.00    +0.000 C 
ATOM     11  C   UNL     1       9.671  13.574  19.912  0.00  0.00    +0.000 C 
ATOM     12  C   UNL     1      11.152  13.519  19.564  0.00  0.00    +0.000 C 
ATOM     13  C   UNL     1      11.660  12.079  19.543  0.00  0.00    +0.000 C 
ATOM     14  C   UNL     1      10.846  11.170  18.614  0.00  0.00    +0.000 C 
BRANCH  14  15
ATOM     15  N   UNL     1      11.131  11.488  17.199  0.00  0.00    +0.000 NA
ATOM     16  H   UNL     1      11.738  10.769  16.805  0.00  0.00    +0.000 HD
ATOM     17  H   UNL     1      11.725  12.324  17.189  0.00  0.00    +0.000 HD
ENDBRANCH  14  15
ENDBRANCH   5   9
BRANCH   1  19
ATOM     18  N   UNL     1       8.043   4.303  17.644  0.00  0.00    +0.000 N 
ATOM     19  C   UNL     1       7.418   5.136  18.538  0.00  0.00    +0.000 C 
ATOM     20  O   UNL     1       6.697   4.693  19.422  0.00  0.00    +0.000 OA
ATOM     21  H   UNL     1       7.876   3.307  17.697  0.00  0.00    +0.000 HD
ATOM     22  H   UNL     1       8.656   4.667  16.923  0.00  0.00    +0.000 HD
ENDBRANCH   1  19
BRANCH   7  23
ATOM     23  N   UNL     1       5.912   6.882  16.664  0.00  0.00    +0.000 N 
ATOM     24  H   UNL     1       6.242   6.077  16.118  0.00  0.00    +0.000 HD
BRANCH  23  25
ATOM     25  C   UNL     1       4.598   6.603  17.128  0.00  0.00    +0.000 A 
ATOM     26  C   UNL     1       3.769   7.622  17.648  0.00  0.00    +0.000 A 
ATOM     27  C   UNL     1       2.488   7.364  18.134  0.00  0.00    +0.000 A 
ATOM     28  C   UNL     1       1.979   6.067  18.153  0.00  0.00    +0.000 A 
ATOM     29  C   UNL     1       2.811   5.045  17.685  0.00  0.00    +0.000 A 
ATOM     30  N   UNL     1       2.575   3.690  17.608  0.00  0.00    +0.000 N 
ATOM     31  C   UNL     1       3.671   3.048  17.094  0.00  0.00    +0.000 A 
ATOM     32  C   UNL     1       4.628   4.000  16.825  0.00  0.00    +0.000 A 
ATOM     33  C   UNL     1       4.099   5.275  17.190  0.00  0.00    +0.000 A 
ATOM     34  H   UNL     1       1.716   3.242  17.891  0.00  0.00    +0.000 HD
ENDBRANCH  23  25
ENDBRANCH   7  23
TORSDOF 5
ENDMDL
MODEL 7
REMARK VINA RESULT:      -7.6      3.655      8.768
REMARK  Name = 
REMARK  5 active torsions:
REMARK  status: ('A' for Active; 'I' for Inactive)
REMARK    1  A    between atoms: C_2  and  C_4
REMARK    2  A    between atoms: N_8  and  C_9
REMARK    3  A    between atoms: C_14  and  N_15
REMARK    4  A    between atoms: C_17  and  N_18
REMARK    5  A    between atoms: N_18  and  C_19
REMARK                            x       y       z     vdW  Elec       q    Type
REMARK                         _______ _______ _______ _____ _____    ______ ____
ROOT
ATOM      1  C   UNL     1       0.613   9.522  21.086  0.00  0.00    +0.000 A 
ATOM      2  N   UNL     1       1.349   8.438  21.429  0.00  0.00    +0.000 NA
ATOM      3  N   UNL     1       1.980   7.748  20.442  0.00  0.00    +0.000 NA
ATOM      4  C   UNL     1       1.818   8.119  19.155  0.00  0.00    +0.000 A 
ATOM      5  N   UNL     1       2.365   7.393  18.106  0.00  0.00    +0.000 N 
ATOM      6  N   UNL     1       1.092   9.181  18.796  0.00  0.00    +0.000 NA
ATOM      7  C   UNL     1       0.526   9.941  19.765  0.00  0.00    +0.000 A 
ATOM      8  H   UNL     1       1.574   6.942  17.655  0.00  0.00    +0.000 HD
ENDROOT
BRANCH   5   9
ATOM      9  C   UNL     1       3.473   6.476  18.400  0.00  0.00    +0.000 C 
ATOM     10  C   UNL     1       4.437   6.428  17.197  0.00  0.00    +0.000 C 
ATOM     11  C   UNL     1       5.503   5.346  17.345  0.00  0.00    +0.000 C 
ATOM     12  C   UNL     1       4.896   3.972  17.589  0.00  0.00    +0.000 C 
ATOM     13  C   UNL     1       3.957   3.992  18.794  0.00  0.00    +0.000 C 
ATOM     14  C   UNL     1       2.862   5.060  18.682  0.00  0.00    +0.000 C 
BRANCH  14  15
ATOM     15  N   UNL     1       1.859   4.670  17.671  0.00  0.00    +0.000 NA
ATOM     16  H   UNL     1       1.939   5.282  16.858  0.00  0.00    +0.000 HD
ATOM     17  H   UNL     1       0.937   4.908  18.050  0.00  0.00    +0.000 HD
ENDBRANCH  14  15
ENDBRANCH   5   9
BRANCH   1  19
ATOM     18  N   UNL     1      -0.700   9.428  23.126  0.00  0.00    +0.000 N 
ATOM     19  C   UNL     1      -0.061  10.224  22.208  0.00  0.00    +0.000 C 
ATOM     20  O   UNL     1      -0.053  11.443  22.319  0.00  0.00    +0.000 OA
ATOM     21  H   UNL     1      -1.202   9.862  23.890  0.00  0.00    +0.000 HD
ATOM     22  H   UNL     1      -0.691   8.418  23.046  0.00  0.00    +0.000 HD
ENDBRANCH   1  19
BRANCH   7  23
ATOM     23  N   UNL     1      -0.196  11.098  19.371  0.00  0.00    +0.000 N 
ATOM     24  H   UNL     1       0.404  11.715  18.810  0.00  0.00    +0.000 HD
BRANCH  23  25
ATOM     25  C   UNL     1      -1.491  11.077  18.786  0.00  0.00    +0.000 A 
ATOM     26  C   UNL     1      -1.757  10.337  17.612  0.00  0.00    +0.000 A 
ATOM     27  C   UNL     1      -3.013  10.326  17.008  0.00  0.00    +0.000 A 
ATOM     28  C   UNL     1      -4.064  11.077  17.530  0.00  0.00    +0.000 A 
ATOM     29  C   UNL     1      -3.797  11.851  18.663  0.00  0.00    +0.000 A 
ATOM     30  N   UNL     1      -4.633  12.690  19.367  0.00  0.00    +0.000 N 
ATOM     31  C   UNL     1      -3.956  13.262  20.412  0.00  0.00    +0.000 A 
ATOM     32  C   UNL     1      -2.667  12.781  20.392  0.00  0.00    +0.000 A 
ATOM     33  C   UNL     1      -2.548  11.880  19.292  0.00  0.00    +0.000 A 
ATOM     34  H   UNL     1      -5.603  12.855  19.139  0.00  0.00    +0.000 HD
ENDBRANCH  23  25
ENDBRANCH   7  23
TORSDOF 5
ENDMDL
MODEL 8
REMARK VINA RESULT:      -7.4      2.547      5.055
REMARK  Name = 
REMARK  5 active torsions:
REMARK  status: ('A' for Active; 'I' for Inactive)
REMARK    1  A    between atoms: C_2  and  C_4
REMARK    2  A    between atoms: N_8  and  C_9
REMARK    3  A    between atoms: C_14  and  N_15
REMARK    4  A    between atoms: C_17  and  N_18
REMARK    5  A    between atoms: N_18  and  C_19
REMARK                            x       y       z     vdW  Elec       q    Type
REMARK                         _______ _______ _______ _____ _____    ______ ____
ROOT
ATOM      1  C   UNL     1       3.912   7.156  17.657  0.00  0.00    +0.000 A 
ATOM      2  N   UNL     1       3.519   8.247  16.959  0.00  0.00    +0.000 NA
ATOM      3  N   UNL     1       2.527   9.021  17.475  0.00  0.00    +0.000 NA
ATOM      4  C   UNL     1       1.926   8.660  18.629  0.00  0.00    +0.000 A 
ATOM      5  N   UNL     1       0.849   9.364  19.147  0.00  0.00    +0.000 N 
ATOM      6  N   UNL     1       2.296   7.584  19.329  0.00  0.00    +0.000 NA
ATOM      7  C   UNL     1       3.342   6.846  18.884  0.00  0.00    +0.000 A 
ATOM      8  H   UNL     1       0.045   8.758  19.008  0.00  0.00    +0.000 HD
ENDROOT
BRANCH   5   9
ATOM      9  C   UNL     1       0.632  10.741  18.687  0.00  0.00    +0.000 C 
ATOM     10  C   UNL     1       1.050  11.729  19.795  0.00  0.00    +0.000 C 
ATOM     11  C   UNL     1       0.666  13.169  19.470  0.00  0.00    +0.000 C 
ATOM     12  C   UNL     1      -0.819  13.312  19.167  0.00  0.00    +0.000 C 
ATOM     13  C   UNL     1      -1.248  12.361  18.053  0.00  0.00    +0.000 C 
ATOM     14  C   UNL     1      -0.889  10.898  18.343  0.00  0.00    +0.000 C 
BRANCH  14  15
ATOM     15  N   UNL     1      -1.763  10.351  19.401  0.00  0.00    +0.000 NA
ATOM     16  H   UNL     1      -2.116   9.438  19.113  0.00  0.00    +0.000 HD
ATOM     17  H   UNL     1      -2.608  10.929  19.427  0.00  0.00    +0.000 HD
ENDBRANCH  14  15
ENDBRANCH   5   9
BRANCH   1  19
ATOM     18  N   UNL     1       5.132   6.469  15.674  0.00  0.00    +0.000 N 
ATOM     19  C   UNL     1       4.990   6.346  17.034  0.00  0.00    +0.000 C 
ATOM     20  O   UNL     1       5.718   5.609  17.685  0.00  0.00    +0.000 OA
ATOM     21  H   UNL     1       5.830   5.912  15.198  0.00  0.00    +0.000 HD
ATOM     22  H   UNL     1       4.542   7.093  15.136  0.00  0.00    +0.000 HD
ENDBRANCH   1  19
BRANCH   7  23
ATOM     23  N   UNL     1       3.758   5.737  19.669  0.00  0.00    +0.000 N 
ATOM     24  H   UNL     1       4.213   6.064  20.530  0.00  0.00    +0.000 HD
BRANCH  23  25
ATOM     25  C   UNL     1       2.933   4.626  19.990  0.00  0.00    +0.000 A 
ATOM     26  C   UNL     1       2.355   4.483  21.271  0.00  0.00    +0.000 A 
ATOM     27  C   UNL     1       1.566   3.387  21.614  0.00  0.00    +0.000 A 
ATOM     28  C   UNL     1       1.338   2.358  20.703  0.00  0.00    +0.000 A 
ATOM     29  C   UNL     1       1.947   2.465  19.449  0.00  0.00    +0.000 A 
ATOM     30  N   UNL     1       1.907   1.598  18.379  0.00  0.00    +0.000 N 
ATOM     31  C   UNL     1       2.659   2.091  17.344  0.00  0.00    +0.000 A 
ATOM     32  C   UNL     1       3.185   3.298  17.744  0.00  0.00    +0.000 A 
ATOM     33  C   UNL     1       2.741   3.555  19.077  0.00  0.00    +0.000 A 
ATOM     34  H   UNL     1       1.397   0.728  18.366  0.00  0.00    +0.000 HD
ENDBRANCH  23  25
ENDBRANCH   7  23
TORSDOF 5
ENDMDL
MODEL 9
REMARK VINA RESULT:      -7.4      3.529      8.584
REMARK  Name = 
REMARK  5 active torsions:
REMARK  status: ('A' for Active; 'I' for Inactive)
REMARK    1  A    between atoms: C_2  and  C_4
REMARK    2  A    between atoms: N_8  and  C_9
REMARK    3  A    between atoms: C_14  and  N_15
REMARK    4  A    between atoms: C_17  and  N_18
REMARK    5  A    between atoms: N_18  and  C_19
REMARK                            x       y       z     vdW  Elec       q    Type
REMARK                         _______ _______ _______ _____ _____    ______ ____
ROOT
ATOM      1  C   UNL     1       0.635   9.531  21.221  0.00  0.00    +0.000 A 
ATOM      2  N   UNL     1       1.229   8.348  21.507  0.00  0.00    +0.000 NA
ATOM      3  N   UNL     1       1.843   7.675  20.498  0.00  0.00    +0.000 NA
ATOM      4  C   UNL     1       1.803   8.165  19.241  0.00  0.00    +0.000 A 
ATOM      5  N   UNL     1       2.334   7.469  18.164  0.00  0.00    +0.000 N 
ATOM      6  N   UNL     1       1.217   9.326  18.939  0.00  0.00    +0.000 NA
ATOM      7  C   UNL     1       0.676  10.063  19.939  0.00  0.00    +0.000 A 
ATOM      8  H   UNL     1       1.529   7.147  17.634  0.00  0.00    +0.000 HD
ENDROOT
BRANCH   5   9
ATOM      9  C   UNL     1       3.318   6.414  18.435  0.00  0.00    +0.000 C 
ATOM     10  C   UNL     1       4.293   6.299  17.246  0.00  0.00    +0.000 C 
ATOM     11  C   UNL     1       5.218   5.092  17.363  0.00  0.00    +0.000 C 
ATOM     12  C   UNL     1       4.446   3.792  17.540  0.00  0.00    +0.000 C 
ATOM     13  C   UNL     1       3.492   3.876  18.730  0.00  0.00    +0.000 C 
ATOM     14  C   UNL     1       2.536   5.073  18.649  0.00  0.00    +0.000 C 
BRANCH  14  15
ATOM     15  N   UNL     1       1.513   4.848  17.607  0.00  0.00    +0.000 NA
ATOM     16  H   UNL     1       1.378   3.845  17.473  0.00  0.00    +0.000 HD
ATOM     17  H   UNL     1       1.917   5.149  16.714  0.00  0.00    +0.000 HD
ENDBRANCH  14  15
ENDBRANCH   5   9
BRANCH   1  19
ATOM     18  N   UNL     1      -0.819   9.422  23.162  0.00  0.00    +0.000 N 
ATOM     19  C   UNL     1      -0.029  10.211  22.362  0.00  0.00    +0.000 C 
ATOM     20  O   UNL     1       0.112  11.405  22.589  0.00  0.00    +0.000 OA
ATOM     21  H   UNL     1      -1.319   9.846  23.933  0.00  0.00    +0.000 HD
ATOM     22  H   UNL     1      -0.922   8.430  22.988  0.00  0.00    +0.000 HD
ENDBRANCH   1  19
BRANCH   7  23
ATOM     23  N   UNL     1       0.106  11.322  19.609  0.00  0.00    +0.000 N 
ATOM     24  H   UNL     1       0.646  11.768  18.858  0.00  0.00    +0.000 HD
BRANCH  23  25
ATOM     25  C   UNL     1      -1.276  11.537  19.360  0.00  0.00    +0.000 A 
ATOM     26  C   UNL     1      -2.074  12.298  20.243  0.00  0.00    +0.000 A 
ATOM     27  C   UNL     1      -3.437  12.498  20.031  0.00  0.00    +0.000 A 
ATOM     28  C   UNL     1      -4.082  11.922  18.938  0.00  0.00    +0.000 A 
ATOM     29  C   UNL     1      -3.311  11.126  18.086  0.00  0.00    +0.000 A 
ATOM     30  N   UNL     1      -3.688  10.431  16.958  0.00  0.00    +0.000 N 
ATOM     31  C   UNL     1      -2.611   9.770  16.428  0.00  0.00    +0.000 A 
ATOM     32  C   UNL     1      -1.518  10.048  17.218  0.00  0.00    +0.000 A 
ATOM     33  C   UNL     1      -1.941  10.910  18.273  0.00  0.00    +0.000 A 
ATOM     34  H   UNL     1      -4.625  10.415  16.582  0.00  0.00    +0.000 HD
ENDBRANCH  23  25
ENDBRANCH   7  23
TORSDOF 5
ENDMDL
