MODEL 1
REMARK VINA RESULT:      -7.2      0.000      0.000
REMARK  Name = 
REMARK  9 active torsions:
REMARK  status: ('A' for Active; 'I' for Inactive)
REMARK    1  A    between atoms: C_1  and  O_2
REMARK    2  A    between atoms: O_2  and  C_3
REMARK    3  A    between atoms: C_9  and  C_10
REMARK    4  A    between atoms: C_10  and  C_11
REMARK    5  A    between atoms: C_11  and  C_12
REMARK    6  A    between atoms: C_12  and  O_14
REMARK    7  A    between atoms: C_15  and  C_16
REMARK    8  A    between atoms: N_17  and  C_18
REMARK    9  A    between atoms: C_18  and  C_19
REMARK                            x       y       z     vdW  Elec       q    Type
REMARK                         _______ _______ _______ _____ _____    ______ ____
ROOT
ATOM      1  C   UNL     1       1.786   8.401  18.845  0.00  0.00    +0.000 A 
ATOM      2  C   UNL     1       2.802   8.600  17.916  0.00  0.00    +0.000 A 
ATOM      3  C   UNL     1       3.808   7.647  17.732  0.00  0.00    +0.000 A 
ATOM      4  C   UNL     1       3.768   6.476  18.505  0.00  0.00    +0.000 A 
ATOM      5  C   UNL     1       2.737   6.220  19.403  0.00  0.00    +0.000 A 
ATOM      6  C   UNL     1       1.747   7.214  19.586  0.00  0.00    +0.000 A 
ATOM      7  C   UNL     1       2.939   4.903  19.938  0.00  0.00    +0.000 A 
ATOM      8  C   UNL     1       4.141   4.431  19.416  0.00  0.00    +0.000 A 
ATOM      9  C   UNL     1       4.859   3.141  19.638  0.00  0.00    +0.000 C 
ATOM     10  N   UNL     1       4.646   5.414  18.581  0.00  0.00    +0.000 N 
ENDROOT
BRANCH   1  12
ATOM     11  C   UNL     1       0.929  10.605  18.637  0.00  0.00    +0.000 C 
ATOM     12  O   UNL     1       0.767   9.276  19.115  0.00  0.00    +0.000 OA
ENDBRANCH   1  12
BRANCH   7  13
ATOM     13  C   UNL     1       2.009   4.196  20.888  0.00  0.00    +0.000 C 
BRANCH  13  14
ATOM     14  C   UNL     1       0.770   3.642  20.185  0.00  0.00    +0.000 C 
BRANCH  14  15
ATOM     15  C   UNL     1       1.123   2.913  18.918  0.00  0.00    +0.000 C 
ATOM     16  O   UNL     1       0.984   3.352  17.789  0.00  0.00    +0.000 OA
BRANCH  15  17
ATOM     17  O   UNL     1       1.612   1.672  19.157  0.00  0.00    +0.000 OA
ATOM     18  H   UNL     1       2.561   1.580  18.938  0.00  0.00    +0.000 HD
ENDBRANCH  15  17
ENDBRANCH  14  15
ENDBRANCH  13  14
ENDBRANCH   7  13
BRANCH  10  19
ATOM     19  C   UNL     1       5.960   5.392  17.931  0.00  0.00    +0.000 C 
BRANCH  19  20
ATOM     20  C   UNL     1       5.947   4.976  16.475  0.00  0.00    +0.000 A 
ATOM     21  C   UNL     1       4.886   4.281  15.875  0.00  0.00    +0.000 A 
ATOM     22  C   UNL     1       4.994   3.808  14.566  0.00  0.00    +0.000 A 
ATOM     23  C   UNL     1       6.151   4.052  13.833  0.00  0.00    +0.000 A 
ATOM     24 BR   UNL     1       6.336   3.321  12.101  0.00  0.00    +0.000 Br
ATOM     25  C   UNL     1       7.184   4.808  14.381  0.00  0.00    +0.000 A 
ATOM     26  C   UNL     1       7.079   5.272  15.694  0.00  0.00    +0.000 A 
ENDBRANCH  19  20
ENDBRANCH  10  19
TORSDOF 7
ENDMDL
MODEL 2
REMARK VINA RESULT:      -7.0      3.413      6.065
REMARK  Name = 
REMARK  9 active torsions:
REMARK  status: ('A' for Active; 'I' for Inactive)
REMARK    1  A    between atoms: C_1  and  O_2
REMARK    2  A    between atoms: O_2  and  C_3
REMARK    3  A    between atoms: C_9  and  C_10
REMARK    4  A    between atoms: C_10  and  C_11
REMARK    5  A    between atoms: C_11  and  C_12
REMARK    6  A    between atoms: C_12  and  O_14
REMARK    7  A    between atoms: C_15  and  C_16
REMARK    8  A    between atoms: N_17  and  C_18
REMARK    9  A    between atoms: C_18  and  C_19
REMARK                            x       y       z     vdW  Elec       q    Type
REMARK                         _______ _______ _______ _____ _____    ______ ____
ROOT
ATOM      1  C   UNL     1       5.583   5.688  16.004  0.00  0.00    +0.000 A 
ATOM      2  C   UNL     1       5.785   6.785  16.835  0.00  0.00    +0.000 A 
ATOM      3  C   UNL     1       4.975   7.000  17.955  0.00  0.00    +0.000 A 
ATOM      4  C   UNL     1       3.951   6.078  18.225  0.00  0.00    +0.000 A 
ATOM      5  C   UNL     1       3.758   4.941  17.447  0.00  0.00    +0.000 A 
ATOM      6  C   UNL     1       4.576   4.765  16.306  0.00  0.00    +0.000 A 
ATOM      7  C   UNL     1       2.715   4.165  18.057  0.00  0.00    +0.000 A 
ATOM      8  C   UNL     1       2.242   4.899  19.141  0.00  0.00    +0.000 A 
ATOM      9  C   UNL     1       1.156   4.600  20.121  0.00  0.00    +0.000 C 
ATOM     10  N   UNL     1       2.977   6.071  19.203  0.00  0.00    +0.000 N 
ENDROOT
BRANCH   1  12
ATOM     11  C   UNL     1       5.979   4.182  14.211  0.00  0.00    +0.000 C 
ATOM     12  O   UNL     1       6.305   5.396  14.877  0.00  0.00    +0.000 OA
ENDBRANCH   1  12
BRANCH   7  13
ATOM     13  C   UNL     1       2.242   2.816  17.583  0.00  0.00    +0.000 C 
BRANCH  13  14
ATOM     14  C   UNL     1       2.336   1.750  18.675  0.00  0.00    +0.000 C 
BRANCH  14  15
ATOM     15  C   UNL     1       3.753   1.529  19.123  0.00  0.00    +0.000 C 
ATOM     16  O   UNL     1       4.312   2.134  20.022  0.00  0.00    +0.000 OA
BRANCH  15  17
ATOM     17  O   UNL     1       4.380   0.572  18.397  0.00  0.00    +0.000 OA
ATOM     18  H   UNL     1       4.075   0.527  17.468  0.00  0.00    +0.000 HD
ENDBRANCH  15  17
ENDBRANCH  14  15
ENDBRANCH  13  14
ENDBRANCH   7  13
BRANCH  10  19
ATOM     19  C   UNL     1       2.722   7.196  20.109  0.00  0.00    +0.000 C 
BRANCH  19  20
ATOM     20  C   UNL     1       1.711   8.204  19.607  0.00  0.00    +0.000 A 
ATOM     21  C   UNL     1       1.623   8.617  18.269  0.00  0.00    +0.000 A 
ATOM     22  C   UNL     1       0.759   9.649  17.896  0.00  0.00    +0.000 A 
ATOM     23  C   UNL     1      -0.047  10.258  18.852  0.00  0.00    +0.000 A 
ATOM     24 BR   UNL     1      -1.136  11.723  18.365  0.00  0.00    +0.000 Br
ATOM     25  C   UNL     1      -0.034   9.811  20.171  0.00  0.00    +0.000 A 
ATOM     26  C   UNL     1       0.837   8.786  20.544  0.00  0.00    +0.000 A 
ENDBRANCH  19  20
ENDBRANCH  10  19
TORSDOF 7
ENDMDL
MODEL 3
REMARK VINA RESULT:      -7.0      0.579      1.278
REMARK  Name = 
REMARK  9 active torsions:
REMARK  status: ('A' for Active; 'I' for Inactive)
REMARK    1  A    between atoms: C_1  and  O_2
REMARK    2  A    between atoms: O_2  and  C_3
REMARK    3  A    between atoms: C_9  and  C_10
REMARK    4  A    between atoms: C_10  and  C_11
REMARK    5  A    between atoms: C_11  and  C_12
REMARK    6  A    between atoms: C_12  and  O_14
REMARK    7  A    between atoms: C_15  and  C_16
REMARK    8  A    between atoms: N_17  and  C_18
REMARK    9  A    between atoms: C_18  and  C_19
REMARK                            x       y       z     vdW  Elec       q    Type
REMARK                         _______ _______ _______ _____ _____    ______ ____
ROOT
ATOM      1  C   UNL     1       2.255   8.237  18.338  0.00  0.00    +0.000 A 
ATOM      2  C   UNL     1       3.358   8.246  17.491  0.00  0.00    +0.000 A 
ATOM      3  C   UNL     1       4.297   7.210  17.519  0.00  0.00    +0.000 A 
ATOM      4  C   UNL     1       4.100   6.154  18.423  0.00  0.00    +0.000 A 
ATOM      5  C   UNL     1       2.980   6.086  19.244  0.00  0.00    +0.000 A 
ATOM      6  C   UNL     1       2.061   7.162  19.212  0.00  0.00    +0.000 A 
ATOM      7  C   UNL     1       3.032   4.839  19.953  0.00  0.00    +0.000 A 
ATOM      8  C   UNL     1       4.232   4.224  19.607  0.00  0.00    +0.000 A 
ATOM      9  C   UNL     1       4.824   2.927  20.051  0.00  0.00    +0.000 C 
ATOM     10  N   UNL     1       4.882   5.053  18.709  0.00  0.00    +0.000 N 
ENDROOT
BRANCH   1  12
ATOM     11  C   UNL     1       0.837   9.565  19.703  0.00  0.00    +0.000 C 
ATOM     12  O   UNL     1       1.289   9.207  18.403  0.00  0.00    +0.000 OA
ENDBRANCH   1  12
BRANCH   7  13
ATOM     13  C   UNL     1       1.971   4.326  20.891  0.00  0.00    +0.000 C 
BRANCH  13  14
ATOM     14  C   UNL     1       0.760   3.763  20.148  0.00  0.00    +0.000 C 
BRANCH  14  15
ATOM     15  C   UNL     1       1.164   2.827  19.043  0.00  0.00    +0.000 C 
ATOM     16  O   UNL     1       1.622   1.708  19.199  0.00  0.00    +0.000 OA
BRANCH  15  17
ATOM     17  O   UNL     1       0.980   3.369  17.815  0.00  0.00    +0.000 OA
ATOM     18  H   UNL     1       0.560   2.756  17.179  0.00  0.00    +0.000 HD
ENDBRANCH  15  17
ENDBRANCH  14  15
ENDBRANCH  13  14
ENDBRANCH   7  13
BRANCH  10  19
ATOM     19  C   UNL     1       6.240   4.859  18.192  0.00  0.00    +0.000 C 
BRANCH  19  20
ATOM     20  C   UNL     1       6.321   4.503  16.723  0.00  0.00    +0.000 A 
ATOM     21  C   UNL     1       7.218   5.104  15.826  0.00  0.00    +0.000 A 
ATOM     22  C   UNL     1       7.150   4.829  14.459  0.00  0.00    +0.000 A 
ATOM     23  C   UNL     1       6.205   3.929  13.979  0.00  0.00    +0.000 A 
ATOM     24 BR   UNL     1       6.046   3.639  12.119  0.00  0.00    +0.000 Br
ATOM     25  C   UNL     1       5.358   3.261  14.859  0.00  0.00    +0.000 A 
ATOM     26  C   UNL     1       5.420   3.544  16.225  0.00  0.00    +0.000 A 
ENDBRANCH  19  20
ENDBRANCH  10  19
TORSDOF 7
ENDMDL
MODEL 4
REMARK VINA RESULT:      -6.8      3.360      5.982
REMARK  Name = 
REMARK  9 active torsions:
REMARK  status: ('A' for Active; 'I' for Inactive)
REMARK    1  A    between atoms: C_1  and  O_2
REMARK    2  A    between atoms: O_2  and  C_3
REMARK    3  A    between atoms: C_9  and  C_10
REMARK    4  A    between atoms: C_10  and  C_11
REMARK    5  A    between atoms: C_11  and  C_12
REMARK    6  A    between atoms: C_12  and  O_14
REMARK    7  A    between atoms: C_15  and  C_16
REMARK    8  A    between atoms: N_17  and  C_18
REMARK    9  A    between atoms: C_18  and  C_19
REMARK                            x       y       z     vdW  Elec       q    Type
REMARK                         _______ _______ _______ _____ _____    ______ ____
ROOT
ATOM      1  C   UNL     1       5.428   5.806  16.053  0.00  0.00    +0.000 A 
ATOM      2  C   UNL     1       5.645   6.898  16.886  0.00  0.00    +0.000 A 
ATOM      3  C   UNL     1       4.860   7.103  18.025  0.00  0.00    +0.000 A 
ATOM      4  C   UNL     1       3.845   6.175  18.313  0.00  0.00    +0.000 A 
ATOM      5  C   UNL     1       3.638   5.043  17.531  0.00  0.00    +0.000 A 
ATOM      6  C   UNL     1       4.431   4.877  16.371  0.00  0.00    +0.000 A 
ATOM      7  C   UNL     1       2.612   4.260  18.160  0.00  0.00    +0.000 A 
ATOM      8  C   UNL     1       2.162   4.985  19.259  0.00  0.00    +0.000 A 
ATOM      9  C   UNL     1       1.099   4.675  20.261  0.00  0.00    +0.000 C 
ATOM     10  N   UNL     1       2.894   6.159  19.313  0.00  0.00    +0.000 N 
ENDROOT
BRANCH   1  12
ATOM     11  C   UNL     1       6.335   4.148  14.615  0.00  0.00    +0.000 C 
ATOM     12  O   UNL     1       6.126   5.524  14.908  0.00  0.00    +0.000 OA
ENDBRANCH   1  12
BRANCH   7  13
ATOM     13  C   UNL     1       2.133   2.912  17.687  0.00  0.00    +0.000 C 
BRANCH  13  14
ATOM     14  C   UNL     1       2.293   1.831  18.756  0.00  0.00    +0.000 C 
BRANCH  14  15
ATOM     15  C   UNL     1       3.736   1.583  19.093  0.00  0.00    +0.000 C 
ATOM     16  O   UNL     1       4.350   2.118  20.001  0.00  0.00    +0.000 OA
BRANCH  15  17
ATOM     17  O   UNL     1       4.316   0.692  18.254  0.00  0.00    +0.000 OA
ATOM     18  H   UNL     1       3.823   0.569  17.418  0.00  0.00    +0.000 HD
ENDBRANCH  15  17
ENDBRANCH  14  15
ENDBRANCH  13  14
ENDBRANCH   7  13
BRANCH  10  19
ATOM     19  C   UNL     1       2.655   7.276  20.231  0.00  0.00    +0.000 C 
BRANCH  19  20
ATOM     20  C   UNL     1       1.679   8.319  19.730  0.00  0.00    +0.000 A 
ATOM     21  C   UNL     1       0.726   8.947  20.547  0.00  0.00    +0.000 A 
ATOM     22  C   UNL     1      -0.234   9.799  19.997  0.00  0.00    +0.000 A 
ATOM     23  C   UNL     1      -0.231  10.055  18.629  0.00  0.00    +0.000 A 
ATOM     24 BR   UNL     1      -1.594  11.124  17.873  0.00  0.00    +0.000 Br
ATOM     25  C   UNL     1       0.753   9.506  17.812  0.00  0.00    +0.000 A 
ATOM     26  C   UNL     1       1.706   8.646  18.362  0.00  0.00    +0.000 A 
ENDBRANCH  19  20
ENDBRANCH  10  19
TORSDOF 7
ENDMDL
MODEL 5
REMARK VINA RESULT:      -6.7      1.494      1.981
REMARK  Name = 
REMARK  9 active torsions:
REMARK  status: ('A' for Active; 'I' for Inactive)
REMARK    1  A    between atoms: C_1  and  O_2
REMARK    2  A    between atoms: O_2  and  C_3
REMARK    3  A    between atoms: C_9  and  C_10
REMARK    4  A    between atoms: C_10  and  C_11
REMARK    5  A    between atoms: C_11  and  C_12
REMARK    6  A    between atoms: C_12  and  O_14
REMARK    7  A    between atoms: C_15  and  C_16
REMARK    8  A    between atoms: N_17  and  C_18
REMARK    9  A    between atoms: C_18  and  C_19
REMARK                            x       y       z     vdW  Elec       q    Type
REMARK                         _______ _______ _______ _____ _____    ______ ____
ROOT
ATOM      1  C   UNL     1       2.229   7.915  18.034  0.00  0.00    +0.000 A 
ATOM      2  C   UNL     1       3.512   8.030  17.510  0.00  0.00    +0.000 A 
ATOM      3  C   UNL     1       4.355   6.917  17.416  0.00  0.00    +0.000 A 
ATOM      4  C   UNL     1       3.874   5.676  17.861  0.00  0.00    +0.000 A 
ATOM      5  C   UNL     1       2.578   5.516  18.339  0.00  0.00    +0.000 A 
ATOM      6  C   UNL     1       1.758   6.664  18.446  0.00  0.00    +0.000 A 
ATOM      7  C   UNL     1       2.377   4.118  18.600  0.00  0.00    +0.000 A 
ATOM      8  C   UNL     1       3.590   3.480  18.358  0.00  0.00    +0.000 A 
ATOM      9  C   UNL     1       3.978   2.044  18.483  0.00  0.00    +0.000 C 
ATOM     10  N   UNL     1       4.494   4.446  17.948  0.00  0.00    +0.000 N 
ENDROOT
BRANCH   1  12
ATOM     11  C   UNL     1       1.824  10.253  17.940  0.00  0.00    +0.000 C 
ATOM     12  O   UNL     1       1.333   8.941  18.186  0.00  0.00    +0.000 OA
ENDBRANCH   1  12
BRANCH   7  13
ATOM     13  C   UNL     1       1.085   3.494  19.056  0.00  0.00    +0.000 C 
BRANCH  13  14
ATOM     14  C   UNL     1       0.755   3.835  20.510  0.00  0.00    +0.000 C 
BRANCH  14  15
ATOM     15  C   UNL     1       1.909   3.547  21.429  0.00  0.00    +0.000 C 
ATOM     16  O   UNL     1       2.195   2.451  21.880  0.00  0.00    +0.000 OA
BRANCH  15  17
ATOM     17  O   UNL     1       2.616   4.662  21.733  0.00  0.00    +0.000 OA
ATOM     18  H   UNL     1       2.705   5.282  20.981  0.00  0.00    +0.000 HD
ENDBRANCH  15  17
ENDBRANCH  14  15
ENDBRANCH  13  14
ENDBRANCH   7  13
BRANCH  10  19
ATOM     19  C   UNL     1       5.927   4.236  17.719  0.00  0.00    +0.000 C 
BRANCH  19  20
ATOM     20  C   UNL     1       6.360   4.297  16.270  0.00  0.00    +0.000 A 
ATOM     21  C   UNL     1       7.418   5.095  15.808  0.00  0.00    +0.000 A 
ATOM     22  C   UNL     1       7.680   5.211  14.441  0.00  0.00    +0.000 A 
ATOM     23  C   UNL     1       6.906   4.506  13.525  0.00  0.00    +0.000 A 
ATOM     24 BR   UNL     1       7.194   4.745  11.673  0.00  0.00    +0.000 Br
ATOM     25  C   UNL     1       5.903   3.647  13.965  0.00  0.00    +0.000 A 
ATOM     26  C   UNL     1       5.636   3.540  15.332  0.00  0.00    +0.000 A 
ENDBRANCH  19  20
ENDBRANCH  10  19
TORSDOF 7
ENDMDL
MODEL 6
REMARK VINA RESULT:      -6.6      2.451      3.104
REMARK  Name = 
REMARK  9 active torsions:
REMARK  status: ('A' for Active; 'I' for Inactive)
REMARK    1  A    between atoms: C_1  and  O_2
REMARK    2  A    between atoms: O_2  and  C_3
REMARK    3  A    between atoms: C_9  and  C_10
REMARK    4  A    between atoms: C_10  and  C_11
REMARK    5  A    between atoms: C_11  and  C_12
REMARK    6  A    between atoms: C_12  and  O_14
REMARK    7  A    between atoms: C_15  and  C_16
REMARK    8  A    between atoms: N_17  and  C_18
REMARK    9  A    between atoms: C_18  and  C_19
REMARK                            x       y       z     vdW  Elec       q    Type
REMARK                         _______ _______ _______ _____ _____    ______ ____
ROOT
ATOM      1  C   UNL     1       1.776   8.143  19.231  0.00  0.00    +0.000 A 
ATOM      2  C   UNL     1       2.634   8.356  18.157  0.00  0.00    +0.000 A 
ATOM      3  C   UNL     1       3.570   7.387  17.779  0.00  0.00    +0.000 A 
ATOM      4  C   UNL     1       3.622   6.188  18.508  0.00  0.00    +0.000 A 
ATOM      5  C   UNL     1       2.742   5.921  19.551  0.00  0.00    +0.000 A 
ATOM      6  C   UNL     1       1.824   6.930  19.928  0.00  0.00    +0.000 A 
ATOM      7  C   UNL     1       2.990   4.580  20.000  0.00  0.00    +0.000 A 
ATOM      8  C   UNL     1       4.078   4.102  19.275  0.00  0.00    +0.000 A 
ATOM      9  C   UNL     1       4.785   2.789  19.332  0.00  0.00    +0.000 C 
ATOM     10  N   UNL     1       4.469   5.104  18.403  0.00  0.00    +0.000 N 
ENDROOT
BRANCH   1  12
ATOM     11  C   UNL     1       0.653  10.212  18.926  0.00  0.00    +0.000 C 
ATOM     12  O   UNL     1       0.840   9.030  19.694  0.00  0.00    +0.000 OA
ENDBRANCH   1  12
BRANCH   7  13
ATOM     13  C   UNL     1       2.206   3.859  21.064  0.00  0.00    +0.000 C 
BRANCH  13  14
ATOM     14  C   UNL     1       0.881   3.308  20.537  0.00  0.00    +0.000 C 
BRANCH  14  15
ATOM     15  C   UNL     1       1.024   2.725  19.158  0.00  0.00    +0.000 C 
ATOM     16  O   UNL     1       0.740   3.295  18.119  0.00  0.00    +0.000 OA
BRANCH  15  17
ATOM     17  O   UNL     1       1.500   1.457  19.182  0.00  0.00    +0.000 OA
ATOM     18  H   UNL     1       1.147   0.897  18.461  0.00  0.00    +0.000 HD
ENDBRANCH  15  17
ENDBRANCH  14  15
ENDBRANCH  13  14
ENDBRANCH   7  13
BRANCH  10  19
ATOM     19  C   UNL     1       5.660   5.078  17.548  0.00  0.00    +0.000 C 
BRANCH  19  20
ATOM     20  C   UNL     1       6.668   6.174  17.820  0.00  0.00    +0.000 A 
ATOM     21  C   UNL     1       7.642   6.101  18.828  0.00  0.00    +0.000 A 
ATOM     22  C   UNL     1       8.453   7.200  19.117  0.00  0.00    +0.000 A 
ATOM     23  C   UNL     1       8.319   8.373  18.381  0.00  0.00    +0.000 A 
ATOM     24 BR   UNL     1       9.344   9.892  18.842  0.00  0.00    +0.000 Br
ATOM     25  C   UNL     1       7.415   8.441  17.324  0.00  0.00    +0.000 A 
ATOM     26  C   UNL     1       6.598   7.345  17.043  0.00  0.00    +0.000 A 
ENDBRANCH  19  20
ENDBRANCH  10  19
TORSDOF 7
ENDMDL
MODEL 7
REMARK VINA RESULT:      -6.6      3.556      6.572
REMARK  Name = 
REMARK  9 active torsions:
REMARK  status: ('A' for Active; 'I' for Inactive)
REMARK    1  A    between atoms: C_1  and  O_2
REMARK    2  A    between atoms: O_2  and  C_3
REMARK    3  A    between atoms: C_9  and  C_10
REMARK    4  A    between atoms: C_10  and  C_11
REMARK    5  A    between atoms: C_11  and  C_12
REMARK    6  A    between atoms: C_12  and  O_14
REMARK    7  A    between atoms: C_15  and  C_16
REMARK    8  A    between atoms: N_17  and  C_18
REMARK    9  A    between atoms: C_18  and  C_19
REMARK                            x       y       z     vdW  Elec       q    Type
REMARK                         _______ _______ _______ _____ _____    ______ ____
ROOT
ATOM      1  C   UNL     1       4.306   5.427  17.074  0.00  0.00    +0.000 A 
ATOM      2  C   UNL     1       4.418   6.726  16.591  0.00  0.00    +0.000 A 
ATOM      3  C   UNL     1       3.753   7.787  17.215  0.00  0.00    +0.000 A 
ATOM      4  C   UNL     1       2.968   7.511  18.346  0.00  0.00    +0.000 A 
ATOM      5  C   UNL     1       2.878   6.232  18.886  0.00  0.00    +0.000 A 
ATOM      6  C   UNL     1       3.542   5.175  18.218  0.00  0.00    +0.000 A 
ATOM      7  C   UNL     1       2.097   6.319  20.087  0.00  0.00    +0.000 A 
ATOM      8  C   UNL     1       1.658   7.636  20.193  0.00  0.00    +0.000 A 
ATOM      9  C   UNL     1       0.799   8.296  21.221  0.00  0.00    +0.000 C 
ATOM     10  N   UNL     1       2.164   8.332  19.109  0.00  0.00    +0.000 N 
ENDROOT
BRANCH   1  12
ATOM     11  C   UNL     1       5.420   4.460  15.213  0.00  0.00    +0.000 C 
ATOM     12  O   UNL     1       4.899   4.318  16.529  0.00  0.00    +0.000 OA
ENDBRANCH   1  12
BRANCH   7  13
ATOM     13  C   UNL     1       1.819   5.177  21.030  0.00  0.00    +0.000 C 
BRANCH  13  14
ATOM     14  C   UNL     1       0.929   4.106  20.398  0.00  0.00    +0.000 C 
BRANCH  14  15
ATOM     15  C   UNL     1       1.456   2.721  20.648  0.00  0.00    +0.000 C 
ATOM     16  O   UNL     1       1.776   1.921  19.784  0.00  0.00    +0.000 OA
BRANCH  15  17
ATOM     17  O   UNL     1       1.529   2.427  21.969  0.00  0.00    +0.000 OA
ATOM     18  H   UNL     1       2.424   2.154  22.257  0.00  0.00    +0.000 HD
ENDBRANCH  15  17
ENDBRANCH  14  15
ENDBRANCH  13  14
ENDBRANCH   7  13
BRANCH  10  19
ATOM     19  C   UNL     1       1.838   9.717  18.752  0.00  0.00    +0.000 C 
BRANCH  19  20
ATOM     20  C   UNL     1       0.365   9.994  18.544  0.00  0.00    +0.000 A 
ATOM     21  C   UNL     1      -0.396   9.419  17.514  0.00  0.00    +0.000 A 
ATOM     22  C   UNL     1      -1.715   9.820  17.294  0.00  0.00    +0.000 A 
ATOM     23  C   UNL     1      -2.297  10.776  18.120  0.00  0.00    +0.000 A 
ATOM     24 BR   UNL     1      -4.045  11.392  17.756  0.00  0.00    +0.000 Br
ATOM     25  C   UNL     1      -1.587  11.301  19.197  0.00  0.00    +0.000 A 
ATOM     26  C   UNL     1      -0.265  10.907  19.410  0.00  0.00    +0.000 A 
ENDBRANCH  19  20
ENDBRANCH  10  19
TORSDOF 7
ENDMDL
MODEL 8
REMARK VINA RESULT:      -6.6      0.813      1.239
REMARK  Name = 
REMARK  9 active torsions:
REMARK  status: ('A' for Active; 'I' for Inactive)
REMARK    1  A    between atoms: C_1  and  O_2
REMARK    2  A    between atoms: O_2  and  C_3
REMARK    3  A    between atoms: C_9  and  C_10
REMARK    4  A    between atoms: C_10  and  C_11
REMARK    5  A    between atoms: C_11  and  C_12
REMARK    6  A    between atoms: C_12  and  O_14
REMARK    7  A    between atoms: C_15  and  C_16
REMARK    8  A    between atoms: N_17  and  C_18
REMARK    9  A    between atoms: C_18  and  C_19
REMARK                            x       y       z     vdW  Elec       q    Type
REMARK                         _______ _______ _______ _____ _____    ______ ____
ROOT
ATOM      1  C   UNL     1       1.372   8.736  18.986  0.00  0.00    +0.000 A 
ATOM      2  C   UNL     1       2.290   9.100  18.007  0.00  0.00    +0.000 A 
ATOM      3  C   UNL     1       3.388   8.286  17.709  0.00  0.00    +0.000 A 
ATOM      4  C   UNL     1       3.541   7.085  18.421  0.00  0.00    +0.000 A 
ATOM      5  C   UNL     1       2.611   6.665  19.367  0.00  0.00    +0.000 A 
ATOM      6  C   UNL     1       1.526   7.523  19.664  0.00  0.00    +0.000 A 
ATOM      7  C   UNL     1       3.005   5.360  19.818  0.00  0.00    +0.000 A 
ATOM      8  C   UNL     1       4.215   5.063  19.198  0.00  0.00    +0.000 A 
ATOM      9  C   UNL     1       5.096   3.862  19.306  0.00  0.00    +0.000 C 
ATOM     10  N   UNL     1       4.542   6.136  18.386  0.00  0.00    +0.000 N 
ENDROOT
BRANCH   1  12
ATOM     11  C   UNL     1       0.008   9.528  20.760  0.00  0.00    +0.000 C 
ATOM     12  O   UNL     1       0.277   9.467  19.365  0.00  0.00    +0.000 OA
ENDBRANCH   1  12
BRANCH   7  13
ATOM     13  C   UNL     1       2.233   4.504  20.786  0.00  0.00    +0.000 C 
BRANCH  13  14
ATOM     14  C   UNL     1       0.902   4.026  20.206  0.00  0.00    +0.000 C 
BRANCH  14  15
ATOM     15  C   UNL     1       1.056   2.752  19.422  0.00  0.00    +0.000 C 
ATOM     16  O   UNL     1       0.327   2.390  18.515  0.00  0.00    +0.000 OA
BRANCH  15  17
ATOM     17  O   UNL     1       2.109   2.011  19.846  0.00  0.00    +0.000 OA
ATOM     18  H   UNL     1       2.819   1.928  19.177  0.00  0.00    +0.000 HD
ENDBRANCH  15  17
ENDBRANCH  14  15
ENDBRANCH  13  14
ENDBRANCH   7  13
BRANCH  10  19
ATOM     19  C   UNL     1       5.801   6.304  17.654  0.00  0.00    +0.000 C 
BRANCH  19  20
ATOM     20  C   UNL     1       5.933   5.461  16.404  0.00  0.00    +0.000 A 
ATOM     21  C   UNL     1       7.162   5.150  15.802  0.00  0.00    +0.000 A 
ATOM     22  C   UNL     1       7.207   4.483  14.576  0.00  0.00    +0.000 A 
ATOM     23  C   UNL     1       6.025   4.094  13.955  0.00  0.00    +0.000 A 
ATOM     24 BR   UNL     1       6.084   3.286  12.248  0.00  0.00    +0.000 Br
ATOM     25  C   UNL     1       4.798   4.321  14.572  0.00  0.00    +0.000 A 
ATOM     26  C   UNL     1       4.754   4.997  15.793  0.00  0.00    +0.000 A 
ENDBRANCH  19  20
ENDBRANCH  10  19
TORSDOF 7
ENDMDL
MODEL 9
REMARK VINA RESULT:      -6.6      5.066      8.107
REMARK  Name = 
REMARK  9 active torsions:
REMARK  status: ('A' for Active; 'I' for Inactive)
REMARK    1  A    between atoms: C_1  and  O_2
REMARK    2  A    between atoms: O_2  and  C_3
REMARK    3  A    between atoms: C_9  and  C_10
REMARK    4  A    between atoms: C_10  and  C_11
REMARK    5  A    between atoms: C_11  and  C_12
REMARK    6  A    between atoms: C_12  and  O_14
REMARK    7  A    between atoms: C_15  and  C_16
REMARK    8  A    between atoms: N_17  and  C_18
REMARK    9  A    between atoms: C_18  and  C_19
REMARK                            x       y       z     vdW  Elec       q    Type
REMARK                         _______ _______ _______ _____ _____    ______ ____
ROOT
ATOM      1  C   UNL     1      -3.846  10.905  17.548  0.00  0.00    +0.000 A 
ATOM      2  C   UNL     1      -2.909  10.064  16.957  0.00  0.00    +0.000 A 
ATOM      3  C   UNL     1      -1.575  10.062  17.378  0.00  0.00    +0.000 A 
ATOM      4  C   UNL     1      -1.201  10.929  18.417  0.00  0.00    +0.000 A 
ATOM      5  C   UNL     1      -2.124  11.743  19.066  0.00  0.00    +0.000 A 
ATOM      6  C   UNL     1      -3.460  11.742  18.601  0.00  0.00    +0.000 A 
ATOM      7  C   UNL     1      -1.441  12.410  20.138  0.00  0.00    +0.000 A 
ATOM      8  C   UNL     1      -0.099  12.050  20.053  0.00  0.00    +0.000 A 
ATOM      9  C   UNL     1       1.072  12.453  20.887  0.00  0.00    +0.000 C 
ATOM     10  N   UNL     1       0.032  11.183  18.982  0.00  0.00    +0.000 N 
ENDROOT
BRANCH   1  12
ATOM     11  C   UNL     1      -6.106  11.005  18.269  0.00  0.00    +0.000 C 
ATOM     12  O   UNL     1      -5.168  10.998  17.200  0.00  0.00    +0.000 OA
ENDBRANCH   1  12
BRANCH   7  13
ATOM     13  C   UNL     1      -2.085  13.326  21.145  0.00  0.00    +0.000 C 
BRANCH  13  14
ATOM     14  C   UNL     1      -3.237  12.652  21.891  0.00  0.00    +0.000 C 
BRANCH  14  15
ATOM     15  C   UNL     1      -2.778  12.016  23.173  0.00  0.00    +0.000 C 
ATOM     16  O   UNL     1      -1.669  11.551  23.373  0.00  0.00    +0.000 OA
BRANCH  15  17
ATOM     17  O   UNL     1      -3.753  11.991  24.114  0.00  0.00    +0.000 OA
ATOM     18  H   UNL     1      -3.572  11.365  24.844  0.00  0.00    +0.000 HD
ENDBRANCH  15  17
ENDBRANCH  14  15
ENDBRANCH  13  14
ENDBRANCH   7  13
BRANCH  10  19
ATOM     19  C   UNL     1       1.296  10.665  18.448  0.00  0.00    +0.000 C 
BRANCH  19  20
ATOM     20  C   UNL     1       1.606   9.230  18.815  0.00  0.00    +0.000 A 
ATOM     21  C   UNL     1       1.340   8.675  20.076  0.00  0.00    +0.000 A 
ATOM     22  C   UNL     1       1.773   7.386  20.394  0.00  0.00    +0.000 A 
ATOM     23  C   UNL     1       2.450   6.628  19.444  0.00  0.00    +0.000 A 
ATOM     24 BR   UNL     1       3.126   4.927  19.910  0.00  0.00    +0.000 Br
ATOM     25  C   UNL     1       2.654   7.128  18.161  0.00  0.00    +0.000 A 
ATOM     26  C   UNL     1       2.230   8.421  17.847  0.00  0.00    +0.000 A 
ENDBRANCH  19  20
ENDBRANCH  10  19
TORSDOF 7
ENDMDL
