MODEL 1
REMARK VINA RESULT:      -7.3      0.000      0.000
REMARK  Name = 
REMARK  7 active torsions:
REMARK  status: ('A' for Active; 'I' for Inactive)
REMARK    1  A    between atoms: C_1  and  N_2
REMARK    2  A    between atoms: N_2  and  C_3
REMARK    3  A    between atoms: C_3  and  C_4
REMARK    4  A    between atoms: C_6  and  C_7
REMARK    5  A    between atoms: N_12  and  C_13
REMARK    6  A    between atoms: C_21  and  O_22
REMARK    7  A    between atoms: O_22  and  C_23
REMARK                            x       y       z     vdW  Elec       q    Type
REMARK                         _______ _______ _______ _____ _____    ______ ____
ROOT
ATOM      1  C   UNL     1       1.222   8.833  20.361  0.00  0.00    +0.000 A 
ATOM      2  C   UNL     1       0.536  10.032  20.051  0.00  0.00    +0.000 A 
ATOM      3  C   UNL     1       0.631  10.652  18.801  0.00  0.00    +0.000 A 
ATOM      4  C   UNL     1       1.498  10.117  17.858  0.00  0.00    +0.000 A 
ATOM      5  C   UNL     1       2.106   8.889  18.099  0.00  0.00    +0.000 A 
ATOM      6  C   UNL     1       1.958   8.228  19.329  0.00  0.00    +0.000 A 
ENDROOT
BRANCH   3   7
ATOM      7  C   UNL     1      -0.108  11.925  18.590  0.00  0.00    +0.000 C 
ATOM      8  O   UNL     1      -1.192  11.853  18.005  0.00  0.00    +0.000 OA
ATOM      9  N   UNL     1       0.411  13.135  19.039  0.00  0.00    +0.000 N 
ATOM     10  C   UNL     1      -0.421  14.334  18.941  0.00  0.00    +0.000 C 
ATOM     11  C   UNL     1      -0.423  15.110  20.273  0.00  0.00    +0.000 C 
ATOM     12  N   UNL     1       0.915  15.391  20.855  0.00  0.00    +0.000 NA
ATOM     13  C   UNL     1       1.716  14.144  20.869  0.00  0.00    +0.000 C 
ATOM     14  C   UNL     1       1.772  13.415  19.510  0.00  0.00    +0.000 C 
BRANCH  12  15
ATOM     15  C   UNL     1       1.608  16.445  20.094  0.00  0.00    +0.000 C 
ATOM     16  C   UNL     1       0.688  17.684  19.962  0.00  0.00    +0.000 C 
ATOM     17  C   UNL     1       1.883  18.550  20.396  0.00  0.00    +0.000 C 
ATOM     18  C   UNL     1       2.480  17.293  21.056  0.00  0.00    +0.000 C 
ENDBRANCH  12  15
ENDBRANCH   3   7
BRANCH   1  19
ATOM     19  C   UNL     1       1.196   8.391  21.811  0.00  0.00    +0.000 C 
BRANCH  19  21
ATOM     20  C   UNL     1      -0.147   9.569  23.440  0.00  0.00    +0.000 C 
ATOM     21  N   UNL     1       1.127   9.534  22.730  0.00  0.00    +0.000 NA
ATOM     22  H   UNL     1       1.871   9.449  23.421  0.00  0.00    +0.000 HD
ENDBRANCH  19  21
ENDBRANCH   1  19
BRANCH   6  23
ATOM     23  O   UNL     1       2.753   7.107  19.376  0.00  0.00    +0.000 OA
BRANCH  23  24
ATOM     24  C   UNL     1       2.265   5.830  19.358  0.00  0.00    +0.000 A 
ATOM     25  C   UNL     1       2.101   5.314  18.070  0.00  0.00    +0.000 A 
ATOM     26  C   UNL     1       1.719   3.989  17.884  0.00  0.00    +0.000 A 
ATOM     27  C   UNL     1       1.491   3.173  18.993  0.00  0.00    +0.000 A 
ATOM     28 CL   UNL     1       1.134   1.510  18.695  0.00  0.00    +0.000 Cl
ATOM     29  C   UNL     1       1.578   3.710  20.285  0.00  0.00    +0.000 A 
ATOM     30 CL   UNL     1       1.303   2.751  21.696  0.00  0.00    +0.000 Cl
ATOM     31  C   UNL     1       1.931   5.054  20.466  0.00  0.00    +0.000 A 
ENDBRANCH  23  24
ENDBRANCH   6  23
TORSDOF 6
ENDMDL
MODEL 2
REMARK VINA RESULT:      -7.2      3.680      5.225
REMARK  Name = 
REMARK  7 active torsions:
REMARK  status: ('A' for Active; 'I' for Inactive)
REMARK    1  A    between atoms: C_1  and  N_2
REMARK    2  A    between atoms: N_2  and  C_3
REMARK    3  A    between atoms: C_3  and  C_4
REMARK    4  A    between atoms: C_6  and  C_7
REMARK    5  A    between atoms: N_12  and  C_13
REMARK    6  A    between atoms: C_21  and  O_22
REMARK    7  A    between atoms: O_22  and  C_23
REMARK                            x       y       z     vdW  Elec       q    Type
REMARK                         _______ _______ _______ _____ _____    ______ ____
ROOT
ATOM      1  C   UNL     1       1.978   5.742  20.243  0.00  0.00    +0.000 A 
ATOM      2  C   UNL     1       1.568   6.858  21.013  0.00  0.00    +0.000 A 
ATOM      3  C   UNL     1       1.499   8.151  20.485  0.00  0.00    +0.000 A 
ATOM      4  C   UNL     1       1.930   8.361  19.181  0.00  0.00    +0.000 A 
ATOM      5  C   UNL     1       2.242   7.272  18.375  0.00  0.00    +0.000 A 
ATOM      6  C   UNL     1       2.246   5.962  18.883  0.00  0.00    +0.000 A 
ENDROOT
BRANCH   3   7
ATOM      7  C   UNL     1       1.084   9.258  21.387  0.00  0.00    +0.000 C 
ATOM      8  O   UNL     1       1.755   9.431  22.407  0.00  0.00    +0.000 OA
ATOM      9  N   UNL     1      -0.013  10.056  21.080  0.00  0.00    +0.000 N 
ATOM     10  C   UNL     1      -0.290  11.221  21.919  0.00  0.00    +0.000 C 
ATOM     11  C   UNL     1      -0.537  12.473  21.054  0.00  0.00    +0.000 C 
ATOM     12  N   UNL     1      -1.529  12.311  19.959  0.00  0.00    +0.000 NA
ATOM     13  C   UNL     1      -1.217  11.082  19.191  0.00  0.00    +0.000 C 
ATOM     14  C   UNL     1      -1.045   9.821  20.062  0.00  0.00    +0.000 C 
BRANCH  12  15
ATOM     15  C   UNL     1      -2.899  12.254  20.496  0.00  0.00    +0.000 C 
ATOM     16  C   UNL     1      -3.392  13.686  20.824  0.00  0.00    +0.000 C 
ATOM     17  C   UNL     1      -4.697  13.347  20.082  0.00  0.00    +0.000 C 
ATOM     18  C   UNL     1      -3.916  12.256  19.325  0.00  0.00    +0.000 C 
ENDBRANCH  12  15
ENDBRANCH   3   7
BRANCH   1  19
ATOM     19  C   UNL     1       2.208   4.446  20.996  0.00  0.00    +0.000 C 
BRANCH  19  21
ATOM     20  C   UNL     1       3.492   2.557  20.203  0.00  0.00    +0.000 C 
ATOM     21  N   UNL     1       2.233   3.286  20.097  0.00  0.00    +0.000 NA
ATOM     22  H   UNL     1       1.477   2.653  20.354  0.00  0.00    +0.000 HD
ENDBRANCH  19  21
ENDBRANCH   1  19
BRANCH   6  23
ATOM     23  O   UNL     1       2.710   5.077  17.938  0.00  0.00    +0.000 OA
BRANCH  23  24
ATOM     24  C   UNL     1       3.967   5.126  17.404  0.00  0.00    +0.000 A 
ATOM     25  C   UNL     1       4.180   4.183  16.395  0.00  0.00    +0.000 A 
ATOM     26  C   UNL     1       5.372   4.178  15.675  0.00  0.00    +0.000 A 
ATOM     27  C   UNL     1       6.362   5.116  15.971  0.00  0.00    +0.000 A 
ATOM     28 CL   UNL     1       7.766   5.131  14.966  0.00  0.00    +0.000 Cl
ATOM     29  C   UNL     1       6.182   6.010  17.035  0.00  0.00    +0.000 A 
ATOM     30 CL   UNL     1       7.374   7.190  17.450  0.00  0.00    +0.000 Cl
ATOM     31  C   UNL     1       4.993   5.989  17.778  0.00  0.00    +0.000 A 
ENDBRANCH  23  24
ENDBRANCH   6  23
TORSDOF 6
ENDMDL
MODEL 3
REMARK VINA RESULT:      -7.1      4.317      8.882
REMARK  Name = 
REMARK  7 active torsions:
REMARK  status: ('A' for Active; 'I' for Inactive)
REMARK    1  A    between atoms: C_1  and  N_2
REMARK    2  A    between atoms: N_2  and  C_3
REMARK    3  A    between atoms: C_3  and  C_4
REMARK    4  A    between atoms: C_6  and  C_7
REMARK    5  A    between atoms: N_12  and  C_13
REMARK    6  A    between atoms: C_21  and  O_22
REMARK    7  A    between atoms: O_22  and  C_23
REMARK                            x       y       z     vdW  Elec       q    Type
REMARK                         _______ _______ _______ _____ _____    ______ ____
ROOT
ATOM      1  C   UNL     1       0.880   8.942  21.165  0.00  0.00    +0.000 A 
ATOM      2  C   UNL     1       1.568   7.705  21.128  0.00  0.00    +0.000 A 
ATOM      3  C   UNL     1       2.150   7.203  19.960  0.00  0.00    +0.000 A 
ATOM      4  C   UNL     1       1.974   7.905  18.774  0.00  0.00    +0.000 A 
ATOM      5  C   UNL     1       1.391   9.167  18.802  0.00  0.00    +0.000 A 
ATOM      6  C   UNL     1       0.865   9.706  19.987  0.00  0.00    +0.000 A 
ENDROOT
BRANCH   3   7
ATOM      7  C   UNL     1       2.825   5.880  20.023  0.00  0.00    +0.000 C 
ATOM      8  O   UNL     1       2.585   5.174  21.005  0.00  0.00    +0.000 OA
ATOM      9  N   UNL     1       3.683   5.467  19.009  0.00  0.00    +0.000 N 
ATOM     10  C   UNL     1       4.202   4.100  19.042  0.00  0.00    +0.000 C 
ATOM     11  C   UNL     1       4.042   3.419  17.669  0.00  0.00    +0.000 C 
ATOM     12  N   UNL     1       4.549   4.192  16.505  0.00  0.00    +0.000 NA
ATOM     13  C   UNL     1       4.026   5.578  16.571  0.00  0.00    +0.000 C 
ATOM     14  C   UNL     1       4.259   6.275  17.927  0.00  0.00    +0.000 C 
BRANCH  12  15
ATOM     15  C   UNL     1       6.021   4.193  16.476  0.00  0.00    +0.000 C 
ATOM     16  C   UNL     1       6.516   3.776  15.068  0.00  0.00    +0.000 C 
ATOM     17  C   UNL     1       7.473   4.980  15.108  0.00  0.00    +0.000 C 
ATOM     18  C   UNL     1       6.533   5.620  16.148  0.00  0.00    +0.000 C 
ENDBRANCH  12  15
ENDBRANCH   3   7
BRANCH   1  19
ATOM     19  C   UNL     1       0.121   9.258  22.440  0.00  0.00    +0.000 C 
BRANCH  19  21
ATOM     20  C   UNL     1      -1.338  11.067  23.104  0.00  0.00    +0.000 C 
ATOM     21  N   UNL     1       0.004  10.704  22.664  0.00  0.00    +0.000 NA
ATOM     22  H   UNL     1       0.661  10.980  23.392  0.00  0.00    +0.000 HD
ENDBRANCH  19  21
ENDBRANCH   1  19
BRANCH   6  23
ATOM     23  O   UNL     1       0.228  10.899  19.738  0.00  0.00    +0.000 OA
BRANCH  23  24
ATOM     24  C   UNL     1      -0.978  10.999  19.104  0.00  0.00    +0.000 A 
ATOM     25  C   UNL     1      -1.866  11.876  19.730  0.00  0.00    +0.000 A 
ATOM     26  C   UNL     1      -3.095  12.172  19.147  0.00  0.00    +0.000 A 
ATOM     27  C   UNL     1      -3.443  11.581  17.932  0.00  0.00    +0.000 A 
ATOM     28 CL   UNL     1      -4.928  12.079  17.204  0.00  0.00    +0.000 Cl
ATOM     29  C   UNL     1      -2.588  10.640  17.342  0.00  0.00    +0.000 A 
ATOM     30 CL   UNL     1      -2.967   9.873  15.841  0.00  0.00    +0.000 Cl
ATOM     31  C   UNL     1      -1.366  10.321  17.950  0.00  0.00    +0.000 A 
ENDBRANCH  23  24
ENDBRANCH   6  23
TORSDOF 6
ENDMDL
MODEL 4
REMARK VINA RESULT:      -7.1      2.813      3.111
REMARK  Name = 
REMARK  7 active torsions:
REMARK  status: ('A' for Active; 'I' for Inactive)
REMARK    1  A    between atoms: C_1  and  N_2
REMARK    2  A    between atoms: N_2  and  C_3
REMARK    3  A    between atoms: C_3  and  C_4
REMARK    4  A    between atoms: C_6  and  C_7
REMARK    5  A    between atoms: N_12  and  C_13
REMARK    6  A    between atoms: C_21  and  O_22
REMARK    7  A    between atoms: O_22  and  C_23
REMARK                            x       y       z     vdW  Elec       q    Type
REMARK                         _______ _______ _______ _____ _____    ______ ____
ROOT
ATOM      1  C   UNL     1       0.877   8.942  20.412  0.00  0.00    +0.000 A 
ATOM      2  C   UNL     1      -0.213   9.838  20.291  0.00  0.00    +0.000 A 
ATOM      3  C   UNL     1      -0.611  10.376  19.064  0.00  0.00    +0.000 A 
ATOM      4  C   UNL     1       0.144  10.087  17.935  0.00  0.00    +0.000 A 
ATOM      5  C   UNL     1       1.155   9.135  18.008  0.00  0.00    +0.000 A 
ATOM      6  C   UNL     1       1.514   8.540  19.227  0.00  0.00    +0.000 A 
ENDROOT
BRANCH   3   7
ATOM      7  C   UNL     1      -1.752  11.331  19.051  0.00  0.00    +0.000 C 
ATOM      8  O   UNL     1      -2.429  11.381  18.022  0.00  0.00    +0.000 OA
ATOM      9  N   UNL     1      -2.031  12.123  20.160  0.00  0.00    +0.000 N 
ATOM     10  C   UNL     1      -3.249  12.933  20.154  0.00  0.00    +0.000 C 
ATOM     11  C   UNL     1      -4.033  12.754  21.469  0.00  0.00    +0.000 C 
ATOM     12  N   UNL     1      -3.243  12.924  22.716  0.00  0.00    +0.000 NA
ATOM     13  C   UNL     1      -2.001  12.119  22.624  0.00  0.00    +0.000 C 
ATOM     14  C   UNL     1      -1.187  12.362  21.336  0.00  0.00    +0.000 C 
BRANCH  12  15
ATOM     15  C   UNL     1      -2.926  14.343  22.948  0.00  0.00    +0.000 C 
ATOM     16  C   UNL     1      -4.059  15.003  23.773  0.00  0.00    +0.000 C 
ATOM     17  C   UNL     1      -2.972  15.605  24.681  0.00  0.00    +0.000 C 
ATOM     18  C   UNL     1      -2.035  14.477  24.210  0.00  0.00    +0.000 C 
ENDBRANCH  12  15
ENDBRANCH   3   7
BRANCH   1  19
ATOM     19  C   UNL     1       1.327   8.607  21.822  0.00  0.00    +0.000 C 
BRANCH  19  21
ATOM     20  C   UNL     1       0.017   9.461  23.666  0.00  0.00    +0.000 C 
ATOM     21  N   UNL     1       1.116   9.729  22.745  0.00  0.00    +0.000 NA
ATOM     22  H   UNL     1       1.963   9.868  23.295  0.00  0.00    +0.000 HD
ENDBRANCH  19  21
ENDBRANCH   1  19
BRANCH   6  23
ATOM     23  O   UNL     1       2.618   7.736  19.069  0.00  0.00    +0.000 OA
BRANCH  23  24
ATOM     24  C   UNL     1       2.561   6.372  19.010  0.00  0.00    +0.000 A 
ATOM     25  C   UNL     1       3.108   5.842  17.838  0.00  0.00    +0.000 A 
ATOM     26  C   UNL     1       3.227   4.464  17.675  0.00  0.00    +0.000 A 
ATOM     27  C   UNL     1       2.789   3.609  18.686  0.00  0.00    +0.000 A 
ATOM     28 CL   UNL     1       3.071   1.918  18.472  0.00  0.00    +0.000 Cl
ATOM     29  C   UNL     1       2.168   4.135  19.827  0.00  0.00    +0.000 A 
ATOM     30 CL   UNL     1       1.602   3.125  21.110  0.00  0.00    +0.000 Cl
ATOM     31  C   UNL     1       2.021   5.522  19.972  0.00  0.00    +0.000 A 
ENDBRANCH  23  24
ENDBRANCH   6  23
TORSDOF 6
ENDMDL
MODEL 5
REMARK VINA RESULT:      -7.0      0.878      1.446
REMARK  Name = 
REMARK  7 active torsions:
REMARK  status: ('A' for Active; 'I' for Inactive)
REMARK    1  A    between atoms: C_1  and  N_2
REMARK    2  A    between atoms: N_2  and  C_3
REMARK    3  A    between atoms: C_3  and  C_4
REMARK    4  A    between atoms: C_6  and  C_7
REMARK    5  A    between atoms: N_12  and  C_13
REMARK    6  A    between atoms: C_21  and  O_22
REMARK    7  A    between atoms: O_22  and  C_23
REMARK                            x       y       z     vdW  Elec       q    Type
REMARK                         _______ _______ _______ _____ _____    ______ ____
ROOT
ATOM      1  C   UNL     1       1.227   8.806  20.563  0.00  0.00    +0.000 A 
ATOM      2  C   UNL     1       0.483   9.924  20.114  0.00  0.00    +0.000 A 
ATOM      3  C   UNL     1       0.521  10.369  18.789  0.00  0.00    +0.000 A 
ATOM      4  C   UNL     1       1.386   9.742  17.901  0.00  0.00    +0.000 A 
ATOM      5  C   UNL     1       2.050   8.584  18.290  0.00  0.00    +0.000 A 
ATOM      6  C   UNL     1       1.962   8.094  19.602  0.00  0.00    +0.000 A 
ENDROOT
BRANCH   3   7
ATOM      7  C   UNL     1      -0.277  11.571  18.428  0.00  0.00    +0.000 C 
ATOM      8  O   UNL     1      -1.402  11.378  17.962  0.00  0.00    +0.000 OA
ATOM      9  N   UNL     1       0.236  12.851  18.617  0.00  0.00    +0.000 N 
ATOM     10  C   UNL     1      -0.642  13.998  18.388  0.00  0.00    +0.000 C 
ATOM     11  C   UNL     1      -0.560  14.993  19.562  0.00  0.00    +0.000 C 
ATOM     12  N   UNL     1       0.811  15.397  19.968  0.00  0.00    +0.000 NA
ATOM     13  C   UNL     1       1.654  14.187  20.125  0.00  0.00    +0.000 C 
ATOM     14  C   UNL     1       1.621  13.235  18.912  0.00  0.00    +0.000 C 
BRANCH  12  15
ATOM     15  C   UNL     1       1.402  16.316  18.981  0.00  0.00    +0.000 C 
ATOM     16  C   UNL     1       0.300  17.237  18.399  0.00  0.00    +0.000 C 
ATOM     17  C   UNL     1       1.243  18.428  18.644  0.00  0.00    +0.000 C 
ATOM     18  C   UNL     1       1.958  17.570  19.705  0.00  0.00    +0.000 C 
ENDBRANCH  12  15
ENDBRANCH   3   7
BRANCH   1  19
ATOM     19  C   UNL     1       1.256   8.568  22.061  0.00  0.00    +0.000 C 
BRANCH  19  21
ATOM     20  C   UNL     1      -0.429   9.686  23.385  0.00  0.00    +0.000 C 
ATOM     21  N   UNL     1       0.910   9.779  22.815  0.00  0.00    +0.000 NA
ATOM     22  H   UNL     1       1.573   9.892  23.581  0.00  0.00    +0.000 HD
ENDBRANCH  19  21
ENDBRANCH   1  19
BRANCH   6  23
ATOM     23  O   UNL     1       2.804   7.020  19.777  0.00  0.00    +0.000 OA
BRANCH  23  24
ATOM     24  C   UNL     1       2.451   5.728  19.511  0.00  0.00    +0.000 A 
ATOM     25  C   UNL     1       1.567   5.187  20.448  0.00  0.00    +0.000 A 
ATOM     26  C   UNL     1       1.026   3.918  20.258  0.00  0.00    +0.000 A 
ATOM     27  C   UNL     1       1.377   3.180  19.127  0.00  0.00    +0.000 A 
ATOM     28 CL   UNL     1       0.583   1.665  18.891  0.00  0.00    +0.000 Cl
ATOM     29  C   UNL     1       2.324   3.687  18.227  0.00  0.00    +0.000 A 
ATOM     30 CL   UNL     1       2.800   2.818  16.812  0.00  0.00    +0.000 Cl
ATOM     31  C   UNL     1       2.890   4.952  18.441  0.00  0.00    +0.000 A 
ENDBRANCH  23  24
ENDBRANCH   6  23
TORSDOF 6
ENDMDL
MODEL 6
REMARK VINA RESULT:      -7.0      1.918      2.868
REMARK  Name = 
REMARK  7 active torsions:
REMARK  status: ('A' for Active; 'I' for Inactive)
REMARK    1  A    between atoms: C_1  and  N_2
REMARK    2  A    between atoms: N_2  and  C_3
REMARK    3  A    between atoms: C_3  and  C_4
REMARK    4  A    between atoms: C_6  and  C_7
REMARK    5  A    between atoms: N_12  and  C_13
REMARK    6  A    between atoms: C_21  and  O_22
REMARK    7  A    between atoms: O_22  and  C_23
REMARK                            x       y       z     vdW  Elec       q    Type
REMARK                         _______ _______ _______ _____ _____    ______ ____
ROOT
ATOM      1  C   UNL     1       2.307   8.048  18.397  0.00  0.00    +0.000 A 
ATOM      2  C   UNL     1       1.490   9.160  18.079  0.00  0.00    +0.000 A 
ATOM      3  C   UNL     1       0.648   9.768  19.015  0.00  0.00    +0.000 A 
ATOM      4  C   UNL     1       0.547   9.206  20.281  0.00  0.00    +0.000 A 
ATOM      5  C   UNL     1       1.409   8.178  20.650  0.00  0.00    +0.000 A 
ATOM      6  C   UNL     1       2.305   7.610  19.731  0.00  0.00    +0.000 A 
ENDROOT
BRANCH   3   7
ATOM      7  C   UNL     1      -0.190  10.912  18.569  0.00  0.00    +0.000 C 
ATOM      8  O   UNL     1      -1.296  10.645  18.093  0.00  0.00    +0.000 OA
ATOM      9  N   UNL     1       0.265  12.221  18.693  0.00  0.00    +0.000 N 
ATOM     10  C   UNL     1      -0.653  13.316  18.380  0.00  0.00    +0.000 C 
ATOM     11  C   UNL     1      -0.639  14.379  19.496  0.00  0.00    +0.000 C 
ATOM     12  N   UNL     1       0.706  14.863  19.904  0.00  0.00    +0.000 NA
ATOM     13  C   UNL     1       1.593  13.701  20.148  0.00  0.00    +0.000 C 
ATOM     14  C   UNL     1       1.627  12.680  18.992  0.00  0.00    +0.000 C 
BRANCH  12  15
ATOM     15  C   UNL     1       1.280  15.748  18.877  0.00  0.00    +0.000 C 
ATOM     16  C   UNL     1       0.239  16.821  18.471  0.00  0.00    +0.000 C 
ATOM     17  C   UNL     1       1.348  17.876  18.627  0.00  0.00    +0.000 C 
ATOM     18  C   UNL     1       2.076  16.890  19.560  0.00  0.00    +0.000 C 
ENDBRANCH  12  15
ENDBRANCH   3   7
BRANCH   1  19
ATOM     19  C   UNL     1       3.004   7.364  17.237  0.00  0.00    +0.000 C 
BRANCH  19  21
ATOM     20  C   UNL     1       5.111   6.566  16.363  0.00  0.00    +0.000 C 
ATOM     21  N   UNL     1       4.463   7.362  17.398  0.00  0.00    +0.000 NA
ATOM     22  H   UNL     1       4.805   8.319  17.322  0.00  0.00    +0.000 HD
ENDBRANCH  19  21
ENDBRANCH   1  19
BRANCH   6  23
ATOM     23  O   UNL     1       2.953   6.532  20.288  0.00  0.00    +0.000 OA
BRANCH  23  24
ATOM     24  C   UNL     1       2.970   5.285  19.730  0.00  0.00    +0.000 A 
ATOM     25  C   UNL     1       4.258   4.795  19.500  0.00  0.00    +0.000 A 
ATOM     26  C   UNL     1       4.446   3.495  19.039  0.00  0.00    +0.000 A 
ATOM     27  C   UNL     1       3.340   2.680  18.798  0.00  0.00    +0.000 A 
ATOM     28 CL   UNL     1       3.645   1.043  18.341  0.00  0.00    +0.000 Cl
ATOM     29  C   UNL     1       2.046   3.196  18.953  0.00  0.00    +0.000 A 
ATOM     30 CL   UNL     1       0.638   2.235  18.667  0.00  0.00    +0.000 Cl
ATOM     31  C   UNL     1       1.861   4.516  19.386  0.00  0.00    +0.000 A 
ENDBRANCH  23  24
ENDBRANCH   6  23
TORSDOF 6
ENDMDL
MODEL 7
REMARK VINA RESULT:      -6.9      2.931      3.599
REMARK  Name = 
REMARK  7 active torsions:
REMARK  status: ('A' for Active; 'I' for Inactive)
REMARK    1  A    between atoms: C_1  and  N_2
REMARK    2  A    between atoms: N_2  and  C_3
REMARK    3  A    between atoms: C_3  and  C_4
REMARK    4  A    between atoms: C_6  and  C_7
REMARK    5  A    between atoms: N_12  and  C_13
REMARK    6  A    between atoms: C_21  and  O_22
REMARK    7  A    between atoms: O_22  and  C_23
REMARK                            x       y       z     vdW  Elec       q    Type
REMARK                         _______ _______ _______ _____ _____    ______ ____
ROOT
ATOM      1  C   UNL     1       0.741   9.427  20.440  0.00  0.00    +0.000 A 
ATOM      2  C   UNL     1      -0.386  10.274  20.316  0.00  0.00    +0.000 A 
ATOM      3  C   UNL     1      -0.936  10.620  19.077  0.00  0.00    +0.000 A 
ATOM      4  C   UNL     1      -0.299  10.183  17.923  0.00  0.00    +0.000 A 
ATOM      5  C   UNL     1       0.747   9.271  18.016  0.00  0.00    +0.000 A 
ATOM      6  C   UNL     1       1.258   8.868  19.260  0.00  0.00    +0.000 A 
ENDROOT
BRANCH   3   7
ATOM      7  C   UNL     1      -2.103  11.540  19.058  0.00  0.00    +0.000 C 
ATOM      8  O   UNL     1      -2.750  11.603  18.010  0.00  0.00    +0.000 OA
ATOM      9  N   UNL     1      -2.440  12.289  20.181  0.00  0.00    +0.000 N 
ATOM     10  C   UNL     1      -3.681  13.063  20.161  0.00  0.00    +0.000 C 
ATOM     11  C   UNL     1      -4.499  12.821  21.445  0.00  0.00    +0.000 C 
ATOM     12  N   UNL     1      -3.752  12.975  22.720  0.00  0.00    +0.000 NA
ATOM     13  C   UNL     1      -2.484  12.210  22.643  0.00  0.00    +0.000 C 
ATOM     14  C   UNL     1      -1.639  12.517  21.389  0.00  0.00    +0.000 C 
BRANCH  12  15
ATOM     15  C   UNL     1      -3.485  14.395  23.005  0.00  0.00    +0.000 C 
ATOM     16  C   UNL     1      -4.745  15.050  23.624  0.00  0.00    +0.000 C 
ATOM     17  C   UNL     1      -3.832  15.654  24.705  0.00  0.00    +0.000 C 
ATOM     18  C   UNL     1      -2.824  14.531  24.401  0.00  0.00    +0.000 C 
ENDBRANCH  12  15
ENDBRANCH   3   7
BRANCH   1  19
ATOM     19  C   UNL     1       1.354   9.310  21.822  0.00  0.00    +0.000 C 
BRANCH  19  21
ATOM     20  C   UNL     1      -0.246   9.432  23.630  0.00  0.00    +0.000 C 
ATOM     21  N   UNL     1       0.684  10.183  22.794  0.00  0.00    +0.000 NA
ATOM     22  H   UNL     1       1.386  10.603  23.401  0.00  0.00    +0.000 HD
ENDBRANCH  19  21
ENDBRANCH   1  19
BRANCH   6  23
ATOM     23  O   UNL     1       2.366   8.070  19.094  0.00  0.00    +0.000 OA
BRANCH  23  24
ATOM     24  C   UNL     1       2.335   6.705  19.157  0.00  0.00    +0.000 A 
ATOM     25  C   UNL     1       1.949   6.214  20.406  0.00  0.00    +0.000 A 
ATOM     26  C   UNL     1       1.760   4.848  20.600  0.00  0.00    +0.000 A 
ATOM     27  C   UNL     1       1.968   3.965  19.540  0.00  0.00    +0.000 A 
ATOM     28 CL   UNL     1       1.604   2.299  19.813  0.00  0.00    +0.000 Cl
ATOM     29  C   UNL     1       2.432   4.448  18.309  0.00  0.00    +0.000 A 
ATOM     30 CL   UNL     1       2.710   3.402  16.962  0.00  0.00    +0.000 Cl
ATOM     31  C   UNL     1       2.651   5.820  18.129  0.00  0.00    +0.000 A 
ENDBRANCH  23  24
ENDBRANCH   6  23
TORSDOF 6
ENDMDL
MODEL 8
REMARK VINA RESULT:      -6.9      1.217      1.423
REMARK  Name = 
REMARK  7 active torsions:
REMARK  status: ('A' for Active; 'I' for Inactive)
REMARK    1  A    between atoms: C_1  and  N_2
REMARK    2  A    between atoms: N_2  and  C_3
REMARK    3  A    between atoms: C_3  and  C_4
REMARK    4  A    between atoms: C_6  and  C_7
REMARK    5  A    between atoms: N_12  and  C_13
REMARK    6  A    between atoms: C_21  and  O_22
REMARK    7  A    between atoms: O_22  and  C_23
REMARK                            x       y       z     vdW  Elec       q    Type
REMARK                         _______ _______ _______ _____ _____    ______ ____
ROOT
ATOM      1  C   UNL     1       1.264   8.551  20.775  0.00  0.00    +0.000 A 
ATOM      2  C   UNL     1       0.514   9.603  20.195  0.00  0.00    +0.000 A 
ATOM      3  C   UNL     1       0.595   9.924  18.836  0.00  0.00    +0.000 A 
ATOM      4  C   UNL     1       1.509   9.242  18.045  0.00  0.00    +0.000 A 
ATOM      5  C   UNL     1       2.184   8.142  18.565  0.00  0.00    +0.000 A 
ATOM      6  C   UNL     1       2.054   7.773  19.913  0.00  0.00    +0.000 A 
ENDROOT
BRANCH   3   7
ATOM      7  C   UNL     1      -0.215  11.066  18.335  0.00  0.00    +0.000 C 
ATOM      8  O   UNL     1      -1.278  10.795  17.772  0.00  0.00    +0.000 OA
ATOM      9  N   UNL     1       0.219  12.377  18.502  0.00  0.00    +0.000 N 
ATOM     10  C   UNL     1      -0.681  13.468  18.127  0.00  0.00    +0.000 C 
ATOM     11  C   UNL     1      -0.761  14.522  19.248  0.00  0.00    +0.000 C 
ATOM     12  N   UNL     1       0.543  15.013  19.763  0.00  0.00    +0.000 NA
ATOM     13  C   UNL     1       1.418  13.855  20.068  0.00  0.00    +0.000 C 
ATOM     14  C   UNL     1       1.550  12.844  18.910  0.00  0.00    +0.000 C 
BRANCH  12  15
ATOM     15  C   UNL     1       1.189  15.910  18.790  0.00  0.00    +0.000 C 
ATOM     16  C   UNL     1       0.178  16.987  18.322  0.00  0.00    +0.000 C 
ATOM     17  C   UNL     1       1.271  18.041  18.570  0.00  0.00    +0.000 C 
ATOM     18  C   UNL     1       1.932  17.045  19.542  0.00  0.00    +0.000 C 
ENDBRANCH  12  15
ENDBRANCH   3   7
BRANCH   1  19
ATOM     19  C   UNL     1       1.238   8.453  22.288  0.00  0.00    +0.000 C 
BRANCH  19  21
ATOM     20  C   UNL     1      -0.469   9.800  23.344  0.00  0.00    +0.000 C 
ATOM     21  N   UNL     1       0.924   9.743  22.915  0.00  0.00    +0.000 NA
ATOM     22  H   UNL     1       1.513   9.863  23.738  0.00  0.00    +0.000 HD
ENDBRANCH  19  21
ENDBRANCH   1  19
BRANCH   6  23
ATOM     23  O   UNL     1       2.912   6.743  20.219  0.00  0.00    +0.000 OA
BRANCH  23  24
ATOM     24  C   UNL     1       2.892   5.527  19.597  0.00  0.00    +0.000 A 
ATOM     25  C   UNL     1       4.139   5.131  19.107  0.00  0.00    +0.000 A 
ATOM     26  C   UNL     1       4.309   3.869  18.546  0.00  0.00    +0.000 A 
ATOM     27  C   UNL     1       3.222   2.997  18.465  0.00  0.00    +0.000 A 
ATOM     28 CL   UNL     1       3.524   1.406  17.866  0.00  0.00    +0.000 Cl
ATOM     29  C   UNL     1       1.953   3.422  18.883  0.00  0.00    +0.000 A 
ATOM     30 CL   UNL     1       0.571   2.388  18.804  0.00  0.00    +0.000 Cl
ATOM     31  C   UNL     1       1.782   4.706  19.417  0.00  0.00    +0.000 A 
ENDBRANCH  23  24
ENDBRANCH   6  23
TORSDOF 6
ENDMDL
MODEL 9
REMARK VINA RESULT:      -6.8      1.766      2.852
REMARK  Name = 
REMARK  7 active torsions:
REMARK  status: ('A' for Active; 'I' for Inactive)
REMARK    1  A    between atoms: C_1  and  N_2
REMARK    2  A    between atoms: N_2  and  C_3
REMARK    3  A    between atoms: C_3  and  C_4
REMARK    4  A    between atoms: C_6  and  C_7
REMARK    5  A    between atoms: N_12  and  C_13
REMARK    6  A    between atoms: C_21  and  O_22
REMARK    7  A    between atoms: O_22  and  C_23
REMARK                            x       y       z     vdW  Elec       q    Type
REMARK                         _______ _______ _______ _____ _____    ______ ____
ROOT
ATOM      1  C   UNL     1       2.260   8.190  18.384  0.00  0.00    +0.000 A 
ATOM      2  C   UNL     1       1.443   9.311  18.102  0.00  0.00    +0.000 A 
ATOM      3  C   UNL     1       0.600   9.888  19.058  0.00  0.00    +0.000 A 
ATOM      4  C   UNL     1       0.499   9.285  20.305  0.00  0.00    +0.000 A 
ATOM      5  C   UNL     1       1.361   8.245  20.639  0.00  0.00    +0.000 A 
ATOM      6  C   UNL     1       2.257   7.707  19.703  0.00  0.00    +0.000 A 
ENDROOT
BRANCH   3   7
ATOM      7  C   UNL     1      -0.237  11.046  18.650  0.00  0.00    +0.000 C 
ATOM      8  O   UNL     1      -1.374  10.800  18.242  0.00  0.00    +0.000 OA
ATOM      9  N   UNL     1       0.252  12.346  18.733  0.00  0.00    +0.000 N 
ATOM     10  C   UNL     1      -0.659  13.458  18.464  0.00  0.00    +0.000 C 
ATOM     11  C   UNL     1      -0.557  14.530  19.566  0.00  0.00    +0.000 C 
ATOM     12  N   UNL     1       0.819  14.988  19.890  0.00  0.00    +0.000 NA
ATOM     13  C   UNL     1       1.695  13.809  20.094  0.00  0.00    +0.000 C 
ATOM     14  C   UNL     1       1.639  12.777  18.948  0.00  0.00    +0.000 C 
BRANCH  12  15
ATOM     15  C   UNL     1       1.352  15.851  18.822  0.00  0.00    +0.000 C 
ATOM     16  C   UNL     1       0.283  16.895  18.413  0.00  0.00    +0.000 C 
ATOM     17  C   UNL     1       1.377  17.972  18.508  0.00  0.00    +0.000 C 
ATOM     18  C   UNL     1       2.145  17.026  19.450  0.00  0.00    +0.000 C 
ENDBRANCH  12  15
ENDBRANCH   3   7
BRANCH   1  19
ATOM     19  C   UNL     1       2.956   7.544  17.202  0.00  0.00    +0.000 C 
BRANCH  19  21
ATOM     20  C   UNL     1       4.992   6.518  16.396  0.00  0.00    +0.000 C 
ATOM     21  N   UNL     1       4.367   7.254  17.489  0.00  0.00    +0.000 NA
ATOM     22  H   UNL     1       4.868   8.134  17.605  0.00  0.00    +0.000 HD
ENDBRANCH  19  21
ENDBRANCH   1  19
BRANCH   6  23
ATOM     23  O   UNL     1       2.905   6.612  20.224  0.00  0.00    +0.000 OA
BRANCH  23  24
ATOM     24  C   UNL     1       2.571   5.321  19.928  0.00  0.00    +0.000 A 
ATOM     25  C   UNL     1       1.363   4.912  20.498  0.00  0.00    +0.000 A 
ATOM     26  C   UNL     1       0.828   3.662  20.201  0.00  0.00    +0.000 A 
ATOM     27  C   UNL     1       1.510   2.808  19.333  0.00  0.00    +0.000 A 
ATOM     28 CL   UNL     1       0.738   1.321  18.913  0.00  0.00    +0.000 Cl
ATOM     29  C   UNL     1       2.760   3.183  18.822  0.00  0.00    +0.000 A 
ATOM     30 CL   UNL     1       3.652   2.167  17.746  0.00  0.00    +0.000 Cl
ATOM     31  C   UNL     1       3.309   4.431  19.151  0.00  0.00    +0.000 A 
ENDBRANCH  23  24
ENDBRANCH   6  23
TORSDOF 6
ENDMDL
