MODEL 1
REMARK VINA RESULT:      -7.6      0.000      0.000
REMARK  Name = 
REMARK  9 active torsions:
REMARK  status: ('A' for Active; 'I' for Inactive)
REMARK    1  A    between atoms: C_1  and  C_2
REMARK    2  A    between atoms: C_2  and  C_3
REMARK    3  A    between atoms: C_2  and  C_4
REMARK    4  A    between atoms: C_6  and  N_7
REMARK    5  A    between atoms: N_7  and  C_8
REMARK    6  A    between atoms: C_8  and  C_9
REMARK    7  A    between atoms: C_9  and  C_10
REMARK    8  A    between atoms: C_10  and  N_11
REMARK    9  A    between atoms: C_26  and  C_27
REMARK                            x       y       z     vdW  Elec       q    Type
REMARK                         _______ _______ _______ _____ _____    ______ ____
ROOT
ATOM      1  C   UNL     1       2.784   3.527  19.431  0.00  0.00    +0.000 A 
ATOM      2  C   UNL     1       2.260   4.692  18.734  0.00  0.00    +0.000 A 
ATOM      3  C   UNL     1       3.060   5.669  18.262  0.00  0.00    +0.000 A 
ATOM      4  N   UNL     1       4.467   5.525  18.463  0.00  0.00    +0.000 N 
ATOM      5  C   UNL     1       5.012   4.413  19.117  0.00  0.00    +0.000 A 
ATOM      6  N   UNL     1       6.322   4.473  19.201  0.00  0.00    +0.000 NA
ATOM      7  C   UNL     1       6.667   5.662  18.633  0.00  0.00    +0.000 A 
ATOM      8  C   UNL     1       7.951   6.214  18.506  0.00  0.00    +0.000 A 
ATOM      9  C   UNL     1       8.099   7.469  17.915  0.00  0.00    +0.000 A 
ATOM     10  C   UNL     1       6.986   8.164  17.453  0.00  0.00    +0.000 A 
ATOM     11  C   UNL     1       5.697   7.618  17.561  0.00  0.00    +0.000 A 
ATOM     12  C   UNL     1       5.550   6.354  18.164  0.00  0.00    +0.000 A 
ATOM     13  C   UNL     1       4.125   3.408  19.591  0.00  0.00    +0.000 A 
ENDROOT
BRANCH   1  15
ATOM     14  C   UNL     1       1.239   2.808  21.327  0.00  0.00    +0.000 C 
ATOM     15  C   UNL     1       1.753   2.502  19.913  0.00  0.00    +0.000 C 
ATOM     16  C   UNL     1       0.586   2.356  18.929  0.00  0.00    +0.000 C 
ENDBRANCH   1  15
BRANCH   3  17
ATOM     17  N   UNL     1       2.528   6.763  17.605  0.00  0.00    +0.000 N 
ATOM     18  H   UNL     1       2.310   6.645  16.623  0.00  0.00    +0.000 HD
BRANCH  17  19
ATOM     19  C   UNL     1       2.295   8.081  18.185  0.00  0.00    +0.000 C 
BRANCH  19  20
ATOM     20  C   UNL     1       1.797   7.951  19.622  0.00  0.00    +0.000 C 
BRANCH  20  21
ATOM     21  C   UNL     1       1.298   9.310  20.126  0.00  0.00    +0.000 C 
BRANCH  21  22
ATOM     22  N   UNL     1      -0.111   9.364  20.531  0.00  0.00    +0.000 NA
ATOM     23  C   UNL     1      -0.673  10.726  20.658  0.00  0.00    +0.000 C 
ATOM     24  C   UNL     1      -0.229  11.519  21.902  0.00  0.00    +0.000 C 
ATOM     25  O   UNL     1      -0.369  10.771  23.116  0.00  0.00    +0.000 OA
ATOM     26  C   UNL     1       0.293   9.505  23.021  0.00  0.00    +0.000 C 
ATOM     27  C   UNL     1      -0.272   8.688  21.846  0.00  0.00    +0.000 C 
ENDBRANCH  21  22
ENDBRANCH  20  21
ENDBRANCH  19  20
ENDBRANCH  17  19
ENDBRANCH   3  17
BRANCH  13  28
ATOM     28  C   UNL     1       4.685   2.148  20.230  0.00  0.00    +0.000 C 
ATOM     29  N   UNL     1       5.150   1.102  20.759  0.00  0.00    +0.000 NA
ENDBRANCH  13  28
TORSDOF 7
ENDMDL
MODEL 2
REMARK VINA RESULT:      -7.3      1.297      1.675
REMARK  Name = 
REMARK  9 active torsions:
REMARK  status: ('A' for Active; 'I' for Inactive)
REMARK    1  A    between atoms: C_1  and  C_2
REMARK    2  A    between atoms: C_2  and  C_3
REMARK    3  A    between atoms: C_2  and  C_4
REMARK    4  A    between atoms: C_6  and  N_7
REMARK    5  A    between atoms: N_7  and  C_8
REMARK    6  A    between atoms: C_8  and  C_9
REMARK    7  A    between atoms: C_9  and  C_10
REMARK    8  A    between atoms: C_10  and  N_11
REMARK    9  A    between atoms: C_26  and  C_27
REMARK                            x       y       z     vdW  Elec       q    Type
REMARK                         _______ _______ _______ _____ _____    ______ ____
ROOT
ATOM      1  C   UNL     1       2.780   3.535  19.500  0.00  0.00    +0.000 A 
ATOM      2  C   UNL     1       2.251   4.738  18.876  0.00  0.00    +0.000 A 
ATOM      3  C   UNL     1       3.050   5.719  18.410  0.00  0.00    +0.000 A 
ATOM      4  N   UNL     1       4.461   5.539  18.541  0.00  0.00    +0.000 N 
ATOM      5  C   UNL     1       5.010   4.389  19.124  0.00  0.00    +0.000 A 
ATOM      6  N   UNL     1       6.324   4.420  19.152  0.00  0.00    +0.000 NA
ATOM      7  C   UNL     1       6.669   5.626  18.619  0.00  0.00    +0.000 A 
ATOM      8  C   UNL     1       7.958   6.158  18.457  0.00  0.00    +0.000 A 
ATOM      9  C   UNL     1       8.106   7.433  17.913  0.00  0.00    +0.000 A 
ATOM     10  C   UNL     1       6.989   8.169  17.531  0.00  0.00    +0.000 A 
ATOM     11  C   UNL     1       5.695   7.644  17.674  0.00  0.00    +0.000 A 
ATOM     12  C   UNL     1       5.547   6.358  18.230  0.00  0.00    +0.000 A 
ATOM     13  C   UNL     1       4.123   3.383  19.595  0.00  0.00    +0.000 A 
ENDROOT
BRANCH   1  15
ATOM     14  C   UNL     1       1.250   2.809  21.406  0.00  0.00    +0.000 C 
ATOM     15  C   UNL     1       1.749   2.511  19.985  0.00  0.00    +0.000 C 
ATOM     16  C   UNL     1       0.573   2.376  19.011  0.00  0.00    +0.000 C 
ENDBRANCH   1  15
BRANCH   3  17
ATOM     17  N   UNL     1       2.513   6.850  17.823  0.00  0.00    +0.000 N 
ATOM     18  H   UNL     1       2.618   6.939  16.821  0.00  0.00    +0.000 HD
BRANCH  17  19
ATOM     19  C   UNL     1       1.850   7.945  18.524  0.00  0.00    +0.000 C 
BRANCH  19  20
ATOM     20  C   UNL     1       1.954   9.236  17.714  0.00  0.00    +0.000 C 
BRANCH  20  21
ATOM     21  C   UNL     1       1.327  10.394  18.498  0.00  0.00    +0.000 C 
BRANCH  21  22
ATOM     22  N   UNL     1       0.011  10.127  19.090  0.00  0.00    +0.000 NA
ATOM     23  C   UNL     1      -1.142  10.460  18.226  0.00  0.00    +0.000 C 
ATOM     24  C   UNL     1      -1.454  11.961  18.076  0.00  0.00    +0.000 C 
ATOM     25  O   UNL     1      -1.519  12.644  19.334  0.00  0.00    +0.000 OA
ATOM     26  C   UNL     1      -0.334  12.415  20.107  0.00  0.00    +0.000 C 
ATOM     27  C   UNL     1      -0.131  10.909  20.348  0.00  0.00    +0.000 C 
ENDBRANCH  21  22
ENDBRANCH  20  21
ENDBRANCH  19  20
ENDBRANCH  17  19
ENDBRANCH   3  17
BRANCH  13  28
ATOM     28  C   UNL     1       4.684   2.086  20.155  0.00  0.00    +0.000 C 
ATOM     29  N   UNL     1       5.150   1.010  20.620  0.00  0.00    +0.000 NA
ENDBRANCH  13  28
TORSDOF 7
ENDMDL
MODEL 3
REMARK VINA RESULT:      -7.2      1.106      1.619
REMARK  Name = 
REMARK  9 active torsions:
REMARK  status: ('A' for Active; 'I' for Inactive)
REMARK    1  A    between atoms: C_1  and  C_2
REMARK    2  A    between atoms: C_2  and  C_3
REMARK    3  A    between atoms: C_2  and  C_4
REMARK    4  A    between atoms: C_6  and  N_7
REMARK    5  A    between atoms: N_7  and  C_8
REMARK    6  A    between atoms: C_8  and  C_9
REMARK    7  A    between atoms: C_9  and  C_10
REMARK    8  A    between atoms: C_10  and  N_11
REMARK    9  A    between atoms: C_26  and  C_27
REMARK                            x       y       z     vdW  Elec       q    Type
REMARK                         _______ _______ _______ _____ _____    ______ ____
ROOT
ATOM      1  C   UNL     1       2.796   3.504  19.575  0.00  0.00    +0.000 A 
ATOM      2  C   UNL     1       2.248   4.716  18.985  0.00  0.00    +0.000 A 
ATOM      3  C   UNL     1       3.032   5.698  18.498  0.00  0.00    +0.000 A 
ATOM      4  N   UNL     1       4.446   5.512  18.572  0.00  0.00    +0.000 N 
ATOM      5  C   UNL     1       5.013   4.354  19.120  0.00  0.00    +0.000 A 
ATOM      6  N   UNL     1       6.327   4.381  19.097  0.00  0.00    +0.000 NA
ATOM      7  C   UNL     1       6.656   5.590  18.564  0.00  0.00    +0.000 A 
ATOM      8  C   UNL     1       7.939   6.119  18.357  0.00  0.00    +0.000 A 
ATOM      9  C   UNL     1       8.071   7.400  17.820  0.00  0.00    +0.000 A 
ATOM     10  C   UNL     1       6.942   8.143  17.490  0.00  0.00    +0.000 A 
ATOM     11  C   UNL     1       5.653   7.621  17.678  0.00  0.00    +0.000 A 
ATOM     12  C   UNL     1       5.523   6.331  18.226  0.00  0.00    +0.000 A 
ATOM     13  C   UNL     1       4.141   3.346  19.616  0.00  0.00    +0.000 A 
ENDROOT
BRANCH   1  15
ATOM     14  C   UNL     1       1.329   2.771  21.527  0.00  0.00    +0.000 C 
ATOM     15  C   UNL     1       1.781   2.479  20.090  0.00  0.00    +0.000 C 
ATOM     16  C   UNL     1       0.573   2.349  19.155  0.00  0.00    +0.000 C 
ENDBRANCH   1  15
BRANCH   3  17
ATOM     17  N   UNL     1       2.477   6.838  17.945  0.00  0.00    +0.000 N 
ATOM     18  H   UNL     1       2.335   6.837  16.943  0.00  0.00    +0.000 HD
BRANCH  17  19
ATOM     19  C   UNL     1       2.120   8.054  18.667  0.00  0.00    +0.000 C 
BRANCH  19  20
ATOM     20  C   UNL     1       1.634   9.128  17.696  0.00  0.00    +0.000 C 
BRANCH  20  21
ATOM     21  C   UNL     1       0.475   9.910  18.323  0.00  0.00    +0.000 C 
BRANCH  21  22
ATOM     22  N   UNL     1       0.849  11.104  19.090  0.00  0.00    +0.000 NA
ATOM     23  C   UNL     1       0.804  10.941  20.559  0.00  0.00    +0.000 C 
ATOM     24  C   UNL     1      -0.602  10.912  21.187  0.00  0.00    +0.000 C 
ATOM     25  O   UNL     1      -1.428  11.997  20.748  0.00  0.00    +0.000 OA
ATOM     26  C   UNL     1      -1.478  12.061  19.317  0.00  0.00    +0.000 C 
ATOM     27  C   UNL     1      -0.064  12.223  18.735  0.00  0.00    +0.000 C 
ENDBRANCH  21  22
ENDBRANCH  20  21
ENDBRANCH  19  20
ENDBRANCH  17  19
ENDBRANCH   3  17
BRANCH  13  28
ATOM     28  C   UNL     1       4.719   2.042  20.140  0.00  0.00    +0.000 C 
ATOM     29  N   UNL     1       5.198   0.959  20.575  0.00  0.00    +0.000 NA
ENDBRANCH  13  28
TORSDOF 7
ENDMDL
MODEL 4
REMARK VINA RESULT:      -6.7      3.883      6.585
REMARK  Name = 
REMARK  9 active torsions:
REMARK  status: ('A' for Active; 'I' for Inactive)
REMARK    1  A    between atoms: C_1  and  C_2
REMARK    2  A    between atoms: C_2  and  C_3
REMARK    3  A    between atoms: C_2  and  C_4
REMARK    4  A    between atoms: C_6  and  N_7
REMARK    5  A    between atoms: N_7  and  C_8
REMARK    6  A    between atoms: C_8  and  C_9
REMARK    7  A    between atoms: C_9  and  C_10
REMARK    8  A    between atoms: C_10  and  N_11
REMARK    9  A    between atoms: C_26  and  C_27
REMARK                            x       y       z     vdW  Elec       q    Type
REMARK                         _______ _______ _______ _____ _____    ______ ____
ROOT
ATOM      1  C   UNL     1       2.530   6.928  18.803  0.00  0.00    +0.000 A 
ATOM      2  C   UNL     1       2.401   8.198  18.105  0.00  0.00    +0.000 A 
ATOM      3  C   UNL     1       1.761   9.255  18.644  0.00  0.00    +0.000 A 
ATOM      4  N   UNL     1       1.206   9.094  19.951  0.00  0.00    +0.000 N 
ATOM      5  C   UNL     1       1.320   7.893  20.661  0.00  0.00    +0.000 A 
ATOM      6  N   UNL     1       0.740   7.950  21.839  0.00  0.00    +0.000 NA
ATOM      7  C   UNL     1       0.189   9.194  21.911  0.00  0.00    +0.000 A 
ATOM      8  C   UNL     1      -0.571   9.740  22.958  0.00  0.00    +0.000 A 
ATOM      9  C   UNL     1      -1.077  11.033  22.832  0.00  0.00    +0.000 A 
ATOM     10  C   UNL     1      -0.827  11.777  21.683  0.00  0.00    +0.000 A 
ATOM     11  C   UNL     1      -0.057  11.249  20.634  0.00  0.00    +0.000 A 
ATOM     12  C   UNL     1       0.447   9.940  20.761  0.00  0.00    +0.000 A 
ATOM     13  C   UNL     1       2.009   6.810  20.049  0.00  0.00    +0.000 A 
ENDROOT
BRANCH   1  15
ATOM     14  C   UNL     1       2.335   4.752  17.490  0.00  0.00    +0.000 C 
ATOM     15  C   UNL     1       3.280   5.817  18.062  0.00  0.00    +0.000 C 
ATOM     16  C   UNL     1       4.197   6.376  16.968  0.00  0.00    +0.000 C 
ENDBRANCH   1  15
BRANCH   3  17
ATOM     17  N   UNL     1       1.656  10.447  17.951  0.00  0.00    +0.000 N 
ATOM     18  H   UNL     1       0.884  10.532  17.303  0.00  0.00    +0.000 HD
BRANCH  17  19
ATOM     19  C   UNL     1       2.581  11.573  18.038  0.00  0.00    +0.000 C 
BRANCH  19  20
ATOM     20  C   UNL     1       1.813  12.889  18.116  0.00  0.00    +0.000 C 
BRANCH  20  21
ATOM     21  C   UNL     1       2.557  13.873  19.026  0.00  0.00    +0.000 C 
BRANCH  21  22
ATOM     22  N   UNL     1       3.852  14.353  18.527  0.00  0.00    +0.000 NA
ATOM     23  C   UNL     1       4.696  15.030  19.533  0.00  0.00    +0.000 C 
ATOM     24  C   UNL     1       4.259  16.455  19.925  0.00  0.00    +0.000 C 
ATOM     25  O   UNL     1       4.012  17.291  18.788  0.00  0.00    +0.000 OA
ATOM     26  C   UNL     1       3.089  16.674  17.883  0.00  0.00    +0.000 C 
ATOM     27  C   UNL     1       3.625  15.311  17.413  0.00  0.00    +0.000 C 
ENDBRANCH  21  22
ENDBRANCH  20  21
ENDBRANCH  19  20
ENDBRANCH  17  19
ENDBRANCH   3  17
BRANCH  13  28
ATOM     28  C   UNL     1       2.225   5.520  20.823  0.00  0.00    +0.000 C 
ATOM     29  N   UNL     1       2.405   4.450  21.466  0.00  0.00    +0.000 NA
ENDBRANCH  13  28
TORSDOF 7
ENDMDL
MODEL 5
REMARK VINA RESULT:      -6.7      4.441      6.545
REMARK  Name = 
REMARK  9 active torsions:
REMARK  status: ('A' for Active; 'I' for Inactive)
REMARK    1  A    between atoms: C_1  and  C_2
REMARK    2  A    between atoms: C_2  and  C_3
REMARK    3  A    between atoms: C_2  and  C_4
REMARK    4  A    between atoms: C_6  and  N_7
REMARK    5  A    between atoms: N_7  and  C_8
REMARK    6  A    between atoms: C_8  and  C_9
REMARK    7  A    between atoms: C_9  and  C_10
REMARK    8  A    between atoms: C_10  and  N_11
REMARK    9  A    between atoms: C_26  and  C_27
REMARK                            x       y       z     vdW  Elec       q    Type
REMARK                         _______ _______ _______ _____ _____    ______ ____
ROOT
ATOM      1  C   UNL     1       4.661   4.853  18.332  0.00  0.00    +0.000 A 
ATOM      2  C   UNL     1       5.767   5.792  18.222  0.00  0.00    +0.000 A 
ATOM      3  C   UNL     1       6.477   5.939  17.086  0.00  0.00    +0.000 A 
ATOM      4  N   UNL     1       6.103   5.136  15.965  0.00  0.00    +0.000 N 
ATOM      5  C   UNL     1       5.036   4.230  16.026  0.00  0.00    +0.000 A 
ATOM      6  N   UNL     1       4.858   3.589  14.893  0.00  0.00    +0.000 NA
ATOM      7  C   UNL     1       5.844   4.036  14.065  0.00  0.00    +0.000 A 
ATOM      8  C   UNL     1       6.110   3.632  12.747  0.00  0.00    +0.000 A 
ATOM      9  C   UNL     1       7.192   4.190  12.068  0.00  0.00    +0.000 A 
ATOM     10  C   UNL     1       7.998   5.140  12.689  0.00  0.00    +0.000 A 
ATOM     11  C   UNL     1       7.735   5.563  14.001  0.00  0.00    +0.000 A 
ATOM     12  C   UNL     1       6.646   4.993  14.687  0.00  0.00    +0.000 A 
ATOM     13  C   UNL     1       4.317   4.117  17.247  0.00  0.00    +0.000 A 
ENDROOT
BRANCH   1  15
ATOM     14  C   UNL     1       2.565   5.453  19.655  0.00  0.00    +0.000 C 
ATOM     15  C   UNL     1       3.951   4.793  19.688  0.00  0.00    +0.000 C 
ATOM     16  C   UNL     1       3.858   3.359  20.223  0.00  0.00    +0.000 C 
ENDBRANCH   1  15
BRANCH   3  17
ATOM     17  N   UNL     1       7.524   6.840  17.018  0.00  0.00    +0.000 N 
ATOM     18  H   UNL     1       8.425   6.473  16.740  0.00  0.00    +0.000 HD
BRANCH  17  19
ATOM     19  C   UNL     1       7.456   8.259  17.352  0.00  0.00    +0.000 C 
BRANCH  19  20
ATOM     20  C   UNL     1       8.551   8.624  18.351  0.00  0.00    +0.000 C 
BRANCH  20  21
ATOM     21  C   UNL     1       8.738  10.145  18.385  0.00  0.00    +0.000 C 
BRANCH  21  22
ATOM     22  N   UNL     1       9.909  10.629  19.126  0.00  0.00    +0.000 NA
ATOM     23  C   UNL     1       9.599  11.434  20.327  0.00  0.00    +0.000 C 
ATOM     24  C   UNL     1       9.106  12.869  20.062  0.00  0.00    +0.000 C 
ATOM     25  O   UNL     1       9.944  13.584  19.146  0.00  0.00    +0.000 OA
ATOM     26  C   UNL     1      10.129  12.845  17.932  0.00  0.00    +0.000 C 
ATOM     27  C   UNL     1      10.747  11.468  18.228  0.00  0.00    +0.000 C 
ENDBRANCH  21  22
ENDBRANCH  20  21
ENDBRANCH  19  20
ENDBRANCH  17  19
ENDBRANCH   3  17
BRANCH  13  28
ATOM     28  C   UNL     1       3.101   3.208  17.324  0.00  0.00    +0.000 C 
ATOM     29  N   UNL     1       2.092   2.453  17.388  0.00  0.00    +0.000 NA
ENDBRANCH  13  28
TORSDOF 7
ENDMDL
MODEL 6
REMARK VINA RESULT:      -6.6      1.321      4.629
REMARK  Name = 
REMARK  9 active torsions:
REMARK  status: ('A' for Active; 'I' for Inactive)
REMARK    1  A    between atoms: C_1  and  C_2
REMARK    2  A    between atoms: C_2  and  C_3
REMARK    3  A    between atoms: C_2  and  C_4
REMARK    4  A    between atoms: C_6  and  N_7
REMARK    5  A    between atoms: N_7  and  C_8
REMARK    6  A    between atoms: C_8  and  C_9
REMARK    7  A    between atoms: C_9  and  C_10
REMARK    8  A    between atoms: C_10  and  N_11
REMARK    9  A    between atoms: C_26  and  C_27
REMARK                            x       y       z     vdW  Elec       q    Type
REMARK                         _______ _______ _______ _____ _____    ______ ____
ROOT
ATOM      1  C   UNL     1       5.708   6.558  17.489  0.00  0.00    +0.000 A 
ATOM      2  C   UNL     1       4.438   7.252  17.645  0.00  0.00    +0.000 A 
ATOM      3  C   UNL     1       3.420   6.738  18.363  0.00  0.00    +0.000 A 
ATOM      4  N   UNL     1       3.626   5.469  18.986  0.00  0.00    +0.000 N 
ATOM      5  C   UNL     1       4.837   4.775  18.871  0.00  0.00    +0.000 A 
ATOM      6  N   UNL     1       4.821   3.629  19.513  0.00  0.00    +0.000 NA
ATOM      7  C   UNL     1       3.568   3.525  20.037  0.00  0.00    +0.000 A 
ATOM      8  C   UNL     1       3.033   2.464  20.785  0.00  0.00    +0.000 A 
ATOM      9  C   UNL     1       1.707   2.530  21.212  0.00  0.00    +0.000 A 
ATOM     10  C   UNL     1       0.924   3.639  20.903  0.00  0.00    +0.000 A 
ATOM     11  C   UNL     1       1.450   4.713  20.169  0.00  0.00    +0.000 A 
ATOM     12  C   UNL     1       2.787   4.640  19.733  0.00  0.00    +0.000 A 
ATOM     13  C   UNL     1       5.881   5.363  18.105  0.00  0.00    +0.000 A 
ENDROOT
BRANCH   1  15
ATOM     14  C   UNL     1       7.867   7.913  17.494  0.00  0.00    +0.000 C 
ATOM     15  C   UNL     1       6.770   7.264  16.640  0.00  0.00    +0.000 C 
ATOM     16  C   UNL     1       7.379   6.327  15.590  0.00  0.00    +0.000 C 
ENDBRANCH   1  15
BRANCH   3  17
ATOM     17  N   UNL     1       2.227   7.425  18.490  0.00  0.00    +0.000 N 
ATOM     18  H   UNL     1       1.431   6.899  18.830  0.00  0.00    +0.000 HD
BRANCH  17  19
ATOM     19  C   UNL     1       2.001   8.822  18.136  0.00  0.00    +0.000 C 
BRANCH  19  20
ATOM     20  C   UNL     1       0.505   9.116  18.055  0.00  0.00    +0.000 C 
BRANCH  20  21
ATOM     21  C   UNL     1       0.056   9.876  19.308  0.00  0.00    +0.000 C 
BRANCH  21  22
ATOM     22  N   UNL     1       1.061  10.012  20.369  0.00  0.00    +0.000 NA
ATOM     23  C   UNL     1       0.899   9.082  21.507  0.00  0.00    +0.000 C 
ATOM     24  C   UNL     1      -0.250   9.410  22.480  0.00  0.00    +0.000 C 
ATOM     25  O   UNL     1      -0.242  10.777  22.908  0.00  0.00    +0.000 OA
ATOM     26  C   UNL     1      -0.215  11.668  21.787  0.00  0.00    +0.000 C 
ATOM     27  C   UNL     1       1.020  11.396  20.911  0.00  0.00    +0.000 C 
ENDBRANCH  21  22
ENDBRANCH  20  21
ENDBRANCH  19  20
ENDBRANCH  17  19
ENDBRANCH   3  17
BRANCH  13  28
ATOM     28  C   UNL     1       7.237   4.680  18.029  0.00  0.00    +0.000 C 
ATOM     29  N   UNL     1       8.362   4.113  17.965  0.00  0.00    +0.000 NA
ENDBRANCH  13  28
TORSDOF 7
ENDMDL
MODEL 7
REMARK VINA RESULT:      -6.6      1.230      4.506
REMARK  Name = 
REMARK  9 active torsions:
REMARK  status: ('A' for Active; 'I' for Inactive)
REMARK    1  A    between atoms: C_1  and  C_2
REMARK    2  A    between atoms: C_2  and  C_3
REMARK    3  A    between atoms: C_2  and  C_4
REMARK    4  A    between atoms: C_6  and  N_7
REMARK    5  A    between atoms: N_7  and  C_8
REMARK    6  A    between atoms: C_8  and  C_9
REMARK    7  A    between atoms: C_9  and  C_10
REMARK    8  A    between atoms: C_10  and  N_11
REMARK    9  A    between atoms: C_26  and  C_27
REMARK                            x       y       z     vdW  Elec       q    Type
REMARK                         _______ _______ _______ _____ _____    ______ ____
ROOT
ATOM      1  C   UNL     1       5.635   6.513  17.561  0.00  0.00    +0.000 A 
ATOM      2  C   UNL     1       4.368   7.194  17.784  0.00  0.00    +0.000 A 
ATOM      3  C   UNL     1       3.384   6.657  18.532  0.00  0.00    +0.000 A 
ATOM      4  N   UNL     1       3.622   5.376  19.117  0.00  0.00    +0.000 N 
ATOM      5  C   UNL     1       4.832   4.694  18.937  0.00  0.00    +0.000 A 
ATOM      6  N   UNL     1       4.850   3.534  19.554  0.00  0.00    +0.000 NA
ATOM      7  C   UNL     1       3.620   3.409  20.126  0.00  0.00    +0.000 A 
ATOM      8  C   UNL     1       3.122   2.329  20.871  0.00  0.00    +0.000 A 
ATOM      9  C   UNL     1       1.814   2.376  21.353  0.00  0.00    +0.000 A 
ATOM     10  C   UNL     1       1.013   3.485  21.101  0.00  0.00    +0.000 A 
ATOM     11  C   UNL     1       1.501   4.579  20.370  0.00  0.00    +0.000 A 
ATOM     12  C   UNL     1       2.820   4.525  19.879  0.00  0.00    +0.000 A 
ATOM     13  C   UNL     1       5.841   5.307  18.143  0.00  0.00    +0.000 A 
ENDROOT
BRANCH   1  15
ATOM     14  C   UNL     1       7.791   7.871  17.507  0.00  0.00    +0.000 C 
ATOM     15  C   UNL     1       6.657   7.245  16.685  0.00  0.00    +0.000 C 
ATOM     16  C   UNL     1       7.218   6.340  15.582  0.00  0.00    +0.000 C 
ENDBRANCH   1  15
BRANCH   3  17
ATOM     17  N   UNL     1       2.192   7.333  18.722  0.00  0.00    +0.000 N 
ATOM     18  H   UNL     1       1.743   7.222  19.622  0.00  0.00    +0.000 HD
BRANCH  17  19
ATOM     19  C   UNL     1       1.503   8.151  17.729  0.00  0.00    +0.000 C 
BRANCH  19  20
ATOM     20  C   UNL     1       1.516   9.619  18.147  0.00  0.00    +0.000 C 
BRANCH  20  21
ATOM     21  C   UNL     1       1.370   9.729  19.669  0.00  0.00    +0.000 C 
BRANCH  21  22
ATOM     22  N   UNL     1       0.011   9.558  20.196  0.00  0.00    +0.000 NA
ATOM     23  C   UNL     1      -0.667  10.810  20.594  0.00  0.00    +0.000 C 
ATOM     24  C   UNL     1      -0.179  11.446  21.910  0.00  0.00    +0.000 C 
ATOM     25  O   UNL     1      -0.119  10.507  22.991  0.00  0.00    +0.000 OA
ATOM     26  C   UNL     1       0.652   9.355  22.631  0.00  0.00    +0.000 C 
ATOM     27  C   UNL     1       0.054   8.672  21.389  0.00  0.00    +0.000 C 
ENDBRANCH  21  22
ENDBRANCH  20  21
ENDBRANCH  19  20
ENDBRANCH  17  19
ENDBRANCH   3  17
BRANCH  13  28
ATOM     28  C   UNL     1       7.196   4.635  17.996  0.00  0.00    +0.000 C 
ATOM     29  N   UNL     1       8.321   4.077  17.875  0.00  0.00    +0.000 NA
ENDBRANCH  13  28
TORSDOF 7
ENDMDL
MODEL 8
REMARK VINA RESULT:      -6.5      1.366      4.625
REMARK  Name = 
REMARK  9 active torsions:
REMARK  status: ('A' for Active; 'I' for Inactive)
REMARK    1  A    between atoms: C_1  and  C_2
REMARK    2  A    between atoms: C_2  and  C_3
REMARK    3  A    between atoms: C_2  and  C_4
REMARK    4  A    between atoms: C_6  and  N_7
REMARK    5  A    between atoms: N_7  and  C_8
REMARK    6  A    between atoms: C_8  and  C_9
REMARK    7  A    between atoms: C_9  and  C_10
REMARK    8  A    between atoms: C_10  and  N_11
REMARK    9  A    between atoms: C_26  and  C_27
REMARK                            x       y       z     vdW  Elec       q    Type
REMARK                         _______ _______ _______ _____ _____    ______ ____
ROOT
ATOM      1  C   UNL     1       6.195   6.676  17.761  0.00  0.00    +0.000 A 
ATOM      2  C   UNL     1       4.920   7.370  17.858  0.00  0.00    +0.000 A 
ATOM      3  C   UNL     1       3.758   6.718  18.061  0.00  0.00    +0.000 A 
ATOM      4  N   UNL     1       3.812   5.296  18.187  0.00  0.00    +0.000 N 
ATOM      5  C   UNL     1       5.020   4.592  18.113  0.00  0.00    +0.000 A 
ATOM      6  N   UNL     1       4.854   3.295  18.251  0.00  0.00    +0.000 NA
ATOM      7  C   UNL     1       3.510   3.114  18.378  0.00  0.00    +0.000 A 
ATOM      8  C   UNL     1       2.814   1.903  18.517  0.00  0.00    +0.000 A 
ATOM      9  C   UNL     1       1.422   1.922  18.606  0.00  0.00    +0.000 A 
ATOM     10  C   UNL     1       0.731   3.129  18.560  0.00  0.00    +0.000 A 
ATOM     11  C   UNL     1       1.415   4.348  18.436  0.00  0.00    +0.000 A 
ATOM     12  C   UNL     1       2.820   4.326  18.340  0.00  0.00    +0.000 A 
ATOM     13  C   UNL     1       6.218   5.328  17.903  0.00  0.00    +0.000 A 
ENDROOT
BRANCH   1  15
ATOM     14  C   UNL     1       7.067   9.013  17.236  0.00  0.00    +0.000 C 
ATOM     15  C   UNL     1       7.430   7.550  17.524  0.00  0.00    +0.000 C 
ATOM     16  C   UNL     1       8.430   7.455  18.683  0.00  0.00    +0.000 C 
ENDBRANCH   1  15
BRANCH   3  17
ATOM     17  N   UNL     1       2.563   7.410  18.147  0.00  0.00    +0.000 N 
ATOM     18  H   UNL     1       1.756   6.891  18.468  0.00  0.00    +0.000 HD
BRANCH  17  19
ATOM     19  C   UNL     1       2.353   8.805  17.774  0.00  0.00    +0.000 C 
BRANCH  19  20
ATOM     20  C   UNL     1       0.941   9.249  18.144  0.00  0.00    +0.000 C 
BRANCH  20  21
ATOM     21  C   UNL     1       0.922   9.783  19.580  0.00  0.00    +0.000 C 
BRANCH  21  22
ATOM     22  N   UNL     1      -0.359   9.673  20.287  0.00  0.00    +0.000 NA
ATOM     23  C   UNL     1      -0.904  10.951  20.795  0.00  0.00    +0.000 C 
ATOM     24  C   UNL     1      -0.205  11.528  22.041  0.00  0.00    +0.000 C 
ATOM     25  O   UNL     1      -0.051  10.563  23.088  0.00  0.00    +0.000 OA
ATOM     26  C   UNL     1       0.597   9.379  22.607  0.00  0.00    +0.000 C 
ATOM     27  C   UNL     1      -0.204   8.759  21.450  0.00  0.00    +0.000 C 
ENDBRANCH  21  22
ENDBRANCH  20  21
ENDBRANCH  19  20
ENDBRANCH  17  19
ENDBRANCH   3  17
BRANCH  13  28
ATOM     28  C   UNL     1       7.556   4.607  17.902  0.00  0.00    +0.000 C 
ATOM     29  N   UNL     1       8.666   4.008  17.901  0.00  0.00    +0.000 NA
ENDBRANCH  13  28
TORSDOF 7
ENDMDL
MODEL 9
REMARK VINA RESULT:      -6.5      1.670      4.718
REMARK  Name = 
REMARK  9 active torsions:
REMARK  status: ('A' for Active; 'I' for Inactive)
REMARK    1  A    between atoms: C_1  and  C_2
REMARK    2  A    between atoms: C_2  and  C_3
REMARK    3  A    between atoms: C_2  and  C_4
REMARK    4  A    between atoms: C_6  and  N_7
REMARK    5  A    between atoms: N_7  and  C_8
REMARK    6  A    between atoms: C_8  and  C_9
REMARK    7  A    between atoms: C_9  and  C_10
REMARK    8  A    between atoms: C_10  and  N_11
REMARK    9  A    between atoms: C_26  and  C_27
REMARK                            x       y       z     vdW  Elec       q    Type
REMARK                         _______ _______ _______ _____ _____    ______ ____
ROOT
ATOM      1  C   UNL     1       5.617   6.387  17.435  0.00  0.00    +0.000 A 
ATOM      2  C   UNL     1       4.315   7.024  17.568  0.00  0.00    +0.000 A 
ATOM      3  C   UNL     1       3.328   6.497  18.321  0.00  0.00    +0.000 A 
ATOM      4  N   UNL     1       3.601   5.273  19.004  0.00  0.00    +0.000 N 
ATOM      5  C   UNL     1       4.845   4.635  18.912  0.00  0.00    +0.000 A 
ATOM      6  N   UNL     1       4.890   3.523  19.611  0.00  0.00    +0.000 NA
ATOM      7  C   UNL     1       3.647   3.384  20.151  0.00  0.00    +0.000 A 
ATOM      8  C   UNL     1       3.170   2.337  20.955  0.00  0.00    +0.000 A 
ATOM      9  C   UNL     1       1.845   2.359  21.391  0.00  0.00    +0.000 A 
ATOM     10  C   UNL     1       1.006   3.411  21.034  0.00  0.00    +0.000 A 
ATOM     11  C   UNL     1       1.473   4.471  20.242  0.00  0.00    +0.000 A 
ATOM     12  C   UNL     1       2.809   4.442  19.798  0.00  0.00    +0.000 A 
ATOM     13  C   UNL     1       5.853   5.235  18.109  0.00  0.00    +0.000 A 
ENDROOT
BRANCH   1  15
ATOM     14  C   UNL     1       7.739   7.796  17.352  0.00  0.00    +0.000 C 
ATOM     15  C   UNL     1       6.636   7.101  16.543  0.00  0.00    +0.000 C 
ATOM     16  C   UNL     1       7.241   6.158  15.496  0.00  0.00    +0.000 C 
ENDBRANCH   1  15
BRANCH   3  17
ATOM     17  N   UNL     1       2.103   7.130  18.423  0.00  0.00    +0.000 N 
ATOM     18  H   UNL     1       1.308   6.654  18.017  0.00  0.00    +0.000 HD
BRANCH  17  19
ATOM     19  C   UNL     1       1.862   8.438  19.023  0.00  0.00    +0.000 C 
BRANCH  19  20
ATOM     20  C   UNL     1       1.354   9.421  17.971  0.00  0.00    +0.000 C 
BRANCH  20  21
ATOM     21  C   UNL     1       0.024  10.031  18.427  0.00  0.00    +0.000 C 
BRANCH  21  22
ATOM     22  N   UNL     1      -0.006  11.494  18.535  0.00  0.00    +0.000 NA
ATOM     23  C   UNL     1       1.159  12.094  19.218  0.00  0.00    +0.000 C 
ATOM     24  C   UNL     1       1.195  11.929  20.750  0.00  0.00    +0.000 C 
ATOM     25  O   UNL     1      -0.039  12.301  21.377  0.00  0.00    +0.000 OA
ATOM     26  C   UNL     1      -1.146  11.611  20.786  0.00  0.00    +0.000 C 
ATOM     27  C   UNL     1      -1.225  11.908  19.279  0.00  0.00    +0.000 C 
ENDBRANCH  21  22
ENDBRANCH  20  21
ENDBRANCH  19  20
ENDBRANCH  17  19
ENDBRANCH   3  17
BRANCH  13  28
ATOM     28  C   UNL     1       7.240   4.616  18.054  0.00  0.00    +0.000 C 
ATOM     29  N   UNL     1       8.392   4.103  18.009  0.00  0.00    +0.000 NA
ENDBRANCH  13  28
TORSDOF 7
ENDMDL
