MODEL 1
REMARK VINA RESULT:      -8.3      0.000      0.000
REMARK  Name = 
REMARK  6 active torsions:
REMARK  status: ('A' for Active; 'I' for Inactive)
REMARK    1  A    between atoms: C_2  and  C_23
REMARK    2  A    between atoms: N_3  and  N_4
REMARK    3  A    between atoms: N_4  and  C_5
REMARK    4  A    between atoms: C_5  and  C_6
REMARK    5  A    between atoms: C_6  and  C_7
REMARK    6  A    between atoms: C_7  and  N_8
REMARK                            x       y       z     vdW  Elec       q    Type
REMARK                         _______ _______ _______ _____ _____    ______ ____
ROOT
ATOM      1  C   UNL     1       3.025   6.828  19.358  0.00  0.00    +0.000 C 
ENDROOT
BRANCH   1   2
ATOM      2  N   UNL     1       3.550   5.550  18.826  0.00  0.00    +0.000 N 
ATOM      3  C   UNL     1       2.678   4.419  18.913  0.00  0.00    +0.000 A 
ATOM      4  C   UNL     1       1.560   4.392  19.780  0.00  0.00    +0.000 A 
ATOM      5  C   UNL     1       0.649   3.328  19.808  0.00  0.00    +0.000 A 
ATOM      6  C   UNL     1       0.844   2.230  18.988  0.00  0.00    +0.000 A 
ATOM      7  C   UNL     1       1.969   2.189  18.175  0.00  0.00    +0.000 A 
ATOM      8  C   UNL     1       2.887   3.258  18.144  0.00  0.00    +0.000 A 
ATOM      9  S   UNL     1       4.283   3.017  17.078  0.00  0.00    +0.000 S 
ATOM     10  C   UNL     1       5.207   4.515  17.304  0.00  0.00    +0.000 A 
ATOM     11  C   UNL     1       6.431   4.563  16.607  0.00  0.00    +0.000 A 
ATOM     12  C   UNL     1       7.229   5.699  16.635  0.00  0.00    +0.000 A 
ATOM     13  C   UNL     1       6.800   6.796  17.361  0.00  0.00    +0.000 A 
ATOM     14 CL   UNL     1       7.757   8.227  17.388  0.00  0.00    +0.000 Cl
ATOM     15  C   UNL     1       5.596   6.750  18.074  0.00  0.00    +0.000 A 
ATOM     16  C   UNL     1       4.762   5.608  18.075  0.00  0.00    +0.000 A 
ENDBRANCH   1   2
BRANCH   1  17
ATOM     17  C   UNL     1       2.058   7.507  18.373  0.00  0.00    +0.000 C 
BRANCH  17  18
ATOM     18  C   UNL     1       2.656   8.773  17.751  0.00  0.00    +0.000 C 
BRANCH  18  19
ATOM     19  N   UNL     1       1.956   9.974  18.216  0.00  0.00    +0.000 NA
ATOM     20  H   UNL     1       1.902   9.964  19.244  0.00  0.00    +0.000 HD
BRANCH  19  23
ATOM     21  O   UNL     1      -0.049  11.197  19.616  0.00  0.00    +0.000 OA
ATOM     22  C   UNL     1      -0.319  10.663  18.546  0.00  0.00    +0.000 C 
ATOM     23  N   UNL     1       0.618   9.975  17.781  0.00  0.00    +0.000 N 
ATOM     24  H   UNL     1       0.435   9.804  16.796  0.00  0.00    +0.000 HD
BRANCH  22  25
ATOM     25  C   UNL     1      -1.688  10.740  17.970  0.00  0.00    +0.000 A 
ATOM     26  C   UNL     1      -2.656  11.508  18.628  0.00  0.00    +0.000 A 
ATOM     27  C   UNL     1      -3.951  11.572  18.116  0.00  0.00    +0.000 A 
ATOM     28  C   UNL     1      -4.282  10.864  16.959  0.00  0.00    +0.000 A 
ATOM     29  C   UNL     1      -3.320  10.090  16.310  0.00  0.00    +0.000 A 
ATOM     30  C   UNL     1      -2.023  10.023  16.816  0.00  0.00    +0.000 A 
ENDBRANCH  22  25
ENDBRANCH  19  23
ENDBRANCH  18  19
ENDBRANCH  17  18
ENDBRANCH   1  17
TORSDOF 6
ENDMDL
MODEL 2
REMARK VINA RESULT:      -8.1      1.998      2.539
REMARK  Name = 
REMARK  6 active torsions:
REMARK  status: ('A' for Active; 'I' for Inactive)
REMARK    1  A    between atoms: C_2  and  C_23
REMARK    2  A    between atoms: N_3  and  N_4
REMARK    3  A    between atoms: N_4  and  C_5
REMARK    4  A    between atoms: C_5  and  C_6
REMARK    5  A    between atoms: C_6  and  C_7
REMARK    6  A    between atoms: C_7  and  N_8
REMARK                            x       y       z     vdW  Elec       q    Type
REMARK                         _______ _______ _______ _____ _____    ______ ____
ROOT
ATOM      1  C   UNL     1       2.939   6.931  19.222  0.00  0.00    +0.000 C 
ENDROOT
BRANCH   1   2
ATOM      2  N   UNL     1       3.503   5.639  18.765  0.00  0.00    +0.000 N 
ATOM      3  C   UNL     1       2.643   4.501  18.865  0.00  0.00    +0.000 A 
ATOM      4  C   UNL     1       1.491   4.493  19.687  0.00  0.00    +0.000 A 
ATOM      5  C   UNL     1       0.595   3.417  19.724  0.00  0.00    +0.000 A 
ATOM      6  C   UNL     1       0.837   2.289  18.960  0.00  0.00    +0.000 A 
ATOM      7  C   UNL     1       1.994   2.231  18.194  0.00  0.00    +0.000 A 
ATOM      8  C   UNL     1       2.898   3.312  18.155  0.00  0.00    +0.000 A 
ATOM      9  S   UNL     1       4.340   3.048  17.156  0.00  0.00    +0.000 S 
ATOM     10  C   UNL     1       5.234   4.568  17.356  0.00  0.00    +0.000 A 
ATOM     11  C   UNL     1       6.483   4.605  16.706  0.00  0.00    +0.000 A 
ATOM     12  C   UNL     1       7.265   5.754  16.719  0.00  0.00    +0.000 A 
ATOM     13  C   UNL     1       6.792   6.873  17.380  0.00  0.00    +0.000 A 
ATOM     14 CL   UNL     1       7.727   8.318  17.385  0.00  0.00    +0.000 Cl
ATOM     15  C   UNL     1       5.561   6.839  18.045  0.00  0.00    +0.000 A 
ATOM     16  C   UNL     1       4.743   5.685  18.062  0.00  0.00    +0.000 A 
ENDBRANCH   1   2
BRANCH   1  17
ATOM     17  C   UNL     1       2.045   7.579  18.151  0.00  0.00    +0.000 C 
BRANCH  17  18
ATOM     18  C   UNL     1       2.375   9.059  17.936  0.00  0.00    +0.000 C 
BRANCH  18  19
ATOM     19  N   UNL     1       1.157   9.850  17.733  0.00  0.00    +0.000 NA
ATOM     20  H   UNL     1       1.412  10.811  17.467  0.00  0.00    +0.000 HD
BRANCH  19  23
ATOM     21  O   UNL     1       1.530  11.946  19.449  0.00  0.00    +0.000 OA
ATOM     22  C   UNL     1       0.674  11.110  19.717  0.00  0.00    +0.000 C 
ATOM     23  N   UNL     1       0.439   9.983  18.936  0.00  0.00    +0.000 N 
ATOM     24  H   UNL     1      -0.442   9.484  19.025  0.00  0.00    +0.000 HD
BRANCH  22  25
ATOM     25  C   UNL     1      -0.206  11.262  20.907  0.00  0.00    +0.000 A 
ATOM     26  C   UNL     1      -0.021  10.405  21.998  0.00  0.00    +0.000 A 
ATOM     27  C   UNL     1      -0.853  10.516  23.111  0.00  0.00    +0.000 A 
ATOM     28  C   UNL     1      -1.871  11.471  23.131  0.00  0.00    +0.000 A 
ATOM     29  C   UNL     1      -2.062  12.318  22.039  0.00  0.00    +0.000 A 
ATOM     30  C   UNL     1      -1.233  12.212  20.923  0.00  0.00    +0.000 A 
ENDBRANCH  22  25
ENDBRANCH  19  23
ENDBRANCH  18  19
ENDBRANCH  17  18
ENDBRANCH   1  17
TORSDOF 6
ENDMDL
MODEL 3
REMARK VINA RESULT:      -8.1      0.447      1.029
REMARK  Name = 
REMARK  6 active torsions:
REMARK  status: ('A' for Active; 'I' for Inactive)
REMARK    1  A    between atoms: C_2  and  C_23
REMARK    2  A    between atoms: N_3  and  N_4
REMARK    3  A    between atoms: N_4  and  C_5
REMARK    4  A    between atoms: C_5  and  C_6
REMARK    5  A    between atoms: C_6  and  C_7
REMARK    6  A    between atoms: C_7  and  N_8
REMARK                            x       y       z     vdW  Elec       q    Type
REMARK                         _______ _______ _______ _____ _____    ______ ____
ROOT
ATOM      1  C   UNL     1       3.138   6.765  19.484  0.00  0.00    +0.000 C 
ENDROOT
BRANCH   1   2
ATOM      2  N   UNL     1       3.588   5.495  18.867  0.00  0.00    +0.000 N 
ATOM      3  C   UNL     1       2.672   4.399  18.932  0.00  0.00    +0.000 A 
ATOM      4  C   UNL     1       1.586   4.373  19.839  0.00  0.00    +0.000 A 
ATOM      5  C   UNL     1       0.632   3.347  19.849  0.00  0.00    +0.000 A 
ATOM      6  C   UNL     1       0.749   2.286  18.969  0.00  0.00    +0.000 A 
ATOM      7  C   UNL     1       1.840   2.241  18.111  0.00  0.00    +0.000 A 
ATOM      8  C   UNL     1       2.802   3.271  18.098  0.00  0.00    +0.000 A 
ATOM      9  S   UNL     1       4.146   3.028  16.968  0.00  0.00    +0.000 S 
ATOM     10  C   UNL     1       5.141   4.473  17.232  0.00  0.00    +0.000 A 
ATOM     11  C   UNL     1       6.339   4.507  16.490  0.00  0.00    +0.000 A 
ATOM     12  C   UNL     1       7.186   5.607  16.545  0.00  0.00    +0.000 A 
ATOM     13  C   UNL     1       6.832   6.681  17.341  0.00  0.00    +0.000 A 
ATOM     14 CL   UNL     1       7.850   8.068  17.403  0.00  0.00    +0.000 Cl
ATOM     15  C   UNL     1       5.655   6.648  18.097  0.00  0.00    +0.000 A 
ATOM     16  C   UNL     1       4.772   5.542  18.074  0.00  0.00    +0.000 A 
ENDBRANCH   1   2
BRANCH   1  17
ATOM     17  C   UNL     1       2.177   7.540  18.566  0.00  0.00    +0.000 C 
BRANCH  17  18
ATOM     18  C   UNL     1       1.621   8.800  19.237  0.00  0.00    +0.000 C 
BRANCH  18  19
ATOM     19  N   UNL     1       1.500   9.902  18.277  0.00  0.00    +0.000 NA
ATOM     20  H   UNL     1       1.617  10.800  18.768  0.00  0.00    +0.000 HD
BRANCH  19  23
ATOM     21  O   UNL     1      -0.585  11.139  19.541  0.00  0.00    +0.000 OA
ATOM     22  C   UNL     1      -0.776  10.643  18.435  0.00  0.00    +0.000 C 
ATOM     23  N   UNL     1       0.205   9.952  17.731  0.00  0.00    +0.000 N 
ATOM     24  H   UNL     1       0.102   9.814  16.729  0.00  0.00    +0.000 HD
BRANCH  22  25
ATOM     25  C   UNL     1      -2.089  10.774  17.748  0.00  0.00    +0.000 A 
ATOM     26  C   UNL     1      -2.275  10.131  16.519  0.00  0.00    +0.000 A 
ATOM     27  C   UNL     1      -3.490  10.264  15.848  0.00  0.00    +0.000 A 
ATOM     28  C   UNL     1      -4.510  11.043  16.397  0.00  0.00    +0.000 A 
ATOM     29  C   UNL     1      -4.321  11.692  17.616  0.00  0.00    +0.000 A 
ATOM     30  C   UNL     1      -3.109  11.562  18.292  0.00  0.00    +0.000 A 
ENDBRANCH  22  25
ENDBRANCH  19  23
ENDBRANCH  18  19
ENDBRANCH  17  18
ENDBRANCH   1  17
TORSDOF 6
ENDMDL
MODEL 4
REMARK VINA RESULT:      -8.1      1.737      2.430
REMARK  Name = 
REMARK  6 active torsions:
REMARK  status: ('A' for Active; 'I' for Inactive)
REMARK    1  A    between atoms: C_2  and  C_23
REMARK    2  A    between atoms: N_3  and  N_4
REMARK    3  A    between atoms: N_4  and  C_5
REMARK    4  A    between atoms: C_5  and  C_6
REMARK    5  A    between atoms: C_6  and  C_7
REMARK    6  A    between atoms: C_7  and  N_8
REMARK                            x       y       z     vdW  Elec       q    Type
REMARK                         _______ _______ _______ _____ _____    ______ ____
ROOT
ATOM      1  C   UNL     1       2.922   6.926  19.113  0.00  0.00    +0.000 C 
ENDROOT
BRANCH   1   2
ATOM      2  N   UNL     1       3.511   5.625  18.721  0.00  0.00    +0.000 N 
ATOM      3  C   UNL     1       2.656   4.484  18.825  0.00  0.00    +0.000 A 
ATOM      4  C   UNL     1       1.473   4.494  19.601  0.00  0.00    +0.000 A 
ATOM      5  C   UNL     1       0.582   3.413  19.638  0.00  0.00    +0.000 A 
ATOM      6  C   UNL     1       0.862   2.262  18.921  0.00  0.00    +0.000 A 
ATOM      7  C   UNL     1       2.048   2.189  18.203  0.00  0.00    +0.000 A 
ATOM      8  C   UNL     1       2.946   3.275  18.164  0.00  0.00    +0.000 A 
ATOM      9  S   UNL     1       4.427   2.989  17.232  0.00  0.00    +0.000 S 
ATOM     10  C   UNL     1       5.303   4.521  17.416  0.00  0.00    +0.000 A 
ATOM     11  C   UNL     1       6.577   4.547  16.814  0.00  0.00    +0.000 A 
ATOM     12  C   UNL     1       7.350   5.702  16.820  0.00  0.00    +0.000 A 
ATOM     13  C   UNL     1       6.844   6.838  17.425  0.00  0.00    +0.000 A 
ATOM     14 CL   UNL     1       7.770   8.289  17.419  0.00  0.00    +0.000 Cl
ATOM     15  C   UNL     1       5.589   6.816  18.043  0.00  0.00    +0.000 A 
ATOM     16  C   UNL     1       4.778   5.657  18.065  0.00  0.00    +0.000 A 
ENDBRANCH   1   2
BRANCH   1  17
ATOM     17  C   UNL     1       2.145   7.578  17.956  0.00  0.00    +0.000 C 
BRANCH  17  18
ATOM     18  C   UNL     1       2.333   9.097  17.912  0.00  0.00    +0.000 C 
BRANCH  18  19
ATOM     19  N   UNL     1       1.041   9.790  17.863  0.00  0.00    +0.000 NA
ATOM     20  H   UNL     1       1.164  10.716  17.431  0.00  0.00    +0.000 HD
BRANCH  19  23
ATOM     21  O   UNL     1      -0.606  11.898  18.428  0.00  0.00    +0.000 OA
ATOM     22  C   UNL     1      -0.303  11.128  19.333  0.00  0.00    +0.000 C 
ATOM     23  N   UNL     1       0.565  10.054  19.161  0.00  0.00    +0.000 N 
ATOM     24  H   UNL     1       0.563   9.292  19.834  0.00  0.00    +0.000 HD
BRANCH  22  25
ATOM     25  C   UNL     1      -0.877  11.278  20.697  0.00  0.00    +0.000 A 
ATOM     26  C   UNL     1      -1.811  12.295  20.929  0.00  0.00    +0.000 A 
ATOM     27  C   UNL     1      -2.340  12.467  22.207  0.00  0.00    +0.000 A 
ATOM     28  C   UNL     1      -1.931  11.635  23.251  0.00  0.00    +0.000 A 
ATOM     29  C   UNL     1      -0.993  10.630  23.023  0.00  0.00    +0.000 A 
ATOM     30  C   UNL     1      -0.461  10.451  21.746  0.00  0.00    +0.000 A 
ENDBRANCH  22  25
ENDBRANCH  19  23
ENDBRANCH  18  19
ENDBRANCH  17  18
ENDBRANCH   1  17
TORSDOF 6
ENDMDL
MODEL 5
REMARK VINA RESULT:      -8.0      1.017      1.460
REMARK  Name = 
REMARK  6 active torsions:
REMARK  status: ('A' for Active; 'I' for Inactive)
REMARK    1  A    between atoms: C_2  and  C_23
REMARK    2  A    between atoms: N_3  and  N_4
REMARK    3  A    between atoms: N_4  and  C_5
REMARK    4  A    between atoms: C_5  and  C_6
REMARK    5  A    between atoms: C_6  and  C_7
REMARK    6  A    between atoms: C_7  and  N_8
REMARK                            x       y       z     vdW  Elec       q    Type
REMARK                         _______ _______ _______ _____ _____    ______ ____
ROOT
ATOM      1  C   UNL     1       2.987   6.910  19.301  0.00  0.00    +0.000 C 
ENDROOT
BRANCH   1   2
ATOM      2  N   UNL     1       3.512   5.623  18.788  0.00  0.00    +0.000 N 
ATOM      3  C   UNL     1       2.633   4.499  18.877  0.00  0.00    +0.000 A 
ATOM      4  C   UNL     1       1.505   4.487  19.731  0.00  0.00    +0.000 A 
ATOM      5  C   UNL     1       0.588   3.427  19.758  0.00  0.00    +0.000 A 
ATOM      6  C   UNL     1       0.786   2.320  18.953  0.00  0.00    +0.000 A 
ATOM      7  C   UNL     1       1.920   2.265  18.153  0.00  0.00    +0.000 A 
ATOM      8  C   UNL     1       2.845   3.329  18.122  0.00  0.00    +0.000 A 
ATOM      9  S   UNL     1       4.252   3.069  17.076  0.00  0.00    +0.000 S 
ATOM     10  C   UNL     1       5.182   4.564  17.297  0.00  0.00    +0.000 A 
ATOM     11  C   UNL     1       6.413   4.598  16.614  0.00  0.00    +0.000 A 
ATOM     12  C   UNL     1       7.218   5.731  16.640  0.00  0.00    +0.000 A 
ATOM     13  C   UNL     1       6.786   6.837  17.349  0.00  0.00    +0.000 A 
ATOM     14 CL   UNL     1       7.750   8.263  17.374  0.00  0.00    +0.000 Cl
ATOM     15  C   UNL     1       5.574   6.805  18.048  0.00  0.00    +0.000 A 
ATOM     16  C   UNL     1       4.733   5.667  18.052  0.00  0.00    +0.000 A 
ENDBRANCH   1   2
BRANCH   1  17
ATOM     17  C   UNL     1       2.295   7.729  18.199  0.00  0.00    +0.000 C 
BRANCH  17  18
ATOM     18  C   UNL     1       1.569   8.957  18.756  0.00  0.00    +0.000 C 
BRANCH  18  19
ATOM     19  N   UNL     1       0.829   9.658  17.702  0.00  0.00    +0.000 NA
ATOM     20  H   UNL     1       1.467  10.285  17.192  0.00  0.00    +0.000 HD
BRANCH  19  23
ATOM     21  O   UNL     1      -1.767   9.670  16.841  0.00  0.00    +0.000 OA
ATOM     22  C   UNL     1      -1.451  10.402  17.773  0.00  0.00    +0.000 C 
ATOM     23  N   UNL     1      -0.150  10.505  18.254  0.00  0.00    +0.000 N 
ATOM     24  H   UNL     1       0.015  10.885  19.183  0.00  0.00    +0.000 HD
BRANCH  22  25
ATOM     25  C   UNL     1      -2.466  11.226  18.483  0.00  0.00    +0.000 A 
ATOM     26  C   UNL     1      -2.065  11.990  19.585  0.00  0.00    +0.000 A 
ATOM     27  C   UNL     1      -3.007  12.748  20.279  0.00  0.00    +0.000 A 
ATOM     28  C   UNL     1      -4.345  12.735  19.881  0.00  0.00    +0.000 A 
ATOM     29  C   UNL     1      -4.747  11.966  18.790  0.00  0.00    +0.000 A 
ATOM     30  C   UNL     1      -3.809  11.206  18.091  0.00  0.00    +0.000 A 
ENDBRANCH  22  25
ENDBRANCH  19  23
ENDBRANCH  18  19
ENDBRANCH  17  18
ENDBRANCH   1  17
TORSDOF 6
ENDMDL
MODEL 6
REMARK VINA RESULT:      -7.9      4.103      8.023
REMARK  Name = 
REMARK  6 active torsions:
REMARK  status: ('A' for Active; 'I' for Inactive)
REMARK    1  A    between atoms: C_2  and  C_23
REMARK    2  A    between atoms: N_3  and  N_4
REMARK    3  A    between atoms: N_4  and  C_5
REMARK    4  A    between atoms: C_5  and  C_6
REMARK    5  A    between atoms: C_6  and  C_7
REMARK    6  A    between atoms: C_7  and  N_8
REMARK                            x       y       z     vdW  Elec       q    Type
REMARK                         _______ _______ _______ _____ _____    ______ ____
ROOT
ATOM      1  C   UNL     1       4.309   5.970  16.848  0.00  0.00    +0.000 C 
ENDROOT
BRANCH   1   2
ATOM      2  N   UNL     1       3.396   5.627  17.963  0.00  0.00    +0.000 N 
ATOM      3  C   UNL     1       3.436   4.273  18.422  0.00  0.00    +0.000 A 
ATOM      4  C   UNL     1       3.997   3.229  17.649  0.00  0.00    +0.000 A 
ATOM      5  C   UNL     1       4.122   1.917  18.126  0.00  0.00    +0.000 A 
ATOM      6  C   UNL     1       3.658   1.594  19.389  0.00  0.00    +0.000 A 
ATOM      7  C   UNL     1       3.039   2.576  20.150  0.00  0.00    +0.000 A 
ATOM      8  C   UNL     1       2.911   3.897  19.673  0.00  0.00    +0.000 A 
ATOM      9  S   UNL     1       2.058   5.007  20.761  0.00  0.00    +0.000 S 
ATOM     10  C   UNL     1       2.069   6.529  19.849  0.00  0.00    +0.000 A 
ATOM     11  C   UNL     1       1.382   7.592  20.468  0.00  0.00    +0.000 A 
ATOM     12  C   UNL     1       1.362   8.861  19.903  0.00  0.00    +0.000 A 
ATOM     13  C   UNL     1       2.039   9.070  18.715  0.00  0.00    +0.000 A 
ATOM     14 CL   UNL     1       2.056  10.640  18.009  0.00  0.00    +0.000 Cl
ATOM     15  C   UNL     1       2.707   8.016  18.082  0.00  0.00    +0.000 A 
ATOM     16  C   UNL     1       2.741   6.709  18.622  0.00  0.00    +0.000 A 
ENDBRANCH   1   2
BRANCH   1  17
ATOM     17  C   UNL     1       5.623   6.592  17.352  0.00  0.00    +0.000 C 
BRANCH  17  18
ATOM     18  C   UNL     1       6.841   5.724  17.026  0.00  0.00    +0.000 C 
BRANCH  18  19
ATOM     19  N   UNL     1       7.299   5.948  15.650  0.00  0.00    +0.000 NA
ATOM     20  H   UNL     1       6.978   6.872  15.328  0.00  0.00    +0.000 HD
BRANCH  19  23
ATOM     21  O   UNL     1       8.141   5.629  13.069  0.00  0.00    +0.000 OA
ATOM     22  C   UNL     1       7.237   4.913  13.487  0.00  0.00    +0.000 C 
ATOM     23  N   UNL     1       6.705   5.027  14.768  0.00  0.00    +0.000 N 
ATOM     24  H   UNL     1       6.180   4.253  15.165  0.00  0.00    +0.000 HD
BRANCH  22  25
ATOM     25  C   UNL     1       6.656   3.834  12.644  0.00  0.00    +0.000 A 
ATOM     26  C   UNL     1       7.520   3.005  11.918  0.00  0.00    +0.000 A 
ATOM     27  C   UNL     1       6.992   2.005  11.102  0.00  0.00    +0.000 A 
ATOM     28  C   UNL     1       5.609   1.840  11.004  0.00  0.00    +0.000 A 
ATOM     29  C   UNL     1       4.749   2.673  11.718  0.00  0.00    +0.000 A 
ATOM     30  C   UNL     1       5.271   3.674  12.536  0.00  0.00    +0.000 A 
ENDBRANCH  22  25
ENDBRANCH  19  23
ENDBRANCH  18  19
ENDBRANCH  17  18
ENDBRANCH   1  17
TORSDOF 6
ENDMDL
MODEL 7
REMARK VINA RESULT:      -7.9      2.075      2.524
REMARK  Name = 
REMARK  6 active torsions:
REMARK  status: ('A' for Active; 'I' for Inactive)
REMARK    1  A    between atoms: C_2  and  C_23
REMARK    2  A    between atoms: N_3  and  N_4
REMARK    3  A    between atoms: N_4  and  C_5
REMARK    4  A    between atoms: C_5  and  C_6
REMARK    5  A    between atoms: C_6  and  C_7
REMARK    6  A    between atoms: C_7  and  N_8
REMARK                            x       y       z     vdW  Elec       q    Type
REMARK                         _______ _______ _______ _____ _____    ______ ____
ROOT
ATOM      1  C   UNL     1       3.018   6.899  19.212  0.00  0.00    +0.000 C 
ENDROOT
BRANCH   1   2
ATOM      2  N   UNL     1       3.548   5.591  18.760  0.00  0.00    +0.000 N 
ATOM      3  C   UNL     1       2.661   4.475  18.871  0.00  0.00    +0.000 A 
ATOM      4  C   UNL     1       1.513   4.500  19.698  0.00  0.00    +0.000 A 
ATOM      5  C   UNL     1       0.591   3.446  19.745  0.00  0.00    +0.000 A 
ATOM      6  C   UNL     1       0.802   2.308  18.987  0.00  0.00    +0.000 A 
ATOM      7  C   UNL     1       1.954   2.218  18.216  0.00  0.00    +0.000 A 
ATOM      8  C   UNL     1       2.884   3.276  18.166  0.00  0.00    +0.000 A 
ATOM      9  S   UNL     1       4.314   2.971  17.163  0.00  0.00    +0.000 S 
ATOM     10  C   UNL     1       5.245   4.469  17.349  0.00  0.00    +0.000 A 
ATOM     11  C   UNL     1       6.492   4.472  16.693  0.00  0.00    +0.000 A 
ATOM     12  C   UNL     1       7.302   5.602  16.695  0.00  0.00    +0.000 A 
ATOM     13  C   UNL     1       6.859   6.736  17.352  0.00  0.00    +0.000 A 
ATOM     14 CL   UNL     1       7.830   8.157  17.344  0.00  0.00    +0.000 Cl
ATOM     15  C   UNL     1       5.631   6.735  18.023  0.00  0.00    +0.000 A 
ATOM     16  C   UNL     1       4.785   5.602  18.051  0.00  0.00    +0.000 A 
ENDBRANCH   1   2
BRANCH   1  17
ATOM     17  C   UNL     1       2.541   7.764  18.033  0.00  0.00    +0.000 C 
BRANCH  17  18
ATOM     18  C   UNL     1       1.644   8.920  18.485  0.00  0.00    +0.000 C 
BRANCH  18  19
ATOM     19  N   UNL     1       1.356   8.838  19.921  0.00  0.00    +0.000 NA
ATOM     20  H   UNL     1       1.086   7.874  20.162  0.00  0.00    +0.000 HD
BRANCH  19  23
ATOM     21  O   UNL     1       1.085  10.058  22.352  0.00  0.00    +0.000 OA
ATOM     22  C   UNL     1       0.218  10.236  21.504  0.00  0.00    +0.000 C 
ATOM     23  N   UNL     1       0.238   9.624  20.254  0.00  0.00    +0.000 N 
ATOM     24  H   UNL     1      -0.320  10.008  19.496  0.00  0.00    +0.000 HD
BRANCH  22  25
ATOM     25  C   UNL     1      -0.924  11.158  21.749  0.00  0.00    +0.000 A 
ATOM     26  C   UNL     1      -1.438  11.265  23.046  0.00  0.00    +0.000 A 
ATOM     27  C   UNL     1      -2.524  12.105  23.291  0.00  0.00    +0.000 A 
ATOM     28  C   UNL     1      -3.100  12.826  22.243  0.00  0.00    +0.000 A 
ATOM     29  C   UNL     1      -2.594  12.711  20.949  0.00  0.00    +0.000 A 
ATOM     30  C   UNL     1      -1.507  11.874  20.698  0.00  0.00    +0.000 A 
ENDBRANCH  22  25
ENDBRANCH  19  23
ENDBRANCH  18  19
ENDBRANCH  17  18
ENDBRANCH   1  17
TORSDOF 6
ENDMDL
MODEL 8
REMARK VINA RESULT:      -7.7      2.545      3.650
REMARK  Name = 
REMARK  6 active torsions:
REMARK  status: ('A' for Active; 'I' for Inactive)
REMARK    1  A    between atoms: C_2  and  C_23
REMARK    2  A    between atoms: N_3  and  N_4
REMARK    3  A    between atoms: N_4  and  C_5
REMARK    4  A    between atoms: C_5  and  C_6
REMARK    5  A    between atoms: C_6  and  C_7
REMARK    6  A    between atoms: C_7  and  N_8
REMARK                            x       y       z     vdW  Elec       q    Type
REMARK                         _______ _______ _______ _____ _____    ______ ____
ROOT
ATOM      1  C   UNL     1       2.985   6.843  19.283  0.00  0.00    +0.000 C 
ENDROOT
BRANCH   1   2
ATOM      2  N   UNL     1       3.536   5.557  18.796  0.00  0.00    +0.000 N 
ATOM      3  C   UNL     1       2.672   4.421  18.888  0.00  0.00    +0.000 A 
ATOM      4  C   UNL     1       1.531   4.405  19.724  0.00  0.00    +0.000 A 
ATOM      5  C   UNL     1       0.629   3.333  19.754  0.00  0.00    +0.000 A 
ATOM      6  C   UNL     1       0.855   2.217  18.967  0.00  0.00    +0.000 A 
ATOM      7  C   UNL     1       2.002   2.167  18.185  0.00  0.00    +0.000 A 
ATOM      8  C   UNL     1       2.911   3.244  18.153  0.00  0.00    +0.000 A 
ATOM      9  S   UNL     1       4.338   2.990  17.131  0.00  0.00    +0.000 S 
ATOM     10  C   UNL     1       5.243   4.501  17.346  0.00  0.00    +0.000 A 
ATOM     11  C   UNL     1       6.484   4.543  16.680  0.00  0.00    +0.000 A 
ATOM     12  C   UNL     1       7.272   5.687  16.703  0.00  0.00    +0.000 A 
ATOM     13  C   UNL     1       6.814   6.797  17.389  0.00  0.00    +0.000 A 
ATOM     14 CL   UNL     1       7.757   8.237  17.408  0.00  0.00    +0.000 Cl
ATOM     15  C   UNL     1       5.592   6.757  18.070  0.00  0.00    +0.000 A 
ATOM     16  C   UNL     1       4.767   5.608  18.078  0.00  0.00    +0.000 A 
ENDBRANCH   1   2
BRANCH   1  17
ATOM     17  C   UNL     1       2.327   7.651  18.152  0.00  0.00    +0.000 C 
BRANCH  17  18
ATOM     18  C   UNL     1       1.768   8.990  18.643  0.00  0.00    +0.000 C 
BRANCH  18  19
ATOM     19  N   UNL     1       1.667   9.957  17.545  0.00  0.00    +0.000 NA
ATOM     20  H   UNL     1       2.184   9.604  16.728  0.00  0.00    +0.000 HD
BRANCH  19  23
ATOM     21  O   UNL     1       0.389  11.963  18.894  0.00  0.00    +0.000 OA
ATOM     22  C   UNL     1       1.573  12.106  18.608  0.00  0.00    +0.000 C 
ATOM     23  N   UNL     1       2.301  11.167  17.883  0.00  0.00    +0.000 N 
ATOM     24  H   UNL     1       3.317  11.183  17.917  0.00  0.00    +0.000 HD
BRANCH  22  25
ATOM     25  C   UNL     1       2.333  13.306  19.049  0.00  0.00    +0.000 A 
ATOM     26  C   UNL     1       2.856  14.169  18.079  0.00  0.00    +0.000 A 
ATOM     27  C   UNL     1       3.593  15.286  18.473  0.00  0.00    +0.000 A 
ATOM     28  C   UNL     1       3.815  15.533  19.830  0.00  0.00    +0.000 A 
ATOM     29  C   UNL     1       3.303  14.667  20.796  0.00  0.00    +0.000 A 
ATOM     30  C   UNL     1       2.565  13.550  20.407  0.00  0.00    +0.000 A 
ENDBRANCH  22  25
ENDBRANCH  19  23
ENDBRANCH  18  19
ENDBRANCH  17  18
ENDBRANCH   1  17
TORSDOF 6
ENDMDL
MODEL 9
REMARK VINA RESULT:      -7.6      4.073      9.462
REMARK  Name = 
REMARK  6 active torsions:
REMARK  status: ('A' for Active; 'I' for Inactive)
REMARK    1  A    between atoms: C_2  and  C_23
REMARK    2  A    between atoms: N_3  and  N_4
REMARK    3  A    between atoms: N_4  and  C_5
REMARK    4  A    between atoms: C_5  and  C_6
REMARK    5  A    between atoms: C_6  and  C_7
REMARK    6  A    between atoms: C_7  and  N_8
REMARK                            x       y       z     vdW  Elec       q    Type
REMARK                         _______ _______ _______ _____ _____    ______ ____
ROOT
ATOM      1  C   UNL     1      -0.352  11.727  19.187  0.00  0.00    +0.000 C 
ENDROOT
BRANCH   1   2
ATOM      2  N   UNL     1      -1.776  11.827  19.582  0.00  0.00    +0.000 N 
ATOM      3  C   UNL     1      -2.036  12.310  20.903  0.00  0.00    +0.000 A 
ATOM      4  C   UNL     1      -1.042  12.328  21.910  0.00  0.00    +0.000 A 
ATOM      5  C   UNL     1      -1.261  12.882  23.179  0.00  0.00    +0.000 A 
ATOM      6  C   UNL     1      -2.499  13.410  23.498  0.00  0.00    +0.000 A 
ATOM      7  C   UNL     1      -3.520  13.348  22.559  0.00  0.00    +0.000 A 
ATOM      8  C   UNL     1      -3.304  12.791  21.282  0.00  0.00    +0.000 A 
ATOM      9  S   UNL     1      -4.729  12.758  20.228  0.00  0.00    +0.000 S 
ATOM     10  C   UNL     1      -4.104  11.994  18.754  0.00  0.00    +0.000 A 
ATOM     11  C   UNL     1      -5.068  11.778  17.749  0.00  0.00    +0.000 A 
ATOM     12  C   UNL     1      -4.711  11.249  16.514  0.00  0.00    +0.000 A 
ATOM     13  C   UNL     1      -3.383  10.940  16.282  0.00  0.00    +0.000 A 
ATOM     14 CL   UNL     1      -2.911  10.312  14.750  0.00  0.00    +0.000 Cl
ATOM     15  C   UNL     1      -2.422  11.132  17.281  0.00  0.00    +0.000 A 
ATOM     16  C   UNL     1      -2.749  11.659  18.553  0.00  0.00    +0.000 A 
ENDBRANCH   1   2
BRANCH   1  17
ATOM     17  C   UNL     1       0.225  10.329  19.467  0.00  0.00    +0.000 C 
BRANCH  17  18
ATOM     18  C   UNL     1       0.679   9.620  18.187  0.00  0.00    +0.000 C 
BRANCH  18  19
ATOM     19  N   UNL     1       2.141   9.631  18.065  0.00  0.00    +0.000 NA
ATOM     20  H   UNL     1       2.418  10.278  17.314  0.00  0.00    +0.000 HD
BRANCH  19  23
ATOM     21  O   UNL     1       2.238   7.477  19.746  0.00  0.00    +0.000 OA
ATOM     22  C   UNL     1       2.587   7.330  18.580  0.00  0.00    +0.000 C 
ATOM     23  N   UNL     1       2.619   8.372  17.658  0.00  0.00    +0.000 N 
ATOM     24  H   UNL     1       2.632   8.164  16.663  0.00  0.00    +0.000 HD
BRANCH  22  25
ATOM     25  C   UNL     1       2.981   5.995  18.055  0.00  0.00    +0.000 A 
ATOM     26  C   UNL     1       4.224   5.857  17.427  0.00  0.00    +0.000 A 
ATOM     27  C   UNL     1       4.600   4.619  16.905  0.00  0.00    +0.000 A 
ATOM     28  C   UNL     1       3.734   3.528  17.002  0.00  0.00    +0.000 A 
ATOM     29  C   UNL     1       2.491   3.669  17.618  0.00  0.00    +0.000 A 
ATOM     30  C   UNL     1       2.111   4.904  18.142  0.00  0.00    +0.000 A 
ENDBRANCH  22  25
ENDBRANCH  19  23
ENDBRANCH  18  19
ENDBRANCH  17  18
ENDBRANCH   1  17
TORSDOF 6
ENDMDL
