MODEL 1
REMARK VINA RESULT:      -8.3      0.000      0.000
REMARK  Name = 
REMARK  8 active torsions:
REMARK  status: ('A' for Active; 'I' for Inactive)
REMARK    1  A    between atoms: C_1  and  C_2
REMARK    2  A    between atoms: C_5  and  C_6
REMARK    3  A    between atoms: C_12  and  C_13
REMARK    4  A    between atoms: C_15  and  C_16
REMARK    5  A    between atoms: C_16  and  C_17
REMARK    6  A    between atoms: C_16  and  C_18
REMARK    7  A    between atoms: C_16  and  C_19
REMARK    8  A    between atoms: N_22  and  C_23
REMARK                            x       y       z     vdW  Elec       q    Type
REMARK                         _______ _______ _______ _____ _____    ______ ____
ROOT
ATOM      1  C   UNL     1       3.837   4.580  18.718  0.00  0.00    +0.000 C 
ATOM      2  C   UNL     1       4.185   3.171  19.279  0.00  0.00    +0.000 C 
ATOM      3  C   UNL     1       2.913   2.403  19.732  0.00  0.00    +0.000 C 
ATOM      4  C   UNL     1       2.519   2.658  21.203  0.00  0.00    +0.000 C 
ATOM      5  C   UNL     1       1.409   3.713  21.150  0.00  0.00    +0.000 C 
ATOM      6  C   UNL     1       1.516   4.241  19.719  0.00  0.00    +0.000 C 
ATOM      7  C   UNL     1       2.762   5.207  19.645  0.00  0.00    +0.000 C 
ATOM      8  N   UNL     1       1.805   2.989  18.960  0.00  0.00    +0.000 NA
ATOM      9  C   UNL     1       0.680   2.075  18.794  0.00  0.00    +0.000 C 
ENDROOT
BRANCH   1  14
ATOM     10  C   UNL     1       8.360   8.086  17.557  0.00  0.00    +0.000 C 
ATOM     11  C   UNL     1       7.211   7.168  17.850  0.00  0.00    +0.000 A 
ATOM     12  C   UNL     1       6.054   7.204  17.069  0.00  0.00    +0.000 A 
ATOM     13  C   UNL     1       4.990   6.350  17.353  0.00  0.00    +0.000 A 
ATOM     14  C   UNL     1       5.052   5.443  18.427  0.00  0.00    +0.000 A 
ATOM     15  C   UNL     1       6.210   5.411  19.209  0.00  0.00    +0.000 A 
ATOM     16  C   UNL     1       7.279   6.267  18.922  0.00  0.00    +0.000 A 
ENDBRANCH   1  14
BRANCH   7  17
ATOM     17  C   UNL     1       2.415   6.605  19.264  0.00  0.00    +0.000 A 
ATOM     18  C   UNL     1       2.086   7.749  19.943  0.00  0.00    +0.000 A 
ATOM     19  C   UNL     1       1.635   8.643  18.936  0.00  0.00    +0.000 A 
ATOM     20  N   UNL     1       1.792   8.103  17.720  0.00  0.00    +0.000 NA
ATOM     21  O   UNL     1       2.266   6.827  17.929  0.00  0.00    +0.000 OA
BRANCH  19  22
ATOM     22  C   UNL     1       1.031  10.020  19.123  0.00  0.00    +0.000 C 
ATOM     23  C   UNL     1       0.864  10.303  20.627  0.00  0.00    +0.000 C 
ATOM     24  C   UNL     1       1.902  11.140  18.512  0.00  0.00    +0.000 C 
ATOM     25  C   UNL     1      -0.351  10.081  18.437  0.00  0.00    +0.000 C 
ENDBRANCH  19  22
ENDBRANCH   7  17
TORSDOF 3
ENDMDL
MODEL 2
REMARK VINA RESULT:      -8.1      0.209      1.330
REMARK  Name = 
REMARK  8 active torsions:
REMARK  status: ('A' for Active; 'I' for Inactive)
REMARK    1  A    between atoms: C_1  and  C_2
REMARK    2  A    between atoms: C_5  and  C_6
REMARK    3  A    between atoms: C_12  and  C_13
REMARK    4  A    between atoms: C_15  and  C_16
REMARK    5  A    between atoms: C_16  and  C_17
REMARK    6  A    between atoms: C_16  and  C_18
REMARK    7  A    between atoms: C_16  and  C_19
REMARK    8  A    between atoms: N_22  and  C_23
REMARK                            x       y       z     vdW  Elec       q    Type
REMARK                         _______ _______ _______ _____ _____    ______ ____
ROOT
ATOM      1  C   UNL     1       3.777   4.713  18.675  0.00  0.00    +0.000 C 
ATOM      2  C   UNL     1       4.180   3.291  19.162  0.00  0.00    +0.000 C 
ATOM      3  C   UNL     1       2.944   2.476  19.635  0.00  0.00    +0.000 C 
ATOM      4  C   UNL     1       2.607   2.661  21.130  0.00  0.00    +0.000 C 
ATOM      5  C   UNL     1       1.474   3.692  21.167  0.00  0.00    +0.000 C 
ATOM      6  C   UNL     1       1.508   4.279  19.756  0.00  0.00    +0.000 C 
ATOM      7  C   UNL     1       2.729   5.277  19.670  0.00  0.00    +0.000 C 
ATOM      8  N   UNL     1       1.792   3.066  18.934  0.00  0.00    +0.000 NA
ATOM      9  C   UNL     1       0.682   2.133  18.778  0.00  0.00    +0.000 C 
ENDROOT
BRANCH   1  14
ATOM     10  C   UNL     1       8.473   7.989  17.528  0.00  0.00    +0.000 C 
ATOM     11  C   UNL     1       7.256   7.166  17.829  0.00  0.00    +0.000 A 
ATOM     12  C   UNL     1       7.267   6.232  18.866  0.00  0.00    +0.000 A 
ATOM     13  C   UNL     1       6.132   5.469  19.133  0.00  0.00    +0.000 A 
ATOM     14  C   UNL     1       4.960   5.615  18.369  0.00  0.00    +0.000 A 
ATOM     15  C   UNL     1       4.952   6.549  17.329  0.00  0.00    +0.000 A 
ATOM     16  C   UNL     1       6.091   7.317  17.062  0.00  0.00    +0.000 A 
ENDBRANCH   1  14
BRANCH   7  17
ATOM     17  C   UNL     1       2.336   6.680  19.362  0.00  0.00    +0.000 A 
ATOM     18  C   UNL     1       1.980   7.778  20.100  0.00  0.00    +0.000 A 
ATOM     19  C   UNL     1       1.491   8.707  19.143  0.00  0.00    +0.000 A 
ATOM     20  N   UNL     1       1.652   8.233  17.900  0.00  0.00    +0.000 NA
ATOM     21  O   UNL     1       2.167   6.963  18.041  0.00  0.00    +0.000 OA
BRANCH  19  22
ATOM     22  C   UNL     1       0.847  10.053  19.403  0.00  0.00    +0.000 C 
ATOM     23  C   UNL     1       1.639  11.148  18.664  0.00  0.00    +0.000 C 
ATOM     24  C   UNL     1      -0.621  10.113  18.928  0.00  0.00    +0.000 C 
ATOM     25  C   UNL     1       0.857  10.353  20.918  0.00  0.00    +0.000 C 
ENDBRANCH  19  22
ENDBRANCH   7  17
TORSDOF 3
ENDMDL
MODEL 3
REMARK VINA RESULT:      -7.4      3.406      5.663
REMARK  Name = 
REMARK  8 active torsions:
REMARK  status: ('A' for Active; 'I' for Inactive)
REMARK    1  A    between atoms: C_1  and  C_2
REMARK    2  A    between atoms: C_5  and  C_6
REMARK    3  A    between atoms: C_12  and  C_13
REMARK    4  A    between atoms: C_15  and  C_16
REMARK    5  A    between atoms: C_16  and  C_17
REMARK    6  A    between atoms: C_16  and  C_18
REMARK    7  A    between atoms: C_16  and  C_19
REMARK    8  A    between atoms: N_22  and  C_23
REMARK                            x       y       z     vdW  Elec       q    Type
REMARK                         _______ _______ _______ _____ _____    ______ ____
ROOT
ATOM      1  C   UNL     1       5.120   4.765  18.347  0.00  0.00    +0.000 C 
ATOM      2  C   UNL     1       4.164   4.936  19.563  0.00  0.00    +0.000 C 
ATOM      3  C   UNL     1       3.068   3.836  19.591  0.00  0.00    +0.000 C 
ATOM      4  C   UNL     1       1.791   4.205  18.805  0.00  0.00    +0.000 C 
ATOM      5  C   UNL     1       1.931   3.506  17.449  0.00  0.00    +0.000 C 
ATOM      6  C   UNL     1       3.408   3.114  17.425  0.00  0.00    +0.000 C 
ATOM      7  C   UNL     1       4.254   4.410  17.110  0.00  0.00    +0.000 C 
ATOM      8  N   UNL     1       3.631   2.701  18.842  0.00  0.00    +0.000 NA
ATOM      9  C   UNL     1       3.050   1.419  19.226  0.00  0.00    +0.000 C 
ENDROOT
BRANCH   1  14
ATOM     10  C   UNL     1       8.702   9.330  17.696  0.00  0.00    +0.000 C 
ATOM     11  C   UNL     1       7.796   8.145  17.852  0.00  0.00    +0.000 A 
ATOM     12  C   UNL     1       6.537   8.128  17.249  0.00  0.00    +0.000 A 
ATOM     13  C   UNL     1       5.702   7.024  17.405  0.00  0.00    +0.000 A 
ATOM     14  C   UNL     1       6.099   5.911  18.170  0.00  0.00    +0.000 A 
ATOM     15  C   UNL     1       7.360   5.932  18.774  0.00  0.00    +0.000 A 
ATOM     16  C   UNL     1       8.200   7.041  18.615  0.00  0.00    +0.000 A 
ENDBRANCH   1  14
BRANCH   7  17
ATOM     17  C   UNL     1       5.051   4.315  15.855  0.00  0.00    +0.000 A 
ATOM     18  C   UNL     1       4.779   4.416  14.516  0.00  0.00    +0.000 A 
ATOM     19  C   UNL     1       5.966   3.968  13.877  0.00  0.00    +0.000 A 
ATOM     20  N   UNL     1       6.925   3.723  14.780  0.00  0.00    +0.000 NA
ATOM     21  O   UNL     1       6.347   3.927  16.013  0.00  0.00    +0.000 OA
BRANCH  19  22
ATOM     22  C   UNL     1       6.195   3.751  12.395  0.00  0.00    +0.000 C 
ATOM     23  C   UNL     1       7.248   4.755  11.890  0.00  0.00    +0.000 C 
ATOM     24  C   UNL     1       6.692   2.324  12.072  0.00  0.00    +0.000 C 
ATOM     25  C   UNL     1       4.875   3.967  11.625  0.00  0.00    +0.000 C 
ENDBRANCH  19  22
ENDBRANCH   7  17
TORSDOF 3
ENDMDL
MODEL 4
REMARK VINA RESULT:      -7.1      6.287     10.770
REMARK  Name = 
REMARK  8 active torsions:
REMARK  status: ('A' for Active; 'I' for Inactive)
REMARK    1  A    between atoms: C_1  and  C_2
REMARK    2  A    between atoms: C_5  and  C_6
REMARK    3  A    between atoms: C_12  and  C_13
REMARK    4  A    between atoms: C_15  and  C_16
REMARK    5  A    between atoms: C_16  and  C_17
REMARK    6  A    between atoms: C_16  and  C_18
REMARK    7  A    between atoms: C_16  and  C_19
REMARK    8  A    between atoms: N_22  and  C_23
REMARK                            x       y       z     vdW  Elec       q    Type
REMARK                         _______ _______ _______ _____ _____    ______ ____
ROOT
ATOM      1  C   UNL     1      -2.090  13.384  23.036  0.00  0.00    +0.000 C 
ATOM      2  C   UNL     1      -1.121  14.460  23.605  0.00  0.00    +0.000 C 
ATOM      3  C   UNL     1      -1.861  15.789  23.920  0.00  0.00    +0.000 C 
ATOM      4  C   UNL     1      -1.916  16.773  22.731  0.00  0.00    +0.000 C 
ATOM      5  C   UNL     1      -3.304  16.582  22.109  0.00  0.00    +0.000 C 
ATOM      6  C   UNL     1      -3.778  15.273  22.742  0.00  0.00    +0.000 C 
ATOM      7  C   UNL     1      -3.031  14.083  22.021  0.00  0.00    +0.000 C 
ATOM      8  N   UNL     1      -3.268  15.414  24.137  0.00  0.00    +0.000 NA
ATOM      9  C   UNL     1      -3.987  16.361  24.981  0.00  0.00    +0.000 C 
ENDROOT
BRANCH   1  14
ATOM     10  C   UNL     1       0.787   8.691  21.089  0.00  0.00    +0.000 C 
ATOM     11  C   UNL     1       0.029   9.886  21.585  0.00  0.00    +0.000 A 
ATOM     12  C   UNL     1       0.064  11.092  20.884  0.00  0.00    +0.000 A 
ATOM     13  C   UNL     1      -0.641  12.197  21.357  0.00  0.00    +0.000 A 
ATOM     14  C   UNL     1      -1.392  12.128  22.545  0.00  0.00    +0.000 A 
ATOM     15  C   UNL     1      -1.423  10.919  23.246  0.00  0.00    +0.000 A 
ATOM     16  C   UNL     1      -0.717   9.809  22.769  0.00  0.00    +0.000 A 
ENDBRANCH   1  14
BRANCH   7  17
ATOM     17  C   UNL     1      -3.948  13.130  21.333  0.00  0.00    +0.000 A 
ATOM     18  C   UNL     1      -4.137  12.721  20.039  0.00  0.00    +0.000 A 
ATOM     19  C   UNL     1      -5.350  11.981  20.074  0.00  0.00    +0.000 A 
ATOM     20  N   UNL     1      -5.795  11.863  21.332  0.00  0.00    +0.000 NA
ATOM     21  O   UNL     1      -4.926  12.593  22.113  0.00  0.00    +0.000 OA
BRANCH  19  22
ATOM     22  C   UNL     1      -6.109  11.392  18.904  0.00  0.00    +0.000 C 
ATOM     23  C   UNL     1      -5.131  11.121  17.746  0.00  0.00    +0.000 C 
ATOM     24  C   UNL     1      -6.817  10.066  19.260  0.00  0.00    +0.000 C 
ATOM     25  C   UNL     1      -7.194  12.384  18.432  0.00  0.00    +0.000 C 
ENDBRANCH  19  22
ENDBRANCH   7  17
TORSDOF 3
ENDMDL
MODEL 5
REMARK VINA RESULT:      -7.1      3.456      5.770
REMARK  Name = 
REMARK  8 active torsions:
REMARK  status: ('A' for Active; 'I' for Inactive)
REMARK    1  A    between atoms: C_1  and  C_2
REMARK    2  A    between atoms: C_5  and  C_6
REMARK    3  A    between atoms: C_12  and  C_13
REMARK    4  A    between atoms: C_15  and  C_16
REMARK    5  A    between atoms: C_16  and  C_17
REMARK    6  A    between atoms: C_16  and  C_18
REMARK    7  A    between atoms: C_16  and  C_19
REMARK    8  A    between atoms: N_22  and  C_23
REMARK                            x       y       z     vdW  Elec       q    Type
REMARK                         _______ _______ _______ _____ _____    ______ ____
ROOT
ATOM      1  C   UNL     1       5.207   4.601  18.359  0.00  0.00    +0.000 C 
ATOM      2  C   UNL     1       4.268   4.644  19.599  0.00  0.00    +0.000 C 
ATOM      3  C   UNL     1       3.303   3.427  19.630  0.00  0.00    +0.000 C 
ATOM      4  C   UNL     1       1.974   3.663  18.880  0.00  0.00    +0.000 C 
ATOM      5  C   UNL     1       2.159   3.006  17.508  0.00  0.00    +0.000 C 
ATOM      6  C   UNL     1       3.670   2.783  17.445  0.00  0.00    +0.000 C 
ATOM      7  C   UNL     1       4.357   4.170  17.135  0.00  0.00    +0.000 C 
ATOM      8  N   UNL     1       3.972   2.375  18.849  0.00  0.00    +0.000 NA
ATOM      9  C   UNL     1       3.547   1.030  19.222  0.00  0.00    +0.000 C 
ENDROOT
BRANCH   1  14
ATOM     10  C   UNL     1       8.635   9.274  17.643  0.00  0.00    +0.000 C 
ATOM     11  C   UNL     1       7.740   8.086  17.838  0.00  0.00    +0.000 A 
ATOM     12  C   UNL     1       8.159   6.999  18.607  0.00  0.00    +0.000 A 
ATOM     13  C   UNL     1       7.321   5.898  18.777  0.00  0.00    +0.000 A 
ATOM     14  C   UNL     1       6.047   5.853  18.182  0.00  0.00    +0.000 A 
ATOM     15  C   UNL     1       5.632   6.942  17.410  0.00  0.00    +0.000 A 
ATOM     16  C   UNL     1       6.472   8.048  17.241  0.00  0.00    +0.000 A 
ENDBRANCH   1  14
BRANCH   7  17
ATOM     17  C   UNL     1       5.130   4.186  15.862  0.00  0.00    +0.000 A 
ATOM     18  C   UNL     1       4.815   4.251  14.530  0.00  0.00    +0.000 A 
ATOM     19  C   UNL     1       6.036   3.968  13.861  0.00  0.00    +0.000 A 
ATOM     20  N   UNL     1       7.040   3.852  14.740  0.00  0.00    +0.000 NA
ATOM     21  O   UNL     1       6.470   3.974  15.988  0.00  0.00    +0.000 OA
BRANCH  19  22
ATOM     22  C   UNL     1       6.257   3.786  12.374  0.00  0.00    +0.000 C 
ATOM     23  C   UNL     1       7.250   4.851  11.872  0.00  0.00    +0.000 C 
ATOM     24  C   UNL     1       6.823   2.393  12.021  0.00  0.00    +0.000 C 
ATOM     25  C   UNL     1       4.917   3.946  11.623  0.00  0.00    +0.000 C 
ENDBRANCH  19  22
ENDBRANCH   7  17
TORSDOF 3
ENDMDL
MODEL 6
REMARK VINA RESULT:      -7.0      5.585      9.665
REMARK  Name = 
REMARK  8 active torsions:
REMARK  status: ('A' for Active; 'I' for Inactive)
REMARK    1  A    between atoms: C_1  and  C_2
REMARK    2  A    between atoms: C_5  and  C_6
REMARK    3  A    between atoms: C_12  and  C_13
REMARK    4  A    between atoms: C_15  and  C_16
REMARK    5  A    between atoms: C_16  and  C_17
REMARK    6  A    between atoms: C_16  and  C_18
REMARK    7  A    between atoms: C_16  and  C_19
REMARK    8  A    between atoms: N_22  and  C_23
REMARK                            x       y       z     vdW  Elec       q    Type
REMARK                         _______ _______ _______ _____ _____    ______ ____
ROOT
ATOM      1  C   UNL     1      -2.012  12.620  22.133  0.00  0.00    +0.000 C 
ATOM      2  C   UNL     1      -3.177  12.316  23.118  0.00  0.00    +0.000 C 
ATOM      3  C   UNL     1      -3.925  13.611  23.539  0.00  0.00    +0.000 C 
ATOM      4  C   UNL     1      -3.331  14.299  24.788  0.00  0.00    +0.000 C 
ATOM      5  C   UNL     1      -2.450  15.430  24.247  0.00  0.00    +0.000 C 
ATOM      6  C   UNL     1      -2.314  15.072  22.767  0.00  0.00    +0.000 C 
ATOM      7  C   UNL     1      -1.277  13.887  22.644  0.00  0.00    +0.000 C 
ATOM      8  N   UNL     1      -3.685  14.574  22.453  0.00  0.00    +0.000 NA
ATOM      9  C   UNL     1      -4.722  15.595  22.357  0.00  0.00    +0.000 C 
ENDROOT
BRANCH   1  14
ATOM     10  C   UNL     1       1.231   7.870  21.124  0.00  0.00    +0.000 C 
ATOM     11  C   UNL     1       0.415   9.103  21.375  0.00  0.00    +0.000 A 
ATOM     12  C   UNL     1       0.070   9.475  22.676  0.00  0.00    +0.000 A 
ATOM     13  C   UNL     1      -0.693  10.619  22.897  0.00  0.00    +0.000 A 
ATOM     14  C   UNL     1      -1.136  11.419  21.827  0.00  0.00    +0.000 A 
ATOM     15  C   UNL     1      -0.791  11.042  20.526  0.00  0.00    +0.000 A 
ATOM     16  C   UNL     1      -0.023   9.894  20.303  0.00  0.00    +0.000 A 
ENDBRANCH   1  14
BRANCH   7  17
ATOM     17  C   UNL     1      -0.075  14.225  21.831  0.00  0.00    +0.000 A 
ATOM     18  C   UNL     1       0.154  14.568  20.524  0.00  0.00    +0.000 A 
ATOM     19  C   UNL     1       1.566  14.505  20.382  0.00  0.00    +0.000 A 
ATOM     20  N   UNL     1       2.148  14.251  21.562  0.00  0.00    +0.000 NA
ATOM     21  O   UNL     1       1.121  14.063  22.460  0.00  0.00    +0.000 OA
BRANCH  19  22
ATOM     22  C   UNL     1       2.379  14.669  19.115  0.00  0.00    +0.000 C 
ATOM     23  C   UNL     1       1.941  15.957  18.393  0.00  0.00    +0.000 C 
ATOM     24  C   UNL     1       3.897  14.758  19.387  0.00  0.00    +0.000 C 
ATOM     25  C   UNL     1       2.145  13.459  18.183  0.00  0.00    +0.000 C 
ENDBRANCH  19  22
ENDBRANCH   7  17
TORSDOF 3
ENDMDL
MODEL 7
REMARK VINA RESULT:      -6.9      6.434     10.937
REMARK  Name = 
REMARK  8 active torsions:
REMARK  status: ('A' for Active; 'I' for Inactive)
REMARK    1  A    between atoms: C_1  and  C_2
REMARK    2  A    between atoms: C_5  and  C_6
REMARK    3  A    between atoms: C_12  and  C_13
REMARK    4  A    between atoms: C_15  and  C_16
REMARK    5  A    between atoms: C_16  and  C_17
REMARK    6  A    between atoms: C_16  and  C_18
REMARK    7  A    between atoms: C_16  and  C_19
REMARK    8  A    between atoms: N_22  and  C_23
REMARK                            x       y       z     vdW  Elec       q    Type
REMARK                         _______ _______ _______ _____ _____    ______ ____
ROOT
ATOM      1  C   UNL     1      -2.112  13.573  23.022  0.00  0.00    +0.000 C 
ATOM      2  C   UNL     1      -1.162  14.690  23.545  0.00  0.00    +0.000 C 
ATOM      3  C   UNL     1      -1.940  15.993  23.881  0.00  0.00    +0.000 C 
ATOM      4  C   UNL     1      -2.080  16.964  22.688  0.00  0.00    +0.000 C 
ATOM      5  C   UNL     1      -3.483  16.715  22.124  0.00  0.00    +0.000 C 
ATOM      6  C   UNL     1      -3.881  15.395  22.784  0.00  0.00    +0.000 C 
ATOM      7  C   UNL     1      -3.119  14.228  22.041  0.00  0.00    +0.000 C 
ATOM      8  N   UNL     1      -3.321  15.566  24.157  0.00  0.00    +0.000 NA
ATOM      9  C   UNL     1      -4.042  16.492  25.023  0.00  0.00    +0.000 C 
ENDROOT
BRANCH   1  14
ATOM     10  C   UNL     1       0.486   8.699  21.127  0.00  0.00    +0.000 C 
ATOM     11  C   UNL     1      -0.161   9.961  21.616  0.00  0.00    +0.000 A 
ATOM     12  C   UNL     1      -0.839   9.986  22.836  0.00  0.00    +0.000 A 
ATOM     13  C   UNL     1      -1.441  11.162  23.278  0.00  0.00    +0.000 A 
ATOM     14  C   UNL     1      -1.387  12.341  22.511  0.00  0.00    +0.000 A 
ATOM     15  C   UNL     1      -0.710  12.312  21.288  0.00  0.00    +0.000 A 
ATOM     16  C   UNL     1      -0.103  11.131  20.846  0.00  0.00    +0.000 A 
ENDBRANCH   1  14
BRANCH   7  17
ATOM     17  C   UNL     1      -4.025  13.236  21.397  0.00  0.00    +0.000 A 
ATOM     18  C   UNL     1      -4.248  12.806  20.115  0.00  0.00    +0.000 A 
ATOM     19  C   UNL     1      -5.430  12.023  20.202  0.00  0.00    +0.000 A 
ATOM     20  N   UNL     1      -5.823  11.903  21.477  0.00  0.00    +0.000 NA
ATOM     21  O   UNL     1      -4.953  12.671  22.219  0.00  0.00    +0.000 OA
BRANCH  19  22
ATOM     22  C   UNL     1      -6.211  11.395  19.067  0.00  0.00    +0.000 C 
ATOM     23  C   UNL     1      -6.964  10.158  19.590  0.00  0.00    +0.000 C 
ATOM     24  C   UNL     1      -7.242  12.362  18.446  0.00  0.00    +0.000 C 
ATOM     25  C   UNL     1      -5.243  10.964  17.943  0.00  0.00    +0.000 C 
ENDBRANCH  19  22
ENDBRANCH   7  17
TORSDOF 3
ENDMDL
MODEL 8
REMARK VINA RESULT:      -6.9      1.041      1.630
REMARK  Name = 
REMARK  8 active torsions:
REMARK  status: ('A' for Active; 'I' for Inactive)
REMARK    1  A    between atoms: C_1  and  C_2
REMARK    2  A    between atoms: C_5  and  C_6
REMARK    3  A    between atoms: C_12  and  C_13
REMARK    4  A    between atoms: C_15  and  C_16
REMARK    5  A    between atoms: C_16  and  C_17
REMARK    6  A    between atoms: C_16  and  C_18
REMARK    7  A    between atoms: C_16  and  C_19
REMARK    8  A    between atoms: N_22  and  C_23
REMARK                            x       y       z     vdW  Elec       q    Type
REMARK                         _______ _______ _______ _____ _____    ______ ____
ROOT
ATOM      1  C   UNL     1       3.477   4.535  18.708  0.00  0.00    +0.000 C 
ATOM      2  C   UNL     1       3.977   3.090  18.997  0.00  0.00    +0.000 C 
ATOM      3  C   UNL     1       2.830   2.181  19.518  0.00  0.00    +0.000 C 
ATOM      4  C   UNL     1       2.663   2.203  21.053  0.00  0.00    +0.000 C 
ATOM      5  C   UNL     1       1.510   3.176  21.323  0.00  0.00    +0.000 C 
ATOM      6  C   UNL     1       1.363   3.901  19.985  0.00  0.00    +0.000 C 
ATOM      7  C   UNL     1       2.535   4.952  19.867  0.00  0.00    +0.000 C 
ATOM      8  N   UNL     1       1.587   2.788  19.016  0.00  0.00    +0.000 NA
ATOM      9  C   UNL     1       0.495   1.830  18.889  0.00  0.00    +0.000 C 
ENDROOT
BRANCH   1  14
ATOM     10  C   UNL     1       7.911   8.109  17.418  0.00  0.00    +0.000 C 
ATOM     11  C   UNL     1       6.760   7.209  17.756  0.00  0.00    +0.000 A 
ATOM     12  C   UNL     1       6.868   6.273  18.786  0.00  0.00    +0.000 A 
ATOM     13  C   UNL     1       5.794   5.438  19.088  0.00  0.00    +0.000 A 
ATOM     14  C   UNL     1       4.588   5.512  18.367  0.00  0.00    +0.000 A 
ATOM     15  C   UNL     1       4.485   6.448  17.334  0.00  0.00    +0.000 A 
ATOM     16  C   UNL     1       5.562   7.289  17.032  0.00  0.00    +0.000 A 
ENDBRANCH   1  14
BRANCH   7  17
ATOM     17  C   UNL     1       2.066   6.362  19.752  0.00  0.00    +0.000 A 
ATOM     18  C   UNL     1       1.758   7.206  18.717  0.00  0.00    +0.000 A 
ATOM     19  C   UNL     1       1.622   8.482  19.328  0.00  0.00    +0.000 A 
ATOM     20  N   UNL     1       1.731   8.382  20.659  0.00  0.00    +0.000 NA
ATOM     21  O   UNL     1       2.022   7.061  20.919  0.00  0.00    +0.000 OA
BRANCH  19  22
ATOM     22  C   UNL     1       1.403   9.816  18.646  0.00  0.00    +0.000 C 
ATOM     23  C   UNL     1       0.093   9.767  17.838  0.00  0.00    +0.000 C 
ATOM     24  C   UNL     1       1.312  10.989  19.647  0.00  0.00    +0.000 C 
ATOM     25  C   UNL     1       2.579  10.114  17.690  0.00  0.00    +0.000 C 
ENDBRANCH  19  22
ENDBRANCH   7  17
TORSDOF 3
ENDMDL
MODEL 9
REMARK VINA RESULT:      -6.9      5.637      9.749
REMARK  Name = 
REMARK  8 active torsions:
REMARK  status: ('A' for Active; 'I' for Inactive)
REMARK    1  A    between atoms: C_1  and  C_2
REMARK    2  A    between atoms: C_5  and  C_6
REMARK    3  A    between atoms: C_12  and  C_13
REMARK    4  A    between atoms: C_15  and  C_16
REMARK    5  A    between atoms: C_16  and  C_17
REMARK    6  A    between atoms: C_16  and  C_18
REMARK    7  A    between atoms: C_16  and  C_19
REMARK    8  A    between atoms: N_22  and  C_23
REMARK                            x       y       z     vdW  Elec       q    Type
REMARK                         _______ _______ _______ _____ _____    ______ ____
ROOT
ATOM      1  C   UNL     1      -2.084  12.700  22.380  0.00  0.00    +0.000 C 
ATOM      2  C   UNL     1      -3.221  12.459  23.415  0.00  0.00    +0.000 C 
ATOM      3  C   UNL     1      -3.926  13.786  23.811  0.00  0.00    +0.000 C 
ATOM      4  C   UNL     1      -3.275  14.505  25.013  0.00  0.00    +0.000 C 
ATOM      5  C   UNL     1      -2.387  15.595  24.402  0.00  0.00    +0.000 C 
ATOM      6  C   UNL     1      -2.309  15.180  22.933  0.00  0.00    +0.000 C 
ATOM      7  C   UNL     1      -1.304  13.967  22.819  0.00  0.00    +0.000 C 
ATOM      8  N   UNL     1      -3.702  14.703  22.683  0.00  0.00    +0.000 NA
ATOM      9  C   UNL     1      -4.718  15.744  22.583  0.00  0.00    +0.000 C 
ENDROOT
BRANCH   1  14
ATOM     10  C   UNL     1       1.263   8.089  21.103  0.00  0.00    +0.000 C 
ATOM     11  C   UNL     1       0.387   9.260  21.439  0.00  0.00    +0.000 A 
ATOM     12  C   UNL     1      -0.111  10.087  20.431  0.00  0.00    +0.000 A 
ATOM     13  C   UNL     1      -0.919  11.175  20.754  0.00  0.00    +0.000 A 
ATOM     14  C   UNL     1      -1.246  11.467  22.091  0.00  0.00    +0.000 A 
ATOM     15  C   UNL     1      -0.744  10.639  23.098  0.00  0.00    +0.000 A 
ATOM     16  C   UNL     1       0.067   9.545  22.773  0.00  0.00    +0.000 A 
ENDBRANCH   1  14
BRANCH   7  17
ATOM     17  C   UNL     1      -0.123  14.247  21.955  0.00  0.00    +0.000 A 
ATOM     18  C   UNL     1       0.067  14.565  20.636  0.00  0.00    +0.000 A 
ATOM     19  C   UNL     1       1.468  14.442  20.439  0.00  0.00    +0.000 A 
ATOM     20  N   UNL     1       2.087  14.177  21.597  0.00  0.00    +0.000 NA
ATOM     21  O   UNL     1       1.090  14.042  22.538  0.00  0.00    +0.000 OA
BRANCH  19  22
ATOM     22  C   UNL     1       2.235  14.560  19.138  0.00  0.00    +0.000 C 
ATOM     23  C   UNL     1       1.859  13.384  18.217  0.00  0.00    +0.000 C 
ATOM     24  C   UNL     1       1.938  15.877  18.388  0.00  0.00    +0.000 C 
ATOM     25  C   UNL     1       3.753  14.519  19.420  0.00  0.00    +0.000 C 
ENDBRANCH  19  22
ENDBRANCH   7  17
TORSDOF 3
ENDMDL
