MODEL 1
REMARK VINA RESULT:      -9.1      0.000      0.000
REMARK  Name = 
REMARK  5 active torsions:
REMARK  status: ('A' for Active; 'I' for Inactive)
REMARK    1  A    between atoms: C_1  and  O_2
REMARK    2  A    between atoms: O_2  and  C_3
REMARK    3  A    between atoms: C_8  and  N_9
REMARK    4  A    between atoms: N_12  and  C_13
REMARK    5  A    between atoms: C_16  and  C_17
REMARK                            x       y       z     vdW  Elec       q    Type
REMARK                         _______ _______ _______ _____ _____    ______ ____
ROOT
ATOM      1  C   UNL     1       6.157   5.513  16.535  0.00  0.00    +0.000 A 
ATOM      2  C   UNL     1       5.286   4.415  16.710  0.00  0.00    +0.000 A 
ATOM      3  C   UNL     1       4.190   4.536  17.581  0.00  0.00    +0.000 A 
ATOM      4  C   UNL     1       3.981   5.753  18.206  0.00  0.00    +0.000 A 
ATOM      5  C   UNL     1       4.769   6.882  17.997  0.00  0.00    +0.000 A 
ATOM      6  C   UNL     1       5.887   6.756  17.153  0.00  0.00    +0.000 A 
ATOM      7  O   UNL     1       2.907   5.688  19.038  0.00  0.00    +0.000 OA
ATOM      8  C   UNL     1       2.413   4.424  18.948  0.00  0.00    +0.000 A 
ATOM      9  C   UNL     1       1.323   3.934  19.661  0.00  0.00    +0.000 A 
ATOM     10  C   UNL     1       0.956   2.609  19.405  0.00  0.00    +0.000 A 
ATOM     11  C   UNL     1       1.655   1.830  18.478  0.00  0.00    +0.000 A 
ATOM     12  C   UNL     1       2.759   2.347  17.787  0.00  0.00    +0.000 A 
ATOM     13  C   UNL     1       3.149   3.676  18.035  0.00  0.00    +0.000 A 
ENDROOT
BRANCH   6  14
ATOM     14  N   UNL     1       6.732   7.880  16.891  0.00  0.00    +0.000 N 
ATOM     15  C   UNL     1       7.772   8.283  17.721  0.00  0.00    +0.000 C 
ATOM     16  O   UNL     1       8.209   7.579  18.623  0.00  0.00    +0.000 OA
ATOM     17  N   UNL     1       8.239   9.558  17.437  0.00  0.00    +0.000 N 
ATOM     18  H   UNL     1       6.708   8.225  15.941  0.00  0.00    +0.000 HD
ATOM     19  H   UNL     1       7.814  10.041  16.662  0.00  0.00    +0.000 HD
BRANCH  17  20
ATOM     20  C   UNL     1       9.205  10.280  18.195  0.00  0.00    +0.000 A 
ATOM     21  C   UNL     1       9.211  10.341  19.594  0.00  0.00    +0.000 A 
ATOM     22  C   UNL     1      10.161  11.096  20.288  0.00  0.00    +0.000 A 
ATOM     23  C   UNL     1      11.138  11.815  19.604  0.00  0.00    +0.000 A 
ATOM     24  C   UNL     1      12.140  12.642  20.352  0.00  0.00    +0.000 C 
ATOM     25  C   UNL     1      11.151  11.754  18.205  0.00  0.00    +0.000 A 
ATOM     26  C   UNL     1      10.192  10.997  17.508  0.00  0.00    +0.000 A 
ENDBRANCH  17  20
ENDBRANCH   6  14
BRANCH   1  28
ATOM     27  C   UNL     1       7.102   4.831  14.478  0.00  0.00    +0.000 C 
ATOM     28  O   UNL     1       7.302   5.419  15.768  0.00  0.00    +0.000 OA
ENDBRANCH   1  28
TORSDOF 3
ENDMDL
MODEL 2
REMARK VINA RESULT:      -7.9      5.260      7.848
REMARK  Name = 
REMARK  5 active torsions:
REMARK  status: ('A' for Active; 'I' for Inactive)
REMARK    1  A    between atoms: C_1  and  O_2
REMARK    2  A    between atoms: O_2  and  C_3
REMARK    3  A    between atoms: C_8  and  N_9
REMARK    4  A    between atoms: N_12  and  C_13
REMARK    5  A    between atoms: C_16  and  C_17
REMARK                            x       y       z     vdW  Elec       q    Type
REMARK                         _______ _______ _______ _____ _____    ______ ____
ROOT
ATOM      1  C   UNL     1       2.225   5.130  19.957  0.00  0.00    +0.000 A 
ATOM      2  C   UNL     1       3.001   4.414  19.018  0.00  0.00    +0.000 A 
ATOM      3  C   UNL     1       3.731   5.119  18.046  0.00  0.00    +0.000 A 
ATOM      4  C   UNL     1       3.694   6.502  18.075  0.00  0.00    +0.000 A 
ATOM      5  C   UNL     1       3.008   7.244  19.032  0.00  0.00    +0.000 A 
ATOM      6  C   UNL     1       2.248   6.544  19.986  0.00  0.00    +0.000 A 
ATOM      7  O   UNL     1       4.420   7.023  17.049  0.00  0.00    +0.000 OA
ATOM      8  C   UNL     1       4.934   5.973  16.355  0.00  0.00    +0.000 A 
ATOM      9  C   UNL     1       5.722   6.073  15.212  0.00  0.00    +0.000 A 
ATOM     10  C   UNL     1       6.176   4.871  14.661  0.00  0.00    +0.000 A 
ATOM     11  C   UNL     1       5.848   3.640  15.238  0.00  0.00    +0.000 A 
ATOM     12  C   UNL     1       5.038   3.571  16.380  0.00  0.00    +0.000 A 
ATOM     13  C   UNL     1       4.567   4.769  16.947  0.00  0.00    +0.000 A 
ENDROOT
BRANCH   6  14
ATOM     14  N   UNL     1       1.526   7.246  21.001  0.00  0.00    +0.000 N 
ATOM     15  C   UNL     1       0.905   8.475  20.807  0.00  0.00    +0.000 C 
ATOM     16  O   UNL     1       0.717   8.953  19.695  0.00  0.00    +0.000 OA
ATOM     17  N   UNL     1       0.547   9.103  21.992  0.00  0.00    +0.000 N 
ATOM     18  H   UNL     1       1.264   6.692  21.806  0.00  0.00    +0.000 HD
ATOM     19  H   UNL     1       0.737   8.609  22.849  0.00  0.00    +0.000 HD
BRANCH  17  20
ATOM     20  C   UNL     1       0.013  10.418  22.110  0.00  0.00    +0.000 A 
ATOM     21  C   UNL     1       0.492  11.520  21.391  0.00  0.00    +0.000 A 
ATOM     22  C   UNL     1      -0.044  12.799  21.572  0.00  0.00    +0.000 A 
ATOM     23  C   UNL     1      -1.079  13.016  22.480  0.00  0.00    +0.000 A 
ATOM     24  C   UNL     1      -1.634  14.393  22.688  0.00  0.00    +0.000 C 
ATOM     25  C   UNL     1      -1.574  11.921  23.197  0.00  0.00    +0.000 A 
ATOM     26  C   UNL     1      -1.031  10.636  23.016  0.00  0.00    +0.000 A 
ENDBRANCH  17  20
ENDBRANCH   6  14
BRANCH   1  28
ATOM     27  C   UNL     1       2.061   3.443  21.605  0.00  0.00    +0.000 C 
ATOM     28  O   UNL     1       1.412   4.487  20.871  0.00  0.00    +0.000 OA
ENDBRANCH   1  28
TORSDOF 3
ENDMDL
MODEL 3
REMARK VINA RESULT:      -7.7      7.879     10.750
REMARK  Name = 
REMARK  5 active torsions:
REMARK  status: ('A' for Active; 'I' for Inactive)
REMARK    1  A    between atoms: C_1  and  O_2
REMARK    2  A    between atoms: O_2  and  C_3
REMARK    3  A    between atoms: C_8  and  N_9
REMARK    4  A    between atoms: N_12  and  C_13
REMARK    5  A    between atoms: C_16  and  C_17
REMARK                            x       y       z     vdW  Elec       q    Type
REMARK                         _______ _______ _______ _____ _____    ______ ____
ROOT
ATOM      1  C   UNL     1       0.377  11.870  21.333  0.00  0.00    +0.000 A 
ATOM      2  C   UNL     1      -0.514  12.948  21.532  0.00  0.00    +0.000 A 
ATOM      3  C   UNL     1      -1.646  12.767  22.345  0.00  0.00    +0.000 A 
ATOM      4  C   UNL     1      -1.821  11.538  22.958  0.00  0.00    +0.000 A 
ATOM      5  C   UNL     1      -0.925  10.479  22.853  0.00  0.00    +0.000 A 
ATOM      6  C   UNL     1       0.192  10.644  22.013  0.00  0.00    +0.000 A 
ATOM      7  O   UNL     1      -2.978  11.519  23.673  0.00  0.00    +0.000 OA
ATOM      8  C   UNL     1      -3.554  12.743  23.527  0.00  0.00    +0.000 A 
ATOM      9  C   UNL     1      -4.769  13.132  24.083  0.00  0.00    +0.000 A 
ATOM     10  C   UNL     1      -5.175  14.447  23.836  0.00  0.00    +0.000 A 
ATOM     11  C   UNL     1      -4.391  15.315  23.069  0.00  0.00    +0.000 A 
ATOM     12  C   UNL     1      -3.179  14.889  22.509  0.00  0.00    +0.000 A 
ATOM     13  C   UNL     1      -2.755  13.567  22.741  0.00  0.00    +0.000 A 
ENDROOT
BRANCH   6  14
ATOM     14  N   UNL     1       1.155   9.597  21.867  0.00  0.00    +0.000 N 
ATOM     15  C   UNL     1       1.198   8.724  20.785  0.00  0.00    +0.000 C 
ATOM     16  O   UNL     1       0.571   8.920  19.752  0.00  0.00    +0.000 OA
ATOM     17  N   UNL     1       1.999   7.613  21.008  0.00  0.00    +0.000 N 
ATOM     18  H   UNL     1       1.969   9.673  22.461  0.00  0.00    +0.000 HD
ATOM     19  H   UNL     1       2.481   7.563  21.891  0.00  0.00    +0.000 HD
BRANCH  17  20
ATOM     20  C   UNL     1       2.135   6.495  20.136  0.00  0.00    +0.000 A 
ATOM     21  C   UNL     1       2.796   6.546  18.902  0.00  0.00    +0.000 A 
ATOM     22  C   UNL     1       2.869   5.427  18.066  0.00  0.00    +0.000 A 
ATOM     23  C   UNL     1       2.283   4.220  18.439  0.00  0.00    +0.000 A 
ATOM     24  C   UNL     1       2.343   3.030  17.528  0.00  0.00    +0.000 C 
ATOM     25  C   UNL     1       1.628   4.152  19.674  0.00  0.00    +0.000 A 
ATOM     26  C   UNL     1       1.553   5.279  20.513  0.00  0.00    +0.000 A 
ENDBRANCH  17  20
ENDBRANCH   6  14
BRANCH   1  28
ATOM     27  C   UNL     1       1.129  12.515  19.187  0.00  0.00    +0.000 C 
ATOM     28  O   UNL     1       1.450  11.963  20.469  0.00  0.00    +0.000 OA
ENDBRANCH   1  28
TORSDOF 3
ENDMDL
MODEL 4
REMARK VINA RESULT:      -7.7      3.156     10.274
REMARK  Name = 
REMARK  5 active torsions:
REMARK  status: ('A' for Active; 'I' for Inactive)
REMARK    1  A    between atoms: C_1  and  O_2
REMARK    2  A    between atoms: O_2  and  C_3
REMARK    3  A    between atoms: C_8  and  N_9
REMARK    4  A    between atoms: N_12  and  C_13
REMARK    5  A    between atoms: C_16  and  C_17
REMARK                            x       y       z     vdW  Elec       q    Type
REMARK                         _______ _______ _______ _____ _____    ______ ____
ROOT
ATOM      1  C   UNL     1       9.303  11.729  20.334  0.00  0.00    +0.000 A 
ATOM      2  C   UNL     1       9.334  13.141  20.312  0.00  0.00    +0.000 A 
ATOM      3  C   UNL     1       9.806  13.803  19.165  0.00  0.00    +0.000 A 
ATOM      4  C   UNL     1      10.185  13.036  18.077  0.00  0.00    +0.000 A 
ATOM      5  C   UNL     1      10.093  11.648  18.030  0.00  0.00    +0.000 A 
ATOM      6  C   UNL     1       9.653  10.979  19.187  0.00  0.00    +0.000 A 
ATOM      7  O   UNL     1      10.650  13.826  17.072  0.00  0.00    +0.000 OA
ATOM      8  C   UNL     1      10.567  15.111  17.508  0.00  0.00    +0.000 A 
ATOM      9  C   UNL     1      10.965  16.233  16.787  0.00  0.00    +0.000 A 
ATOM     10  C   UNL     1      10.771  17.472  17.405  0.00  0.00    +0.000 A 
ATOM     11  C   UNL     1      10.204  17.565  18.680  0.00  0.00    +0.000 A 
ATOM     12  C   UNL     1       9.827  16.416  19.388  0.00  0.00    +0.000 A 
ATOM     13  C   UNL     1      10.020  15.158  18.786  0.00  0.00    +0.000 A 
ENDROOT
BRANCH   6  14
ATOM     14  N   UNL     1       9.529   9.554  19.203  0.00  0.00    +0.000 N 
ATOM     15  C   UNL     1       8.574   8.848  18.479  0.00  0.00    +0.000 C 
ATOM     16  O   UNL     1       7.912   9.357  17.585  0.00  0.00    +0.000 OA
ATOM     17  N   UNL     1       8.439   7.529  18.890  0.00  0.00    +0.000 N 
ATOM     18  H   UNL     1      10.330   9.055  19.566  0.00  0.00    +0.000 HD
ATOM     19  H   UNL     1       9.049   7.213  19.627  0.00  0.00    +0.000 HD
BRANCH  17  20
ATOM     20  C   UNL     1       7.461   6.606  18.422  0.00  0.00    +0.000 A 
ATOM     21  C   UNL     1       6.840   5.650  19.236  0.00  0.00    +0.000 A 
ATOM     22  C   UNL     1       5.912   4.742  18.717  0.00  0.00    +0.000 A 
ATOM     23  C   UNL     1       5.573   4.763  17.367  0.00  0.00    +0.000 A 
ATOM     24  C   UNL     1       4.595   3.771  16.811  0.00  0.00    +0.000 C 
ATOM     25  C   UNL     1       6.176   5.721  16.544  0.00  0.00    +0.000 A 
ATOM     26  C   UNL     1       7.113   6.632  17.067  0.00  0.00    +0.000 A 
ENDBRANCH  17  20
ENDBRANCH   6  14
BRANCH   1  28
ATOM     27  C   UNL     1       8.250  11.807  22.449  0.00  0.00    +0.000 C 
ATOM     28  O   UNL     1       8.941  11.026  21.467  0.00  0.00    +0.000 OA
ENDBRANCH   1  28
TORSDOF 3
ENDMDL
MODEL 5
REMARK VINA RESULT:      -7.7      4.568      7.464
REMARK  Name = 
REMARK  5 active torsions:
REMARK  status: ('A' for Active; 'I' for Inactive)
REMARK    1  A    between atoms: C_1  and  O_2
REMARK    2  A    between atoms: O_2  and  C_3
REMARK    3  A    between atoms: C_8  and  N_9
REMARK    4  A    between atoms: N_12  and  C_13
REMARK    5  A    between atoms: C_16  and  C_17
REMARK                            x       y       z     vdW  Elec       q    Type
REMARK                         _______ _______ _______ _____ _____    ______ ____
ROOT
ATOM      1  C   UNL     1       2.952   4.609  18.073  0.00  0.00    +0.000 A 
ATOM      2  C   UNL     1       3.542   4.029  16.928  0.00  0.00    +0.000 A 
ATOM      3  C   UNL     1       4.637   4.664  16.318  0.00  0.00    +0.000 A 
ATOM      4  C   UNL     1       5.125   5.824  16.896  0.00  0.00    +0.000 A 
ATOM      5  C   UNL     1       4.623   6.383  18.068  0.00  0.00    +0.000 A 
ATOM      6  C   UNL     1       3.506   5.769  18.663  0.00  0.00    +0.000 A 
ATOM      7  O   UNL     1       6.155   6.328  16.164  0.00  0.00    +0.000 OA
ATOM      8  C   UNL     1       6.339   5.489  15.110  0.00  0.00    +0.000 A 
ATOM      9  C   UNL     1       7.285   5.658  14.103  0.00  0.00    +0.000 A 
ATOM     10  C   UNL     1       7.332   4.665  13.120  0.00  0.00    +0.000 A 
ATOM     11  C   UNL     1       6.469   3.565  13.158  0.00  0.00    +0.000 A 
ATOM     12  C   UNL     1       5.515   3.431  14.177  0.00  0.00    +0.000 A 
ATOM     13  C   UNL     1       5.448   4.423  15.173  0.00  0.00    +0.000 A 
ENDROOT
BRANCH   6  14
ATOM     14  N   UNL     1       2.946   6.288  19.872  0.00  0.00    +0.000 N 
ATOM     15  C   UNL     1       2.016   7.320  19.920  0.00  0.00    +0.000 C 
ATOM     16  O   UNL     1       1.415   7.716  18.929  0.00  0.00    +0.000 OA
ATOM     17  N   UNL     1       1.860   7.861  21.188  0.00  0.00    +0.000 N 
ATOM     18  H   UNL     1       3.063   5.702  20.688  0.00  0.00    +0.000 HD
ATOM     19  H   UNL     1       2.396   7.446  21.934  0.00  0.00    +0.000 HD
BRANCH  17  20
ATOM     20  C   UNL     1       1.077   9.004  21.517  0.00  0.00    +0.000 A 
ATOM     21  C   UNL     1       1.097  10.199  20.786  0.00  0.00    +0.000 A 
ATOM     22  C   UNL     1       0.335  11.305  21.174  0.00  0.00    +0.000 A 
ATOM     23  C   UNL     1      -0.475  11.251  22.306  0.00  0.00    +0.000 A 
ATOM     24  C   UNL     1      -1.272  12.449  22.731  0.00  0.00    +0.000 C 
ATOM     25  C   UNL     1      -0.514  10.060  23.039  0.00  0.00    +0.000 A 
ATOM     26  C   UNL     1       0.256   8.949  22.649  0.00  0.00    +0.000 A 
ENDBRANCH  17  20
ENDBRANCH   6  14
BRANCH   1  28
ATOM     27  C   UNL     1       1.835   2.655  18.797  0.00  0.00    +0.000 C 
ATOM     28  O   UNL     1       1.815   4.080  18.653  0.00  0.00    +0.000 OA
ENDBRANCH   1  28
TORSDOF 3
ENDMDL
MODEL 6
REMARK VINA RESULT:      -7.7      4.587      7.501
REMARK  Name = 
REMARK  5 active torsions:
REMARK  status: ('A' for Active; 'I' for Inactive)
REMARK    1  A    between atoms: C_1  and  O_2
REMARK    2  A    between atoms: O_2  and  C_3
REMARK    3  A    between atoms: C_8  and  N_9
REMARK    4  A    between atoms: N_12  and  C_13
REMARK    5  A    between atoms: C_16  and  C_17
REMARK                            x       y       z     vdW  Elec       q    Type
REMARK                         _______ _______ _______ _____ _____    ______ ____
ROOT
ATOM      1  C   UNL     1       2.604   4.830  18.490  0.00  0.00    +0.000 A 
ATOM      2  C   UNL     1       3.215   4.234  17.363  0.00  0.00    +0.000 A 
ATOM      3  C   UNL     1       4.363   4.824  16.809  0.00  0.00    +0.000 A 
ATOM      4  C   UNL     1       4.880   5.954  17.421  0.00  0.00    +0.000 A 
ATOM      5  C   UNL     1       4.355   6.523  18.577  0.00  0.00    +0.000 A 
ATOM      6  C   UNL     1       3.186   5.957  19.116  0.00  0.00    +0.000 A 
ATOM      7  O   UNL     1       5.962   6.416  16.739  0.00  0.00    +0.000 OA
ATOM      8  C   UNL     1       6.152   5.580  15.683  0.00  0.00    +0.000 A 
ATOM      9  C   UNL     1       7.147   5.715  14.719  0.00  0.00    +0.000 A 
ATOM     10  C   UNL     1       7.189   4.731  13.726  0.00  0.00    +0.000 A 
ATOM     11  C   UNL     1       6.275   3.673  13.715  0.00  0.00    +0.000 A 
ATOM     12  C   UNL     1       5.274   3.574  14.691  0.00  0.00    +0.000 A 
ATOM     13  C   UNL     1       5.210   4.557  15.695  0.00  0.00    +0.000 A 
ENDROOT
BRANCH   6  14
ATOM     14  N   UNL     1       2.600   6.489  20.308  0.00  0.00    +0.000 N 
ATOM     15  C   UNL     1       1.719   7.565  20.329  0.00  0.00    +0.000 C 
ATOM     16  O   UNL     1       1.182   8.000  19.318  0.00  0.00    +0.000 OA
ATOM     17  N   UNL     1       1.535   8.099  21.596  0.00  0.00    +0.000 N 
ATOM     18  H   UNL     1       2.653   5.889  21.120  0.00  0.00    +0.000 HD
ATOM     19  H   UNL     1       2.017   7.650  22.359  0.00  0.00    +0.000 HD
BRANCH  17  20
ATOM     20  C   UNL     1       0.794   9.275  21.906  0.00  0.00    +0.000 A 
ATOM     21  C   UNL     1      -0.146   9.353  22.942  0.00  0.00    +0.000 A 
ATOM     22  C   UNL     1      -0.875  10.522  23.180  0.00  0.00    +0.000 A 
ATOM     23  C   UNL     1      -0.686  11.653  22.389  0.00  0.00    +0.000 A 
ATOM     24  C   UNL     1      -1.488  12.896  22.634  0.00  0.00    +0.000 C 
ATOM     25  C   UNL     1       0.258  11.592  21.357  0.00  0.00    +0.000 A 
ATOM     26  C   UNL     1       0.988  10.414  21.117  0.00  0.00    +0.000 A 
ENDBRANCH  17  20
ENDBRANCH   6  14
BRANCH   1  28
ATOM     27  C   UNL     1       1.139   2.985  18.683  0.00  0.00    +0.000 C 
ATOM     28  O   UNL     1       1.420   4.350  19.015  0.00  0.00    +0.000 OA
ENDBRANCH   1  28
TORSDOF 3
ENDMDL
MODEL 7
REMARK VINA RESULT:      -7.5      6.102      8.559
REMARK  Name = 
REMARK  5 active torsions:
REMARK  status: ('A' for Active; 'I' for Inactive)
REMARK    1  A    between atoms: C_1  and  O_2
REMARK    2  A    between atoms: O_2  and  C_3
REMARK    3  A    between atoms: C_8  and  N_9
REMARK    4  A    between atoms: N_12  and  C_13
REMARK    5  A    between atoms: C_16  and  C_17
REMARK                            x       y       z     vdW  Elec       q    Type
REMARK                         _______ _______ _______ _____ _____    ______ ____
ROOT
ATOM      1  C   UNL     1       2.081   8.053  18.948  0.00  0.00    +0.000 A 
ATOM      2  C   UNL     1       2.354   6.881  18.208  0.00  0.00    +0.000 A 
ATOM      3  C   UNL     1       2.424   5.645  18.873  0.00  0.00    +0.000 A 
ATOM      4  C   UNL     1       2.177   5.620  20.235  0.00  0.00    +0.000 A 
ATOM      5  C   UNL     1       1.825   6.739  20.985  0.00  0.00    +0.000 A 
ATOM      6  C   UNL     1       1.787   7.983  20.330  0.00  0.00    +0.000 A 
ATOM      7  O   UNL     1       2.321   4.360  20.726  0.00  0.00    +0.000 OA
ATOM      8  C   UNL     1       2.658   3.563  19.676  0.00  0.00    +0.000 A 
ATOM      9  C   UNL     1       2.920   2.198  19.755  0.00  0.00    +0.000 A 
ATOM     10  C   UNL     1       3.225   1.552  18.552  0.00  0.00    +0.000 A 
ATOM     11  C   UNL     1       3.259   2.252  17.343  0.00  0.00    +0.000 A 
ATOM     12  C   UNL     1       3.006   3.630  17.298  0.00  0.00    +0.000 A 
ATOM     13  C   UNL     1       2.704   4.300  18.498  0.00  0.00    +0.000 A 
ENDROOT
BRANCH   6  14
ATOM     14  N   UNL     1       1.425   9.171  21.041  0.00  0.00    +0.000 N 
ATOM     15  C   UNL     1       0.117   9.526  21.348  0.00  0.00    +0.000 C 
ATOM     16  O   UNL     1      -0.822   8.746  21.249  0.00  0.00    +0.000 OA
ATOM     17  N   UNL     1      -0.013  10.848  21.750  0.00  0.00    +0.000 N 
ATOM     18  H   UNL     1       2.180   9.622  21.539  0.00  0.00    +0.000 HD
ATOM     19  H   UNL     1       0.831  11.395  21.809  0.00  0.00    +0.000 HD
BRANCH  17  20
ATOM     20  C   UNL     1      -1.240  11.525  22.005  0.00  0.00    +0.000 A 
ATOM     21  C   UNL     1      -1.861  11.565  23.260  0.00  0.00    +0.000 A 
ATOM     22  C   UNL     1      -3.085  12.213  23.448  0.00  0.00    +0.000 A 
ATOM     23  C   UNL     1      -3.728  12.845  22.386  0.00  0.00    +0.000 A 
ATOM     24  C   UNL     1      -5.053  13.517  22.588  0.00  0.00    +0.000 C 
ATOM     25  C   UNL     1      -3.113  12.822  21.129  0.00  0.00    +0.000 A 
ATOM     26  C   UNL     1      -1.883  12.167  20.940  0.00  0.00    +0.000 A 
ENDBRANCH  17  20
ENDBRANCH   6  14
BRANCH   1  28
ATOM     27  C   UNL     1       0.854   9.693  17.768  0.00  0.00    +0.000 C 
ATOM     28  O   UNL     1       2.097   9.304  18.363  0.00  0.00    +0.000 OA
ENDBRANCH   1  28
TORSDOF 3
ENDMDL
MODEL 8
REMARK VINA RESULT:      -7.2      5.259      7.584
REMARK  Name = 
REMARK  5 active torsions:
REMARK  status: ('A' for Active; 'I' for Inactive)
REMARK    1  A    between atoms: C_1  and  O_2
REMARK    2  A    between atoms: O_2  and  C_3
REMARK    3  A    between atoms: C_8  and  N_9
REMARK    4  A    between atoms: N_12  and  C_13
REMARK    5  A    between atoms: C_16  and  C_17
REMARK                            x       y       z     vdW  Elec       q    Type
REMARK                         _______ _______ _______ _____ _____    ______ ____
ROOT
ATOM      1  C   UNL     1       2.270   5.827  19.704  0.00  0.00    +0.000 A 
ATOM      2  C   UNL     1       3.049   4.942  18.925  0.00  0.00    +0.000 A 
ATOM      3  C   UNL     1       3.805   5.450  17.854  0.00  0.00    +0.000 A 
ATOM      4  C   UNL     1       3.788   6.816  17.631  0.00  0.00    +0.000 A 
ATOM      5  C   UNL     1       3.099   7.728  18.424  0.00  0.00    +0.000 A 
ATOM      6  C   UNL     1       2.314   7.222  19.476  0.00  0.00    +0.000 A 
ATOM      7  O   UNL     1       4.537   7.133  16.540  0.00  0.00    +0.000 OA
ATOM      8  C   UNL     1       5.046   5.967  16.057  0.00  0.00    +0.000 A 
ATOM      9  C   UNL     1       5.853   5.848  14.930  0.00  0.00    +0.000 A 
ATOM     10  C   UNL     1       6.297   4.560  14.615  0.00  0.00    +0.000 A 
ATOM     11  C   UNL     1       5.942   3.459  15.400  0.00  0.00    +0.000 A 
ATOM     12  C   UNL     1       5.114   3.609  16.521  0.00  0.00    +0.000 A 
ATOM     13  C   UNL     1       4.652   4.896  16.852  0.00  0.00    +0.000 A 
ENDROOT
BRANCH   6  14
ATOM     14  N   UNL     1       1.587   8.106  20.334  0.00  0.00    +0.000 N 
ATOM     15  C   UNL     1       0.983   9.284  19.907  0.00  0.00    +0.000 C 
ATOM     16  O   UNL     1       0.815   9.550  18.724  0.00  0.00    +0.000 OA
ATOM     17  N   UNL     1       0.617  10.122  20.950  0.00  0.00    +0.000 N 
ATOM     18  H   UNL     1       1.309   7.713  21.223  0.00  0.00    +0.000 HD
ATOM     19  H   UNL     1       0.790   9.793  21.887  0.00  0.00    +0.000 HD
BRANCH  17  20
ATOM     20  C   UNL     1       0.097  11.442  20.816  0.00  0.00    +0.000 A 
ATOM     21  C   UNL     1      -1.269  11.733  20.712  0.00  0.00    +0.000 A 
ATOM     22  C   UNL     1      -1.724  13.044  20.544  0.00  0.00    +0.000 A 
ATOM     23  C   UNL     1      -0.827  14.108  20.477  0.00  0.00    +0.000 A 
ATOM     24  C   UNL     1      -1.320  15.509  20.273  0.00  0.00    +0.000 C 
ATOM     25  C   UNL     1       0.540  13.832  20.592  0.00  0.00    +0.000 A 
ATOM     26  C   UNL     1       0.997  12.512  20.757  0.00  0.00    +0.000 A 
ENDBRANCH  17  20
ENDBRANCH   6  14
BRANCH   1  28
ATOM     27  C   UNL     1       1.104   3.980  20.610  0.00  0.00    +0.000 C 
ATOM     28  O   UNL     1       1.434   5.371  20.705  0.00  0.00    +0.000 OA
ENDBRANCH   1  28
TORSDOF 3
ENDMDL
MODEL 9
REMARK VINA RESULT:      -7.1      5.042      7.465
REMARK  Name = 
REMARK  5 active torsions:
REMARK  status: ('A' for Active; 'I' for Inactive)
REMARK    1  A    between atoms: C_1  and  O_2
REMARK    2  A    between atoms: O_2  and  C_3
REMARK    3  A    between atoms: C_8  and  N_9
REMARK    4  A    between atoms: N_12  and  C_13
REMARK    5  A    between atoms: C_16  and  C_17
REMARK                            x       y       z     vdW  Elec       q    Type
REMARK                         _______ _______ _______ _____ _____    ______ ____
ROOT
ATOM      1  C   UNL     1       2.255   5.464  20.422  0.00  0.00    +0.000 A 
ATOM      2  C   UNL     1       1.460   6.352  21.181  0.00  0.00    +0.000 A 
ATOM      3  C   UNL     1       1.265   7.666  20.724  0.00  0.00    +0.000 A 
ATOM      4  C   UNL     1       1.831   8.029  19.514  0.00  0.00    +0.000 A 
ATOM      5  C   UNL     1       2.552   7.162  18.698  0.00  0.00    +0.000 A 
ATOM      6  C   UNL     1       2.779   5.855  19.168  0.00  0.00    +0.000 A 
ATOM      7  O   UNL     1       1.579   9.337  19.239  0.00  0.00    +0.000 OA
ATOM      8  C   UNL     1       0.842   9.824  20.274  0.00  0.00    +0.000 A 
ATOM      9  C   UNL     1       0.392  11.135  20.394  0.00  0.00    +0.000 A 
ATOM     10  C   UNL     1      -0.377  11.429  21.525  0.00  0.00    +0.000 A 
ATOM     11  C   UNL     1      -0.672  10.447  22.475  0.00  0.00    +0.000 A 
ATOM     12  C   UNL     1      -0.191   9.138  22.334  0.00  0.00    +0.000 A 
ATOM     13  C   UNL     1       0.589   8.823  21.207  0.00  0.00    +0.000 A 
ENDROOT
BRANCH   6  14
ATOM     14  N   UNL     1       3.505   4.912  18.375  0.00  0.00    +0.000 N 
ATOM     15  C   UNL     1       4.368   5.263  17.343  0.00  0.00    +0.000 C 
ATOM     16  O   UNL     1       4.767   6.408  17.174  0.00  0.00    +0.000 OA
ATOM     17  N   UNL     1       4.706   4.196  16.523  0.00  0.00    +0.000 N 
ATOM     18  H   UNL     1       3.564   3.979  18.761  0.00  0.00    +0.000 HD
ATOM     19  H   UNL     1       4.331   3.293  16.766  0.00  0.00    +0.000 HD
BRANCH  17  20
ATOM     20  C   UNL     1       5.467   4.275  15.321  0.00  0.00    +0.000 A 
ATOM     21  C   UNL     1       6.705   4.923  15.225  0.00  0.00    +0.000 A 
ATOM     22  C   UNL     1       7.393   5.005  14.011  0.00  0.00    +0.000 A 
ATOM     23  C   UNL     1       6.865   4.439  12.852  0.00  0.00    +0.000 A 
ATOM     24  C   UNL     1       7.596   4.551  11.548  0.00  0.00    +0.000 C 
ATOM     25  C   UNL     1       5.634   3.779  12.937  0.00  0.00    +0.000 A 
ATOM     26  C   UNL     1       4.941   3.700  14.159  0.00  0.00    +0.000 A 
ENDBRANCH  17  20
ENDBRANCH   6  14
BRANCH   1  28
ATOM     27  C   UNL     1       1.422   3.346  21.061  0.00  0.00    +0.000 C 
ATOM     28  O   UNL     1       2.560   4.194  20.872  0.00  0.00    +0.000 OA
ENDBRANCH   1  28
TORSDOF 3
ENDMDL
