MODEL 1
REMARK VINA RESULT:      -7.8      0.000      0.000
REMARK  Name = 
REMARK  13 active torsions:
REMARK  status: ('A' for Active; 'I' for Inactive)
REMARK    1  A    between atoms: C_1  and  O_2
REMARK    2  A    between atoms: O_2  and  C_3
REMARK    3  A    between atoms: C_3  and  O_4
REMARK    4  A    between atoms: O_4  and  C_5
REMARK    5  A    between atoms: C_10  and  C_11
REMARK    6  A    between atoms: C_12  and  C_13
REMARK    7  A    between atoms: C_13  and  C_15
REMARK    8  A    between atoms: C_15  and  C_16
REMARK    9  A    between atoms: C_16  and  C_17
REMARK   10  A    between atoms: C_16  and  C_18
REMARK   11  A    between atoms: N_23  and  C_24
REMARK   12  A    between atoms: C_27  and  C_28
REMARK   13  A    between atoms: C_31  and  C_32
REMARK                            x       y       z     vdW  Elec       q    Type
REMARK                         _______ _______ _______ _____ _____    ______ ____
ROOT
ATOM      1  C   UNL     1       4.946   4.885  18.061  0.00  0.00    +0.000 C 
ATOM      2  C   UNL     1       6.046   4.483  17.042  0.00  0.00    +0.000 C 
ATOM      3  C   UNL     1       6.452   5.832  16.524  0.00  0.00    +0.000 C 
ATOM      4  O   UNL     1       7.467   6.066  15.892  0.00  0.00    +0.000 OA
ATOM      5  C   UNL     1       5.412   6.891  16.887  0.00  0.00    +0.000 C 
ATOM      6  O   UNL     1       5.438   8.037  16.499  0.00  0.00    +0.000 OA
ATOM      7  N   UNL     1       4.514   6.259  17.731  0.00  0.00    +0.000 N 
ENDROOT
BRANCH   1  13
ATOM      8  C   UNL     1       3.741   2.890  19.151  0.00  0.00    +0.000 A 
ATOM      9  C   UNL     1       2.519   2.231  19.374  0.00  0.00    +0.000 A 
ATOM     10  C   UNL     1       1.390   2.518  18.603  0.00  0.00    +0.000 A 
ATOM     11  C   UNL     1       1.476   3.430  17.567  0.00  0.00    +0.000 A 
ATOM     12  C   UNL     1       2.673   4.096  17.350  0.00  0.00    +0.000 A 
ATOM     13  C   UNL     1       3.788   3.916  18.191  0.00  0.00    +0.000 A 
BRANCH   8  14
ATOM     14  O   UNL     1       4.903   2.573  19.821  0.00  0.00    +0.000 OA
BRANCH  14  15
ATOM     15  C   UNL     1       4.818   1.345  20.566  0.00  0.00    +0.000 C 
BRANCH  15  17
ATOM     16  C   UNL     1       6.095   0.010  22.050  0.00  0.00    +0.000 C 
ATOM     17  O   UNL     1       5.684   1.320  21.698  0.00  0.00    +0.000 OA
ENDBRANCH  15  17
ENDBRANCH  14  15
ENDBRANCH   8  14
ENDBRANCH   1  13
BRANCH   7  18
ATOM     18  C   UNL     1       3.488   6.963  18.424  0.00  0.00    +0.000 A 
ATOM     19  C   UNL     1       3.127   6.545  19.709  0.00  0.00    +0.000 A 
ATOM     20  C   UNL     1       2.233   7.290  20.497  0.00  0.00    +0.000 A 
ATOM     21  C   UNL     1       1.590   8.427  19.993  0.00  0.00    +0.000 A 
ATOM     22  C   UNL     1       1.898   8.800  18.673  0.00  0.00    +0.000 A 
ATOM     23  C   UNL     1       2.851   8.091  17.901  0.00  0.00    +0.000 A 
BRANCH  21  24
ATOM     24  C   UNL     1       0.628   9.161  20.830  0.00  0.00    +0.000 A 
ATOM     25  C   UNL     1       0.079   8.937  22.083  0.00  0.00    +0.000 A 
ATOM     26  C   UNL     1      -0.833   9.987  22.339  0.00  0.00    +0.000 A 
ATOM     27  C   UNL     1      -0.784  10.807  21.232  0.00  0.00    +0.000 A 
ATOM     28  C   UNL     1      -1.501  12.050  20.872  0.00  0.00    +0.000 C 
ATOM     29  O   UNL     1       0.106  10.320  20.319  0.00  0.00    +0.000 OA
ENDBRANCH  21  24
ENDBRANCH   7  18
BRANCH   2  30
ATOM     30  C   UNL     1       5.686   3.575  15.862  0.00  0.00    +0.000 C 
ATOM     31  O   UNL     1       5.591   2.356  16.013  0.00  0.00    +0.000 OA
BRANCH  30  32
ATOM     32  C   UNL     1       5.430   4.238  14.493  0.00  0.00    +0.000 C 
BRANCH  32  33
ATOM     33  C   UNL     1       6.252   3.661  13.311  0.00  0.00    +0.000 C 
ATOM     34  C   UNL     1       5.357   3.224  12.146  0.00  0.00    +0.000 C 
ATOM     35  C   UNL     1       7.273   4.680  12.778  0.00  0.00    +0.000 C 
ENDBRANCH  32  33
ENDBRANCH  30  32
ENDBRANCH   2  30
TORSDOF 9
ENDMDL
MODEL 2
REMARK VINA RESULT:      -7.5      0.578      1.184
REMARK  Name = 
REMARK  13 active torsions:
REMARK  status: ('A' for Active; 'I' for Inactive)
REMARK    1  A    between atoms: C_1  and  O_2
REMARK    2  A    between atoms: O_2  and  C_3
REMARK    3  A    between atoms: C_3  and  O_4
REMARK    4  A    between atoms: O_4  and  C_5
REMARK    5  A    between atoms: C_10  and  C_11
REMARK    6  A    between atoms: C_12  and  C_13
REMARK    7  A    between atoms: C_13  and  C_15
REMARK    8  A    between atoms: C_15  and  C_16
REMARK    9  A    between atoms: C_16  and  C_17
REMARK   10  A    between atoms: C_16  and  C_18
REMARK   11  A    between atoms: N_23  and  C_24
REMARK   12  A    between atoms: C_27  and  C_28
REMARK   13  A    between atoms: C_31  and  C_32
REMARK                            x       y       z     vdW  Elec       q    Type
REMARK                         _______ _______ _______ _____ _____    ______ ____
ROOT
ATOM      1  C   UNL     1       4.945   4.945  18.050  0.00  0.00    +0.000 C 
ATOM      2  C   UNL     1       6.040   4.428  17.077  0.00  0.00    +0.000 C 
ATOM      3  C   UNL     1       6.572   5.725  16.541  0.00  0.00    +0.000 C 
ATOM      4  O   UNL     1       7.621   5.859  15.938  0.00  0.00    +0.000 OA
ATOM      5  C   UNL     1       5.613   6.875  16.845  0.00  0.00    +0.000 C 
ATOM      6  O   UNL     1       5.745   8.004  16.431  0.00  0.00    +0.000 OA
ATOM      7  N   UNL     1       4.639   6.341  17.674  0.00  0.00    +0.000 N 
ENDROOT
BRANCH   1  13
ATOM      8  C   UNL     1       3.600   2.996  19.055  0.00  0.00    +0.000 A 
ATOM      9  C   UNL     1       2.331   2.436  19.286  0.00  0.00    +0.000 A 
ATOM     10  C   UNL     1       1.207   2.877  18.585  0.00  0.00    +0.000 A 
ATOM     11  C   UNL     1       1.339   3.848  17.609  0.00  0.00    +0.000 A 
ATOM     12  C   UNL     1       2.585   4.416  17.385  0.00  0.00    +0.000 A 
ATOM     13  C   UNL     1       3.708   4.078  18.165  0.00  0.00    +0.000 A 
BRANCH   8  14
ATOM     14  O   UNL     1       4.752   2.529  19.652  0.00  0.00    +0.000 OA
BRANCH  14  15
ATOM     15  C   UNL     1       4.505   1.622  20.741  0.00  0.00    +0.000 C 
BRANCH  15  17
ATOM     16  C   UNL     1       5.915   0.129  21.923  0.00  0.00    +0.000 C 
ATOM     17  O   UNL     1       5.624   1.481  21.613  0.00  0.00    +0.000 OA
ENDBRANCH  15  17
ENDBRANCH  14  15
ENDBRANCH   8  14
ENDBRANCH   1  13
BRANCH   7  18
ATOM     18  C   UNL     1       3.654   7.144  18.316  0.00  0.00    +0.000 A 
ATOM     19  C   UNL     1       3.143   8.259  17.644  0.00  0.00    +0.000 A 
ATOM     20  C   UNL     1       2.065   8.996  18.164  0.00  0.00    +0.000 A 
ATOM     21  C   UNL     1       1.523   8.706  19.421  0.00  0.00    +0.000 A 
ATOM     22  C   UNL     1       2.090   7.632  20.128  0.00  0.00    +0.000 A 
ATOM     23  C   UNL     1       3.131   6.845  19.577  0.00  0.00    +0.000 A 
BRANCH  21  24
ATOM     24  C   UNL     1       0.421   9.524  19.954  0.00  0.00    +0.000 A 
ATOM     25  C   UNL     1      -0.612  10.240  19.371  0.00  0.00    +0.000 A 
ATOM     26  C   UNL     1      -1.335  10.866  20.414  0.00  0.00    +0.000 A 
ATOM     27  C   UNL     1      -0.712  10.487  21.583  0.00  0.00    +0.000 A 
ATOM     28  C   UNL     1      -0.966  10.810  23.005  0.00  0.00    +0.000 C 
ATOM     29  O   UNL     1       0.345   9.666  21.315  0.00  0.00    +0.000 OA
ENDBRANCH  21  24
ENDBRANCH   7  18
BRANCH   2  30
ATOM     30  C   UNL     1       5.643   3.522  15.908  0.00  0.00    +0.000 C 
ATOM     31  O   UNL     1       5.615   2.298  16.042  0.00  0.00    +0.000 OA
BRANCH  30  32
ATOM     32  C   UNL     1       5.262   4.193  14.572  0.00  0.00    +0.000 C 
BRANCH  32  33
ATOM     33  C   UNL     1       5.935   3.591  13.311  0.00  0.00    +0.000 C 
ATOM     34  C   UNL     1       4.960   3.485  12.133  0.00  0.00    +0.000 C 
ATOM     35  C   UNL     1       7.146   4.424  12.860  0.00  0.00    +0.000 C 
ENDBRANCH  32  33
ENDBRANCH  30  32
ENDBRANCH   2  30
TORSDOF 9
ENDMDL
MODEL 3
REMARK VINA RESULT:      -7.0      8.337     11.984
REMARK  Name = 
REMARK  13 active torsions:
REMARK  status: ('A' for Active; 'I' for Inactive)
REMARK    1  A    between atoms: C_1  and  O_2
REMARK    2  A    between atoms: O_2  and  C_3
REMARK    3  A    between atoms: C_3  and  O_4
REMARK    4  A    between atoms: O_4  and  C_5
REMARK    5  A    between atoms: C_10  and  C_11
REMARK    6  A    between atoms: C_12  and  C_13
REMARK    7  A    between atoms: C_13  and  C_15
REMARK    8  A    between atoms: C_15  and  C_16
REMARK    9  A    between atoms: C_16  and  C_17
REMARK   10  A    between atoms: C_16  and  C_18
REMARK   11  A    between atoms: N_23  and  C_24
REMARK   12  A    between atoms: C_27  and  C_28
REMARK   13  A    between atoms: C_31  and  C_32
REMARK                            x       y       z     vdW  Elec       q    Type
REMARK                         _______ _______ _______ _____ _____    ______ ____
ROOT
ATOM      1  C   UNL     1       9.124  14.577  19.116  0.00  0.00    +0.000 C 
ATOM      2  C   UNL     1      10.006  15.856  19.095  0.00  0.00    +0.000 C 
ATOM      3  C   UNL     1      10.879  15.573  17.907  0.00  0.00    +0.000 C 
ATOM      4  O   UNL     1      11.561  16.396  17.325  0.00  0.00    +0.000 OA
ATOM      5  C   UNL     1      10.810  14.097  17.519  0.00  0.00    +0.000 C 
ATOM      6  O   UNL     1      11.498  13.580  16.669  0.00  0.00    +0.000 OA
ATOM      7  N   UNL     1       9.815  13.548  18.312  0.00  0.00    +0.000 N 
ENDROOT
BRANCH   1  13
ATOM      8  C   UNL     1       7.507  14.423  21.111  0.00  0.00    +0.000 A 
ATOM      9  C   UNL     1       7.103  13.700  22.247  0.00  0.00    +0.000 A 
ATOM     10  C   UNL     1       7.925  12.721  22.812  0.00  0.00    +0.000 A 
ATOM     11  C   UNL     1       9.180  12.483  22.281  0.00  0.00    +0.000 A 
ATOM     12  C   UNL     1       9.579  13.182  21.151  0.00  0.00    +0.000 A 
ATOM     13  C   UNL     1       8.721  14.082  20.491  0.00  0.00    +0.000 A 
BRANCH   8  14
ATOM     14  O   UNL     1       6.773  15.461  20.577  0.00  0.00    +0.000 OA
BRANCH  14  15
ATOM     15  C   UNL     1       6.233  16.351  21.570  0.00  0.00    +0.000 C 
BRANCH  15  17
ATOM     16  C   UNL     1       4.629  17.074  19.982  0.00  0.00    +0.000 C 
ATOM     17  O   UNL     1       4.871  16.695  21.327  0.00  0.00    +0.000 OA
ENDBRANCH  15  17
ENDBRANCH  14  15
ENDBRANCH   8  14
ENDBRANCH   1  13
BRANCH   7  18
ATOM     18  C   UNL     1       9.331  12.221  18.126  0.00  0.00    +0.000 A 
ATOM     19  C   UNL     1      10.045  11.154  18.680  0.00  0.00    +0.000 A 
ATOM     20  C   UNL     1       9.537   9.844  18.659  0.00  0.00    +0.000 A 
ATOM     21  C   UNL     1       8.343   9.536  17.998  0.00  0.00    +0.000 A 
ATOM     22  C   UNL     1       7.666  10.599  17.376  0.00  0.00    +0.000 A 
ATOM     23  C   UNL     1       8.141  11.932  17.454  0.00  0.00    +0.000 A 
BRANCH  21  24
ATOM     24  C   UNL     1       7.859   8.146  17.960  0.00  0.00    +0.000 A 
ATOM     25  C   UNL     1       8.207   6.990  18.640  0.00  0.00    +0.000 A 
ATOM     26  C   UNL     1       7.405   5.942  18.131  0.00  0.00    +0.000 A 
ATOM     27  C   UNL     1       6.597   6.517  17.174  0.00  0.00    +0.000 A 
ATOM     28  C   UNL     1       5.560   5.966  16.273  0.00  0.00    +0.000 C 
ATOM     29  O   UNL     1       6.857   7.853  17.071  0.00  0.00    +0.000 OA
ENDBRANCH  21  24
ENDBRANCH   7  18
BRANCH   2  30
ATOM     30  C   UNL     1      10.887  16.185  20.304  0.00  0.00    +0.000 C 
ATOM     31  O   UNL     1      11.980  15.637  20.452  0.00  0.00    +0.000 OA
BRANCH  30  32
ATOM     32  C   UNL     1      10.369  17.233  21.310  0.00  0.00    +0.000 C 
BRANCH  32  33
ATOM     33  C   UNL     1      10.806  17.014  22.782  0.00  0.00    +0.000 C 
ATOM     34  C   UNL     1      10.809  18.320  23.584  0.00  0.00    +0.000 C 
ATOM     35  C   UNL     1       9.893  16.008  23.502  0.00  0.00    +0.000 C 
ENDBRANCH  32  33
ENDBRANCH  30  32
ENDBRANCH   2  30
TORSDOF 9
ENDMDL
MODEL 4
REMARK VINA RESULT:      -6.9      3.300     10.579
REMARK  Name = 
REMARK  13 active torsions:
REMARK  status: ('A' for Active; 'I' for Inactive)
REMARK    1  A    between atoms: C_1  and  O_2
REMARK    2  A    between atoms: O_2  and  C_3
REMARK    3  A    between atoms: C_3  and  O_4
REMARK    4  A    between atoms: O_4  and  C_5
REMARK    5  A    between atoms: C_10  and  C_11
REMARK    6  A    between atoms: C_12  and  C_13
REMARK    7  A    between atoms: C_13  and  C_15
REMARK    8  A    between atoms: C_15  and  C_16
REMARK    9  A    between atoms: C_16  and  C_17
REMARK   10  A    between atoms: C_16  and  C_18
REMARK   11  A    between atoms: N_23  and  C_24
REMARK   12  A    between atoms: C_27  and  C_28
REMARK   13  A    between atoms: C_31  and  C_32
REMARK                            x       y       z     vdW  Elec       q    Type
REMARK                         _______ _______ _______ _____ _____    ______ ____
ROOT
ATOM      1  C   UNL     1      -0.870  11.802  20.418  0.00  0.00    +0.000 C 
ATOM      2  C   UNL     1      -1.679  12.706  21.388  0.00  0.00    +0.000 C 
ATOM      3  C   UNL     1      -1.172  12.215  22.713  0.00  0.00    +0.000 C 
ATOM      4  O   UNL     1      -1.312  12.792  23.777  0.00  0.00    +0.000 OA
ATOM      5  C   UNL     1      -0.453  10.875  22.560  0.00  0.00    +0.000 C 
ATOM      6  O   UNL     1      -0.046  10.208  23.484  0.00  0.00    +0.000 OA
ATOM      7  N   UNL     1      -0.370  10.649  21.196  0.00  0.00    +0.000 N 
ENDROOT
BRANCH   1  13
ATOM      8  C   UNL     1      -1.463  12.077  17.930  0.00  0.00    +0.000 A 
ATOM      9  C   UNL     1      -1.943  11.464  16.759  0.00  0.00    +0.000 A 
ATOM     10  C   UNL     1      -2.616  10.241  16.805  0.00  0.00    +0.000 A 
ATOM     11  C   UNL     1      -2.863   9.635  18.023  0.00  0.00    +0.000 A 
ATOM     12  C   UNL     1      -2.380  10.225  19.182  0.00  0.00    +0.000 A 
ATOM     13  C   UNL     1      -1.592  11.392  19.150  0.00  0.00    +0.000 A 
BRANCH   8  14
ATOM     14  O   UNL     1      -0.879  13.325  17.944  0.00  0.00    +0.000 OA
BRANCH  14  15
ATOM     15  C   UNL     1       0.536  13.293  18.202  0.00  0.00    +0.000 C 
BRANCH  15  17
ATOM     16  C   UNL     1       0.018  15.483  18.943  0.00  0.00    +0.000 C 
ATOM     17  O   UNL     1       1.017  14.484  18.819  0.00  0.00    +0.000 OA
ENDBRANCH  15  17
ENDBRANCH  14  15
ENDBRANCH   8  14
ENDBRANCH   1  13
BRANCH   7  18
ATOM     18  C   UNL     1       0.387   9.578  20.641  0.00  0.00    +0.000 A 
ATOM     19  C   UNL     1       1.006   9.757  19.399  0.00  0.00    +0.000 A 
ATOM     20  C   UNL     1       1.886   8.795  18.875  0.00  0.00    +0.000 A 
ATOM     21  C   UNL     1       2.105   7.576  19.527  0.00  0.00    +0.000 A 
ATOM     22  C   UNL     1       1.422   7.368  20.737  0.00  0.00    +0.000 A 
ATOM     23  C   UNL     1       0.587   8.364  21.302  0.00  0.00    +0.000 A 
BRANCH  21  24
ATOM     24  C   UNL     1       3.002   6.573  18.930  0.00  0.00    +0.000 A 
ATOM     25  C   UNL     1       3.455   5.327  19.335  0.00  0.00    +0.000 A 
ATOM     26  C   UNL     1       4.346   4.858  18.342  0.00  0.00    +0.000 A 
ATOM     27  C   UNL     1       4.381   5.837  17.374  0.00  0.00    +0.000 A 
ATOM     28  C   UNL     1       5.124   5.962  16.100  0.00  0.00    +0.000 C 
ATOM     29  O   UNL     1       3.562   6.874  17.716  0.00  0.00    +0.000 OA
ENDBRANCH  21  24
ENDBRANCH   7  18
BRANCH   2  30
ATOM     30  C   UNL     1      -3.209  12.644  21.378  0.00  0.00    +0.000 C 
ATOM     31  O   UNL     1      -3.822  12.079  22.285  0.00  0.00    +0.000 OA
BRANCH  30  32
ATOM     32  C   UNL     1      -3.951  13.327  20.211  0.00  0.00    +0.000 C 
BRANCH  32  33
ATOM     33  C   UNL     1      -5.298  12.672  19.806  0.00  0.00    +0.000 C 
ATOM     34  C   UNL     1      -6.499  13.548  20.178  0.00  0.00    +0.000 C 
ATOM     35  C   UNL     1      -5.360  12.386  18.296  0.00  0.00    +0.000 C 
ENDBRANCH  32  33
ENDBRANCH  30  32
ENDBRANCH   2  30
TORSDOF 9
ENDMDL
MODEL 5
REMARK VINA RESULT:      -6.8      3.350     10.630
REMARK  Name = 
REMARK  13 active torsions:
REMARK  status: ('A' for Active; 'I' for Inactive)
REMARK    1  A    between atoms: C_1  and  O_2
REMARK    2  A    between atoms: O_2  and  C_3
REMARK    3  A    between atoms: C_3  and  O_4
REMARK    4  A    between atoms: O_4  and  C_5
REMARK    5  A    between atoms: C_10  and  C_11
REMARK    6  A    between atoms: C_12  and  C_13
REMARK    7  A    between atoms: C_13  and  C_15
REMARK    8  A    between atoms: C_15  and  C_16
REMARK    9  A    between atoms: C_16  and  C_17
REMARK   10  A    between atoms: C_16  and  C_18
REMARK   11  A    between atoms: N_23  and  C_24
REMARK   12  A    between atoms: C_27  and  C_28
REMARK   13  A    between atoms: C_31  and  C_32
REMARK                            x       y       z     vdW  Elec       q    Type
REMARK                         _______ _______ _______ _____ _____    ______ ____
ROOT
ATOM      1  C   UNL     1      -0.843  11.898  20.484  0.00  0.00    +0.000 C 
ATOM      2  C   UNL     1      -1.649  12.811  21.447  0.00  0.00    +0.000 C 
ATOM      3  C   UNL     1      -1.187  12.288  22.777  0.00  0.00    +0.000 C 
ATOM      4  O   UNL     1      -1.337  12.855  23.844  0.00  0.00    +0.000 OA
ATOM      5  C   UNL     1      -0.504  10.931  22.622  0.00  0.00    +0.000 C 
ATOM      6  O   UNL     1      -0.138  10.239  23.544  0.00  0.00    +0.000 OA
ATOM      7  N   UNL     1      -0.394  10.721  21.257  0.00  0.00    +0.000 N 
ENDROOT
BRANCH   1  13
ATOM      8  C   UNL     1      -1.367  12.223  17.986  0.00  0.00    +0.000 A 
ATOM      9  C   UNL     1      -1.836  11.640  16.795  0.00  0.00    +0.000 A 
ATOM     10  C   UNL     1      -2.546  10.437  16.808  0.00  0.00    +0.000 A 
ATOM     11  C   UNL     1      -2.841   9.823  18.012  0.00  0.00    +0.000 A 
ATOM     12  C   UNL     1      -2.368  10.384  19.190  0.00  0.00    +0.000 A 
ATOM     13  C   UNL     1      -1.546  11.526  19.193  0.00  0.00    +0.000 A 
BRANCH   8  14
ATOM     14  O   UNL     1      -0.747  13.453  18.031  0.00  0.00    +0.000 OA
BRANCH  14  15
ATOM     15  C   UNL     1       0.674  13.371  18.242  0.00  0.00    +0.000 C 
BRANCH  15  17
ATOM     16  C   UNL     1       2.616  14.698  18.526  0.00  0.00    +0.000 C 
ATOM     17  O   UNL     1       1.227  14.570  18.779  0.00  0.00    +0.000 OA
ENDBRANCH  15  17
ENDBRANCH  14  15
ENDBRANCH   8  14
ENDBRANCH   1  13
BRANCH   7  18
ATOM     18  C   UNL     1       0.345   9.636  20.704  0.00  0.00    +0.000 A 
ATOM     19  C   UNL     1       0.972   9.804  19.465  0.00  0.00    +0.000 A 
ATOM     20  C   UNL     1       1.837   8.826  18.945  0.00  0.00    +0.000 A 
ATOM     21  C   UNL     1       2.030   7.602  19.596  0.00  0.00    +0.000 A 
ATOM     22  C   UNL     1       1.337   7.407  20.803  0.00  0.00    +0.000 A 
ATOM     23  C   UNL     1       0.519   8.418  21.365  0.00  0.00    +0.000 A 
BRANCH  21  24
ATOM     24  C   UNL     1       2.910   6.583  19.003  0.00  0.00    +0.000 A 
ATOM     25  C   UNL     1       3.612   6.497  17.811  0.00  0.00    +0.000 A 
ATOM     26  C   UNL     1       4.253   5.236  17.788  0.00  0.00    +0.000 A 
ATOM     27  C   UNL     1       3.919   4.621  18.975  0.00  0.00    +0.000 A 
ATOM     28  C   UNL     1       4.250   3.298  19.548  0.00  0.00    +0.000 C 
ATOM     29  O   UNL     1       3.116   5.434  19.722  0.00  0.00    +0.000 OA
ENDBRANCH  21  24
ENDBRANCH   7  18
BRANCH   2  30
ATOM     30  C   UNL     1      -3.179  12.794  21.400  0.00  0.00    +0.000 C 
ATOM     31  O   UNL     1      -3.822  12.042  22.134  0.00  0.00    +0.000 OA
BRANCH  30  32
ATOM     32  C   UNL     1      -3.882  13.758  20.423  0.00  0.00    +0.000 C 
BRANCH  32  33
ATOM     33  C   UNL     1      -5.337  13.378  20.045  0.00  0.00    +0.000 C 
ATOM     34  C   UNL     1      -6.180  14.607  19.686  0.00  0.00    +0.000 C 
ATOM     35  C   UNL     1      -5.381  12.401  18.858  0.00  0.00    +0.000 C 
ENDBRANCH  32  33
ENDBRANCH  30  32
ENDBRANCH   2  30
TORSDOF 9
ENDMDL
MODEL 6
REMARK VINA RESULT:      -6.8      3.381     10.547
REMARK  Name = 
REMARK  13 active torsions:
REMARK  status: ('A' for Active; 'I' for Inactive)
REMARK    1  A    between atoms: C_1  and  O_2
REMARK    2  A    between atoms: O_2  and  C_3
REMARK    3  A    between atoms: C_3  and  O_4
REMARK    4  A    between atoms: O_4  and  C_5
REMARK    5  A    between atoms: C_10  and  C_11
REMARK    6  A    between atoms: C_12  and  C_13
REMARK    7  A    between atoms: C_13  and  C_15
REMARK    8  A    between atoms: C_15  and  C_16
REMARK    9  A    between atoms: C_16  and  C_17
REMARK   10  A    between atoms: C_16  and  C_18
REMARK   11  A    between atoms: N_23  and  C_24
REMARK   12  A    between atoms: C_27  and  C_28
REMARK   13  A    between atoms: C_31  and  C_32
REMARK                            x       y       z     vdW  Elec       q    Type
REMARK                         _______ _______ _______ _____ _____    ______ ____
ROOT
ATOM      1  C   UNL     1      -0.849  11.872  20.438  0.00  0.00    +0.000 C 
ATOM      2  C   UNL     1      -1.728  12.714  21.402  0.00  0.00    +0.000 C 
ATOM      3  C   UNL     1      -1.222  12.233  22.731  0.00  0.00    +0.000 C 
ATOM      4  O   UNL     1      -1.418  12.785  23.799  0.00  0.00    +0.000 OA
ATOM      5  C   UNL     1      -0.426  10.938  22.576  0.00  0.00    +0.000 C 
ATOM      6  O   UNL     1      -0.001  10.281  23.498  0.00  0.00    +0.000 OA
ATOM      7  N   UNL     1      -0.301  10.738  21.211  0.00  0.00    +0.000 N 
ENDROOT
BRANCH   1  13
ATOM      8  C   UNL     1      -1.372  12.129  17.932  0.00  0.00    +0.000 A 
ATOM      9  C   UNL     1      -1.797  11.502  16.747  0.00  0.00    +0.000 A 
ATOM     10  C   UNL     1      -2.437  10.260  16.774  0.00  0.00    +0.000 A 
ATOM     11  C   UNL     1      -2.704   9.648  17.985  0.00  0.00    +0.000 A 
ATOM     12  C   UNL     1      -2.274  10.253  19.157  0.00  0.00    +0.000 A 
ATOM     13  C   UNL     1      -1.519  11.441  19.149  0.00  0.00    +0.000 A 
BRANCH   8  14
ATOM     14  O   UNL     1      -0.824  13.393  17.962  0.00  0.00    +0.000 OA
BRANCH  14  15
ATOM     15  C   UNL     1       0.587  13.400  18.244  0.00  0.00    +0.000 C 
BRANCH  15  17
ATOM     16  C   UNL     1       0.042  15.496  19.204  0.00  0.00    +0.000 C 
ATOM     17  O   UNL     1       1.065  14.675  18.666  0.00  0.00    +0.000 OA
ENDBRANCH  15  17
ENDBRANCH  14  15
ENDBRANCH   8  14
ENDBRANCH   1  13
BRANCH   7  18
ATOM     18  C   UNL     1       0.528   9.720  20.657  0.00  0.00    +0.000 A 
ATOM     19  C   UNL     1       0.740   8.546  21.387  0.00  0.00    +0.000 A 
ATOM     20  C   UNL     1       1.420   7.451  20.829  0.00  0.00    +0.000 A 
ATOM     21  C   UNL     1       2.000   7.523  19.557  0.00  0.00    +0.000 A 
ATOM     22  C   UNL     1       1.850   8.732  18.857  0.00  0.00    +0.000 A 
ATOM     23  C   UNL     1       1.106   9.814  19.389  0.00  0.00    +0.000 A 
BRANCH  21  24
ATOM     24  C   UNL     1       2.741   6.371  19.018  0.00  0.00    +0.000 A 
ATOM     25  C   UNL     1       3.390   6.123  17.819  0.00  0.00    +0.000 A 
ATOM     26  C   UNL     1       3.884   4.798  17.873  0.00  0.00    +0.000 A 
ATOM     27  C   UNL     1       3.521   4.310  19.109  0.00  0.00    +0.000 A 
ATOM     28  C   UNL     1       3.719   3.000  19.768  0.00  0.00    +0.000 C 
ATOM     29  O   UNL     1       2.839   5.259  19.814  0.00  0.00    +0.000 OA
ENDBRANCH  21  24
ENDBRANCH   7  18
BRANCH   2  30
ATOM     30  C   UNL     1      -3.252  12.566  21.357  0.00  0.00    +0.000 C 
ATOM     31  O   UNL     1      -3.857  12.007  22.273  0.00  0.00    +0.000 OA
BRANCH  30  32
ATOM     32  C   UNL     1      -3.998  13.155  20.143  0.00  0.00    +0.000 C 
BRANCH  32  33
ATOM     33  C   UNL     1      -5.263  12.376  19.698  0.00  0.00    +0.000 C 
ATOM     34  C   UNL     1      -6.552  13.024  20.215  0.00  0.00    +0.000 C 
ATOM     35  C   UNL     1      -5.357  12.271  18.166  0.00  0.00    +0.000 C 
ENDBRANCH  32  33
ENDBRANCH  30  32
ENDBRANCH   2  30
TORSDOF 9
ENDMDL
MODEL 7
REMARK VINA RESULT:      -6.7      1.023      1.429
REMARK  Name = 
REMARK  13 active torsions:
REMARK  status: ('A' for Active; 'I' for Inactive)
REMARK    1  A    between atoms: C_1  and  O_2
REMARK    2  A    between atoms: O_2  and  C_3
REMARK    3  A    between atoms: C_3  and  O_4
REMARK    4  A    between atoms: O_4  and  C_5
REMARK    5  A    between atoms: C_10  and  C_11
REMARK    6  A    between atoms: C_12  and  C_13
REMARK    7  A    between atoms: C_13  and  C_15
REMARK    8  A    between atoms: C_15  and  C_16
REMARK    9  A    between atoms: C_16  and  C_17
REMARK   10  A    between atoms: C_16  and  C_18
REMARK   11  A    between atoms: N_23  and  C_24
REMARK   12  A    between atoms: C_27  and  C_28
REMARK   13  A    between atoms: C_31  and  C_32
REMARK                            x       y       z     vdW  Elec       q    Type
REMARK                         _______ _______ _______ _____ _____    ______ ____
ROOT
ATOM      1  C   UNL     1       4.600   5.047  18.202  0.00  0.00    +0.000 C 
ATOM      2  C   UNL     1       5.820   4.510  17.405  0.00  0.00    +0.000 C 
ATOM      3  C   UNL     1       6.450   5.798  16.961  0.00  0.00    +0.000 C 
ATOM      4  O   UNL     1       7.581   5.912  16.524  0.00  0.00    +0.000 OA
ATOM      5  C   UNL     1       5.477   6.965  17.119  0.00  0.00    +0.000 C 
ATOM      6  O   UNL     1       5.691   8.092  16.734  0.00  0.00    +0.000 OA
ATOM      7  N   UNL     1       4.380   6.448  17.789  0.00  0.00    +0.000 N 
ENDROOT
BRANCH   1  13
ATOM      8  C   UNL     1       3.089   3.113  18.976  0.00  0.00    +0.000 A 
ATOM      9  C   UNL     1       1.791   2.575  19.013  0.00  0.00    +0.000 A 
ATOM     10  C   UNL     1       0.788   3.045  18.161  0.00  0.00    +0.000 A 
ATOM     11  C   UNL     1       1.078   4.023  17.227  0.00  0.00    +0.000 A 
ATOM     12  C   UNL     1       2.352   4.570  17.195  0.00  0.00    +0.000 A 
ATOM     13  C   UNL     1       3.344   4.202  18.125  0.00  0.00    +0.000 A 
BRANCH   8  14
ATOM     14  O   UNL     1       4.133   2.619  19.729  0.00  0.00    +0.000 OA
BRANCH  14  15
ATOM     15  C   UNL     1       3.713   2.026  20.971  0.00  0.00    +0.000 C 
BRANCH  15  17
ATOM     16  C   UNL     1       1.701   2.532  22.116  0.00  0.00    +0.000 C 
ATOM     17  O   UNL     1       3.025   2.942  21.820  0.00  0.00    +0.000 OA
ENDBRANCH  15  17
ENDBRANCH  14  15
ENDBRANCH   8  14
ENDBRANCH   1  13
BRANCH   7  18
ATOM     18  C   UNL     1       3.322   7.269  18.276  0.00  0.00    +0.000 A 
ATOM     19  C   UNL     1       2.854   7.070  19.579  0.00  0.00    +0.000 A 
ATOM     20  C   UNL     1       1.922   7.944  20.163  0.00  0.00    +0.000 A 
ATOM     21  C   UNL     1       1.350   8.993  19.434  0.00  0.00    +0.000 A 
ATOM     22  C   UNL     1       1.767   9.144  18.101  0.00  0.00    +0.000 A 
ATOM     23  C   UNL     1       2.757   8.305  17.530  0.00  0.00    +0.000 A 
BRANCH  21  24
ATOM     24  C   UNL     1       0.347   9.866  20.064  0.00  0.00    +0.000 A 
ATOM     25  C   UNL     1      -0.486  10.869  19.592  0.00  0.00    +0.000 A 
ATOM     26  C   UNL     1      -1.204  11.378  20.700  0.00  0.00    +0.000 A 
ATOM     27  C   UNL     1      -0.781  10.650  21.790  0.00  0.00    +0.000 A 
ATOM     28  C   UNL     1      -1.130  10.702  23.227  0.00  0.00    +0.000 C 
ATOM     29  O   UNL     1       0.149   9.725  21.413  0.00  0.00    +0.000 OA
ENDBRANCH  21  24
ENDBRANCH   7  18
BRANCH   2  30
ATOM     30  C   UNL     1       5.589   3.612  16.186  0.00  0.00    +0.000 C 
ATOM     31  O   UNL     1       5.555   2.386  16.306  0.00  0.00    +0.000 OA
BRANCH  30  32
ATOM     32  C   UNL     1       5.382   4.293  14.818  0.00  0.00    +0.000 C 
BRANCH  32  33
ATOM     33  C   UNL     1       6.333   3.817  13.689  0.00  0.00    +0.000 C 
ATOM     34  C   UNL     1       5.565   3.344  12.449  0.00  0.00    +0.000 C 
ATOM     35  C   UNL     1       7.305   4.927  13.258  0.00  0.00    +0.000 C 
ENDBRANCH  32  33
ENDBRANCH  30  32
ENDBRANCH   2  30
TORSDOF 9
ENDMDL
MODEL 8
REMARK VINA RESULT:      -6.6      4.586     10.928
REMARK  Name = 
REMARK  13 active torsions:
REMARK  status: ('A' for Active; 'I' for Inactive)
REMARK    1  A    between atoms: C_1  and  O_2
REMARK    2  A    between atoms: O_2  and  C_3
REMARK    3  A    between atoms: C_3  and  O_4
REMARK    4  A    between atoms: O_4  and  C_5
REMARK    5  A    between atoms: C_10  and  C_11
REMARK    6  A    between atoms: C_12  and  C_13
REMARK    7  A    between atoms: C_13  and  C_15
REMARK    8  A    between atoms: C_15  and  C_16
REMARK    9  A    between atoms: C_16  and  C_17
REMARK   10  A    between atoms: C_16  and  C_18
REMARK   11  A    between atoms: N_23  and  C_24
REMARK   12  A    between atoms: C_27  and  C_28
REMARK   13  A    between atoms: C_31  and  C_32
REMARK                            x       y       z     vdW  Elec       q    Type
REMARK                         _______ _______ _______ _____ _____    ______ ____
ROOT
ATOM      1  C   UNL     1       0.580  13.739  21.564  0.00  0.00    +0.000 C 
ATOM      2  C   UNL     1      -0.426  14.892  21.830  0.00  0.00    +0.000 C 
ATOM      3  C   UNL     1      -1.697  14.114  22.014  0.00  0.00    +0.000 C 
ATOM      4  O   UNL     1      -2.723  14.551  22.503  0.00  0.00    +0.000 OA
ATOM      5  C   UNL     1      -1.543  12.685  21.495  0.00  0.00    +0.000 C 
ATOM      6  O   UNL     1      -2.445  11.882  21.422  0.00  0.00    +0.000 OA
ATOM      7  N   UNL     1      -0.201  12.545  21.178  0.00  0.00    +0.000 N 
ENDROOT
BRANCH   1  13
ATOM      8  C   UNL     1       3.026  14.288  20.983  0.00  0.00    +0.000 A 
ATOM      9  C   UNL     1       4.029  14.295  19.998  0.00  0.00    +0.000 A 
ATOM     10  C   UNL     1       3.716  14.165  18.644  0.00  0.00    +0.000 A 
ATOM     11  C   UNL     1       2.394  14.075  18.247  0.00  0.00    +0.000 A 
ATOM     12  C   UNL     1       1.398  14.052  19.213  0.00  0.00    +0.000 A 
ATOM     13  C   UNL     1       1.697  14.056  20.589  0.00  0.00    +0.000 A 
BRANCH   8  14
ATOM     14  O   UNL     1       3.278  14.508  22.320  0.00  0.00    +0.000 OA
BRANCH  14  15
ATOM     15  C   UNL     1       4.680  14.596  22.631  0.00  0.00    +0.000 C 
BRANCH  15  17
ATOM     16  C   UNL     1       5.728  13.805  24.604  0.00  0.00    +0.000 C 
ATOM     17  O   UNL     1       5.163  13.463  23.350  0.00  0.00    +0.000 OA
ENDBRANCH  15  17
ENDBRANCH  14  15
ENDBRANCH   8  14
ENDBRANCH   1  13
BRANCH   7  18
ATOM     18  C   UNL     1       0.376  11.294  20.819  0.00  0.00    +0.000 A 
ATOM     19  C   UNL     1       0.710  10.386  21.829  0.00  0.00    +0.000 A 
ATOM     20  C   UNL     1       1.139   9.082  21.529  0.00  0.00    +0.000 A 
ATOM     21  C   UNL     1       1.344   8.669  20.207  0.00  0.00    +0.000 A 
ATOM     22  C   UNL     1       1.080   9.609  19.197  0.00  0.00    +0.000 A 
ATOM     23  C   UNL     1       0.582  10.902  19.495  0.00  0.00    +0.000 A 
BRANCH  21  24
ATOM     24  C   UNL     1       1.833   7.309  19.929  0.00  0.00    +0.000 A 
ATOM     25  C   UNL     1       2.584   6.749  18.908  0.00  0.00    +0.000 A 
ATOM     26  C   UNL     1       2.694   5.364  19.174  0.00  0.00    +0.000 A 
ATOM     27  C   UNL     1       2.014   5.152  20.354  0.00  0.00    +0.000 A 
ATOM     28  C   UNL     1       1.746   3.935  21.153  0.00  0.00    +0.000 C 
ATOM     29  O   UNL     1       1.500   6.325  20.824  0.00  0.00    +0.000 OA
ENDBRANCH  21  24
ENDBRANCH   7  18
BRANCH   2  30
ATOM     30  C   UNL     1      -0.641  15.967  20.761  0.00  0.00    +0.000 C 
ATOM     31  O   UNL     1      -1.438  15.786  19.839  0.00  0.00    +0.000 OA
BRANCH  30  32
ATOM     32  C   UNL     1       0.155  17.282  20.890  0.00  0.00    +0.000 C 
BRANCH  32  33
ATOM     33  C   UNL     1       1.302  17.468  19.863  0.00  0.00    +0.000 C 
ATOM     34  C   UNL     1       0.932  18.465  18.759  0.00  0.00    +0.000 C 
ATOM     35  C   UNL     1       2.595  17.955  20.537  0.00  0.00    +0.000 C 
ENDBRANCH  32  33
ENDBRANCH  30  32
ENDBRANCH   2  30
TORSDOF 9
ENDMDL
MODEL 9
REMARK VINA RESULT:      -6.6      7.607     11.255
REMARK  Name = 
REMARK  13 active torsions:
REMARK  status: ('A' for Active; 'I' for Inactive)
REMARK    1  A    between atoms: C_1  and  O_2
REMARK    2  A    between atoms: O_2  and  C_3
REMARK    3  A    between atoms: C_3  and  O_4
REMARK    4  A    between atoms: O_4  and  C_5
REMARK    5  A    between atoms: C_10  and  C_11
REMARK    6  A    between atoms: C_12  and  C_13
REMARK    7  A    between atoms: C_13  and  C_15
REMARK    8  A    between atoms: C_15  and  C_16
REMARK    9  A    between atoms: C_16  and  C_17
REMARK   10  A    between atoms: C_16  and  C_18
REMARK   11  A    between atoms: N_23  and  C_24
REMARK   12  A    between atoms: C_27  and  C_28
REMARK   13  A    between atoms: C_31  and  C_32
REMARK                            x       y       z     vdW  Elec       q    Type
REMARK                         _______ _______ _______ _____ _____    ______ ____
ROOT
ATOM      1  C   UNL     1       0.214  13.135  20.263  0.00  0.00    +0.000 C 
ATOM      2  C   UNL     1      -0.798  11.967  20.112  0.00  0.00    +0.000 C 
ATOM      3  C   UNL     1       0.085  10.909  19.515  0.00  0.00    +0.000 C 
ATOM      4  O   UNL     1      -0.183   9.723  19.454  0.00  0.00    +0.000 OA
ATOM      5  C   UNL     1       1.379  11.518  18.978  0.00  0.00    +0.000 C 
ATOM      6  O   UNL     1       2.214  10.908  18.351  0.00  0.00    +0.000 OA
ATOM      7  N   UNL     1       1.366  12.843  19.384  0.00  0.00    +0.000 N 
ENDROOT
BRANCH   1  13
ATOM      8  C   UNL     1      -0.891  15.306  21.089  0.00  0.00    +0.000 A 
ATOM      9  C   UNL     1      -1.131  16.671  20.850  0.00  0.00    +0.000 A 
ATOM     10  C   UNL     1      -0.928  17.231  19.587  0.00  0.00    +0.000 A 
ATOM     11  C   UNL     1      -0.531  16.429  18.532  0.00  0.00    +0.000 A 
ATOM     12  C   UNL     1      -0.277  15.085  18.763  0.00  0.00    +0.000 A 
ATOM     13  C   UNL     1      -0.353  14.524  20.053  0.00  0.00    +0.000 A 
BRANCH   8  14
ATOM     14  O   UNL     1      -1.167  14.691  22.292  0.00  0.00    +0.000 OA
BRANCH  14  15
ATOM     15  C   UNL     1      -0.704  15.433  23.434  0.00  0.00    +0.000 C 
BRANCH  15  17
ATOM     16  C   UNL     1      -1.180  15.664  25.744  0.00  0.00    +0.000 C 
ATOM     17  O   UNL     1      -0.956  14.767  24.670  0.00  0.00    +0.000 OA
ENDBRANCH  15  17
ENDBRANCH  14  15
ENDBRANCH   8  14
ENDBRANCH   1  13
BRANCH   7  18
ATOM     18  C   UNL     1       2.487  13.706  19.223  0.00  0.00    +0.000 A 
ATOM     19  C   UNL     1       3.237  14.062  20.348  0.00  0.00    +0.000 A 
ATOM     20  C   UNL     1       4.437  14.784  20.230  0.00  0.00    +0.000 A 
ATOM     21  C   UNL     1       4.881  15.261  18.991  0.00  0.00    +0.000 A 
ATOM     22  C   UNL     1       4.084  14.967  17.872  0.00  0.00    +0.000 A 
ATOM     23  C   UNL     1       2.910  14.181  17.980  0.00  0.00    +0.000 A 
BRANCH  21  24
ATOM     24  C   UNL     1       6.122  16.049  18.908  0.00  0.00    +0.000 A 
ATOM     25  C   UNL     1       6.472  17.332  19.297  0.00  0.00    +0.000 A 
ATOM     26  C   UNL     1       7.815  17.541  18.904  0.00  0.00    +0.000 A 
ATOM     27  C   UNL     1       8.220  16.368  18.306  0.00  0.00    +0.000 A 
ATOM     28  C   UNL     1       9.492  15.949  17.677  0.00  0.00    +0.000 C 
ATOM     29  O   UNL     1       7.205  15.455  18.314  0.00  0.00    +0.000 OA
ENDBRANCH  21  24
ENDBRANCH   7  18
BRANCH   2  30
ATOM     30  C   UNL     1      -2.036  12.150  19.228  0.00  0.00    +0.000 C 
ATOM     31  O   UNL     1      -3.106  12.519  19.714  0.00  0.00    +0.000 OA
BRANCH  30  32
ATOM     32  C   UNL     1      -1.890  11.878  17.717  0.00  0.00    +0.000 C 
BRANCH  32  33
ATOM     33  C   UNL     1      -3.055  11.084  17.070  0.00  0.00    +0.000 C 
ATOM     34  C   UNL     1      -2.890  10.953  15.552  0.00  0.00    +0.000 C 
ATOM     35  C   UNL     1      -3.179   9.671  17.664  0.00  0.00    +0.000 C 
ENDBRANCH  32  33
ENDBRANCH  30  32
ENDBRANCH   2  30
TORSDOF 9
ENDMDL
