MODEL 1
REMARK VINA RESULT:      -7.4      0.000      0.000
REMARK  Name = 
REMARK  5 active torsions:
REMARK  status: ('A' for Active; 'I' for Inactive)
REMARK    1  A    between atoms: C_1  and  N_2
REMARK    2  A    between atoms: N_2  and  C_3
REMARK    3  A    between atoms: C_4  and  C_6
REMARK    4  A    between atoms: C_6  and  N_7
REMARK    5  A    between atoms: N_9  and  C_10
REMARK                            x       y       z     vdW  Elec       q    Type
REMARK                         _______ _______ _______ _____ _____    ______ ____
ROOT
ATOM      1  N   UNL     1       4.904   5.017  16.406  0.00  0.00    +0.000 N 
ATOM      2  C   UNL     1       4.849   6.333  16.181  0.00  0.00    +0.000 A 
ATOM      3  N   UNL     1       4.109   6.876  17.160  0.00  0.00    +0.000 N 
ATOM      4  C   UNL     1       3.884   8.304  17.345  0.00  0.00    +0.000 C 
ATOM      5  C   UNL     1       3.572   5.855  17.961  0.00  0.00    +0.000 A 
ATOM      6  C   UNL     1       4.024   4.674  17.432  0.00  0.00    +0.000 A 
ATOM      7  C   UNL     1       3.672   3.380  17.920  0.00  0.00    +0.000 C 
ATOM      8  O   UNL     1       3.966   2.298  17.429  0.00  0.00    +0.000 OA
ATOM      9  C   UNL     1       2.886   3.416  19.185  0.00  0.00    +0.000 A 
ATOM     10  C   UNL     1       2.618   2.196  19.827  0.00  0.00    +0.000 A 
ATOM     11  C   UNL     1       1.918   2.181  21.033  0.00  0.00    +0.000 A 
ATOM     12  C   UNL     1       1.477   3.375  21.597  0.00  0.00    +0.000 A 
ATOM     13  C   UNL     1       1.734   4.595  20.966  0.00  0.00    +0.000 A 
ATOM     14  C   UNL     1       2.445   4.626  19.756  0.00  0.00    +0.000 A 
ATOM     15  C   UNL     1       2.737   5.951  19.122  0.00  0.00    +0.000 C 
ATOM     16  O   UNL     1       2.291   6.977  19.631  0.00  0.00    +0.000 OA
ENDROOT
BRANCH   1  17
ATOM     17  C   UNL     1       5.734   4.068  15.630  0.00  0.00    +0.000 C 
BRANCH  17  21
ATOM     18  C   UNL     1       6.097   3.610  12.853  0.00  0.00    +0.000 C 
ATOM     19  N   UNL     1       7.065   4.438  13.567  0.00  0.00    +0.000 N 
ATOM     20  C   UNL     1       7.815   5.386  12.756  0.00  0.00    +0.000 C 
ATOM     21  C   UNL     1       6.909   4.747  14.918  0.00  0.00    +0.000 C 
ATOM     22  O   UNL     1       7.679   5.476  15.549  0.00  0.00    +0.000 OA
ENDBRANCH  17  21
ENDBRANCH   1  17
TORSDOF 2
ENDMDL
MODEL 2
REMARK VINA RESULT:      -7.2      2.875      6.881
REMARK  Name = 
REMARK  5 active torsions:
REMARK  status: ('A' for Active; 'I' for Inactive)
REMARK    1  A    between atoms: C_1  and  N_2
REMARK    2  A    between atoms: N_2  and  C_3
REMARK    3  A    between atoms: C_4  and  C_6
REMARK    4  A    between atoms: C_6  and  N_7
REMARK    5  A    between atoms: N_9  and  C_10
REMARK                            x       y       z     vdW  Elec       q    Type
REMARK                         _______ _______ _______ _____ _____    ______ ____
ROOT
ATOM      1  N   UNL     1       2.012   6.766  20.042  0.00  0.00    +0.000 N 
ATOM      2  C   UNL     1       1.280   5.848  20.680  0.00  0.00    +0.000 A 
ATOM      3  N   UNL     1       1.605   4.650  20.167  0.00  0.00    +0.000 N 
ATOM      4  C   UNL     1       1.107   3.370  20.654  0.00  0.00    +0.000 C 
ATOM      5  C   UNL     1       2.478   4.828  19.082  0.00  0.00    +0.000 A 
ATOM      6  C   UNL     1       2.674   6.180  18.964  0.00  0.00    +0.000 A 
ATOM      7  C   UNL     1       3.463   6.798  17.949  0.00  0.00    +0.000 C 
ATOM      8  O   UNL     1       3.593   7.997  17.739  0.00  0.00    +0.000 OA
ATOM      9  C   UNL     1       4.211   5.826  17.103  0.00  0.00    +0.000 A 
ATOM     10  C   UNL     1       5.132   6.336  16.173  0.00  0.00    +0.000 A 
ATOM     11  C   UNL     1       5.882   5.465  15.385  0.00  0.00    +0.000 A 
ATOM     12  C   UNL     1       5.714   4.088  15.513  0.00  0.00    +0.000 A 
ATOM     13  C   UNL     1       4.798   3.569  16.432  0.00  0.00    +0.000 A 
ATOM     14  C   UNL     1       4.042   4.434  17.238  0.00  0.00    +0.000 A 
ATOM     15  C   UNL     1       3.096   3.846  18.240  0.00  0.00    +0.000 C 
ATOM     16  O   UNL     1       2.946   2.628  18.290  0.00  0.00    +0.000 OA
ENDROOT
BRANCH   1  17
ATOM     17  C   UNL     1       2.052   8.202  20.399  0.00  0.00    +0.000 C 
BRANCH  17  21
ATOM     18  C   UNL     1       0.012   9.258  22.066  0.00  0.00    +0.000 C 
ATOM     19  N   UNL     1      -0.082   9.453  20.621  0.00  0.00    +0.000 N 
ATOM     20  C   UNL     1      -0.879  10.588  20.181  0.00  0.00    +0.000 C 
ATOM     21  C   UNL     1       0.919   9.008  19.756  0.00  0.00    +0.000 C 
ATOM     22  O   UNL     1       0.900   9.188  18.535  0.00  0.00    +0.000 OA
ENDBRANCH  17  21
ENDBRANCH   1  17
TORSDOF 2
ENDMDL
MODEL 3
REMARK VINA RESULT:      -7.2      2.946      6.805
REMARK  Name = 
REMARK  5 active torsions:
REMARK  status: ('A' for Active; 'I' for Inactive)
REMARK    1  A    between atoms: C_1  and  N_2
REMARK    2  A    between atoms: N_2  and  C_3
REMARK    3  A    between atoms: C_4  and  C_6
REMARK    4  A    between atoms: C_6  and  N_7
REMARK    5  A    between atoms: N_9  and  C_10
REMARK                            x       y       z     vdW  Elec       q    Type
REMARK                         _______ _______ _______ _____ _____    ______ ____
ROOT
ATOM      1  N   UNL     1       1.969   6.890  20.176  0.00  0.00    +0.000 N 
ATOM      2  C   UNL     1       1.310   5.960  20.874  0.00  0.00    +0.000 A 
ATOM      3  N   UNL     1       1.676   4.763  20.391  0.00  0.00    +0.000 N 
ATOM      4  C   UNL     1       1.264   3.477  20.940  0.00  0.00    +0.000 C 
ATOM      5  C   UNL     1       2.498   4.944  19.266  0.00  0.00    +0.000 A 
ATOM      6  C   UNL     1       2.620   6.299  19.094  0.00  0.00    +0.000 A 
ATOM      7  C   UNL     1       3.337   6.918  18.028  0.00  0.00    +0.000 C 
ATOM      8  O   UNL     1       3.398   8.114  17.772  0.00  0.00    +0.000 OA
ATOM      9  C   UNL     1       4.102   5.955  17.188  0.00  0.00    +0.000 A 
ATOM     10  C   UNL     1       4.960   6.476  16.206  0.00  0.00    +0.000 A 
ATOM     11  C   UNL     1       5.725   5.616  15.419  0.00  0.00    +0.000 A 
ATOM     12  C   UNL     1       5.633   4.238  15.601  0.00  0.00    +0.000 A 
ATOM     13  C   UNL     1       4.780   3.708  16.573  0.00  0.00    +0.000 A 
ATOM     14  C   UNL     1       4.011   4.562  17.377  0.00  0.00    +0.000 A 
ATOM     15  C   UNL     1       3.134   3.965  18.436  0.00  0.00    +0.000 C 
ATOM     16  O   UNL     1       3.049   2.743  18.533  0.00  0.00    +0.000 OA
ENDROOT
BRANCH   1  17
ATOM     17  C   UNL     1       1.949   8.338  20.482  0.00  0.00    +0.000 C 
BRANCH  17  21
ATOM     18  C   UNL     1       1.255  10.378  18.633  0.00  0.00    +0.000 C 
ATOM     19  N   UNL     1       0.270   9.956  19.626  0.00  0.00    +0.000 N 
ATOM     20  C   UNL     1      -1.124  10.197  19.283  0.00  0.00    +0.000 C 
ATOM     21  C   UNL     1       0.531   8.919  20.522  0.00  0.00    +0.000 C 
ATOM     22  O   UNL     1      -0.287   8.503  21.348  0.00  0.00    +0.000 OA
ENDBRANCH  17  21
ENDBRANCH   1  17
TORSDOF 2
ENDMDL
MODEL 4
REMARK VINA RESULT:      -7.1      1.976      3.799
REMARK  Name = 
REMARK  5 active torsions:
REMARK  status: ('A' for Active; 'I' for Inactive)
REMARK    1  A    between atoms: C_1  and  N_2
REMARK    2  A    between atoms: N_2  and  C_3
REMARK    3  A    between atoms: C_4  and  C_6
REMARK    4  A    between atoms: C_6  and  N_7
REMARK    5  A    between atoms: N_9  and  C_10
REMARK                            x       y       z     vdW  Elec       q    Type
REMARK                         _______ _______ _______ _____ _____    ______ ____
ROOT
ATOM      1  N   UNL     1       4.151   3.853  17.646  0.00  0.00    +0.000 N 
ATOM      2  C   UNL     1       4.114   2.899  18.580  0.00  0.00    +0.000 A 
ATOM      3  N   UNL     1       3.430   3.388  19.626  0.00  0.00    +0.000 N 
ATOM      4  C   UNL     1       3.074   2.632  20.820  0.00  0.00    +0.000 C 
ATOM      5  C   UNL     1       3.134   4.742  19.398  0.00  0.00    +0.000 A 
ATOM      6  C   UNL     1       3.658   5.048  18.169  0.00  0.00    +0.000 A 
ATOM      7  C   UNL     1       3.620   6.343  17.572  0.00  0.00    +0.000 C 
ATOM      8  O   UNL     1       4.153   6.694  16.527  0.00  0.00    +0.000 OA
ATOM      9  C   UNL     1       2.800   7.326  18.335  0.00  0.00    +0.000 A 
ATOM     10  C   UNL     1       2.575   8.585  17.756  0.00  0.00    +0.000 A 
ATOM     11  C   UNL     1       1.784   9.525  18.415  0.00  0.00    +0.000 A 
ATOM     12  C   UNL     1       1.221   9.218  19.652  0.00  0.00    +0.000 A 
ATOM     13  C   UNL     1       1.441   7.970  20.239  0.00  0.00    +0.000 A 
ATOM     14  C   UNL     1       2.228   7.011  19.584  0.00  0.00    +0.000 A 
ATOM     15  C   UNL     1       2.414   5.668  20.222  0.00  0.00    +0.000 C 
ATOM     16  O   UNL     1       1.937   5.455  21.334  0.00  0.00    +0.000 OA
ENDROOT
BRANCH   1  17
ATOM     17  C   UNL     1       4.697   3.671  16.281  0.00  0.00    +0.000 C 
BRANCH  17  21
ATOM     18  C   UNL     1       5.805   3.928  13.681  0.00  0.00    +0.000 C 
ATOM     19  N   UNL     1       6.636   4.244  14.840  0.00  0.00    +0.000 N 
ATOM     20  C   UNL     1       7.748   5.152  14.599  0.00  0.00    +0.000 C 
ATOM     21  C   UNL     1       6.131   4.193  16.139  0.00  0.00    +0.000 C 
ATOM     22  O   UNL     1       6.785   4.492  17.142  0.00  0.00    +0.000 OA
ENDBRANCH  17  21
ENDBRANCH   1  17
TORSDOF 2
ENDMDL
MODEL 5
REMARK VINA RESULT:      -7.0      3.078      7.147
REMARK  Name = 
REMARK  5 active torsions:
REMARK  status: ('A' for Active; 'I' for Inactive)
REMARK    1  A    between atoms: C_1  and  N_2
REMARK    2  A    between atoms: N_2  and  C_3
REMARK    3  A    between atoms: C_4  and  C_6
REMARK    4  A    between atoms: C_6  and  N_7
REMARK    5  A    between atoms: N_9  and  C_10
REMARK                            x       y       z     vdW  Elec       q    Type
REMARK                         _______ _______ _______ _____ _____    ______ ____
ROOT
ATOM      1  N   UNL     1       1.949   7.182  19.970  0.00  0.00    +0.000 N 
ATOM      2  C   UNL     1       1.519   6.300  20.877  0.00  0.00    +0.000 A 
ATOM      3  N   UNL     1       2.150   5.140  20.638  0.00  0.00    +0.000 N 
ATOM      4  C   UNL     1       2.041   3.943  21.463  0.00  0.00    +0.000 C 
ATOM      5  C   UNL     1       2.909   5.255  19.462  0.00  0.00    +0.000 A 
ATOM      6  C   UNL     1       2.719   6.533  19.006  0.00  0.00    +0.000 A 
ATOM      7  C   UNL     1       3.277   7.054  17.801  0.00  0.00    +0.000 C 
ATOM      8  O   UNL     1       3.064   8.150  17.298  0.00  0.00    +0.000 OA
ATOM      9  C   UNL     1       4.243   6.129  17.144  0.00  0.00    +0.000 A 
ATOM     10  C   UNL     1       4.961   6.605  16.035  0.00  0.00    +0.000 A 
ATOM     11  C   UNL     1       5.902   5.789  15.410  0.00  0.00    +0.000 A 
ATOM     12  C   UNL     1       6.127   4.498  15.880  0.00  0.00    +0.000 A 
ATOM     13  C   UNL     1       5.417   4.011  16.980  0.00  0.00    +0.000 A 
ATOM     14  C   UNL     1       4.472   4.824  17.625  0.00  0.00    +0.000 A 
ATOM     15  C   UNL     1       3.753   4.287  18.825  0.00  0.00    +0.000 C 
ATOM     16  O   UNL     1       3.949   3.127  19.179  0.00  0.00    +0.000 OA
ENDROOT
BRANCH   1  17
ATOM     17  C   UNL     1       1.599   8.621  19.967  0.00  0.00    +0.000 C 
BRANCH  17  21
ATOM     18  C   UNL     1      -0.674  10.309  20.168  0.00  0.00    +0.000 C 
ATOM     19  N   UNL     1       0.091  10.004  21.374  0.00  0.00    +0.000 N 
ATOM     20  C   UNL     1      -0.629  10.125  22.633  0.00  0.00    +0.000 C 
ATOM     21  C   UNL     1       1.182   9.135  21.349  0.00  0.00    +0.000 C 
ATOM     22  O   UNL     1       1.830   8.818  22.351  0.00  0.00    +0.000 OA
ENDBRANCH  17  21
ENDBRANCH   1  17
TORSDOF 2
ENDMDL
MODEL 6
REMARK VINA RESULT:      -6.9      1.956      3.616
REMARK  Name = 
REMARK  5 active torsions:
REMARK  status: ('A' for Active; 'I' for Inactive)
REMARK    1  A    between atoms: C_1  and  N_2
REMARK    2  A    between atoms: N_2  and  C_3
REMARK    3  A    between atoms: C_4  and  C_6
REMARK    4  A    between atoms: C_6  and  N_7
REMARK    5  A    between atoms: N_9  and  C_10
REMARK                            x       y       z     vdW  Elec       q    Type
REMARK                         _______ _______ _______ _____ _____    ______ ____
ROOT
ATOM      1  N   UNL     1       4.337   4.725  16.970  0.00  0.00    +0.000 N 
ATOM      2  C   UNL     1       4.612   3.596  17.631  0.00  0.00    +0.000 A 
ATOM      3  N   UNL     1       4.024   3.684  18.834  0.00  0.00    +0.000 N 
ATOM      4  C   UNL     1       3.994   2.619  19.829  0.00  0.00    +0.000 C 
ATOM      5  C   UNL     1       3.466   4.963  18.990  0.00  0.00    +0.000 A 
ATOM      6  C   UNL     1       3.732   5.642  17.829  0.00  0.00    +0.000 A 
ATOM      7  C   UNL     1       3.379   7.003  17.587  0.00  0.00    +0.000 C 
ATOM      8  O   UNL     1       3.675   7.683  16.614  0.00  0.00    +0.000 OA
ATOM      9  C   UNL     1       2.530   7.595  18.659  0.00  0.00    +0.000 A 
ATOM     10  C   UNL     1       2.003   8.880  18.445  0.00  0.00    +0.000 A 
ATOM     11  C   UNL     1       1.173   9.461  19.402  0.00  0.00    +0.000 A 
ATOM     12  C   UNL     1       0.871   8.772  20.574  0.00  0.00    +0.000 A 
ATOM     13  C   UNL     1       1.392   7.496  20.799  0.00  0.00    +0.000 A 
ATOM     14  C   UNL     1       2.222   6.894  19.841  0.00  0.00    +0.000 A 
ATOM     15  C   UNL     1       2.734   5.509  20.094  0.00  0.00    +0.000 C 
ATOM     16  O   UNL     1       2.479   4.955  21.161  0.00  0.00    +0.000 OA
ENDROOT
BRANCH   1  17
ATOM     17  C   UNL     1       4.688   4.974  15.554  0.00  0.00    +0.000 C 
BRANCH  17  21
ATOM     18  C   UNL     1       6.083   3.736  13.414  0.00  0.00    +0.000 C 
ATOM     19  N   UNL     1       6.815   4.616  14.322  0.00  0.00    +0.000 N 
ATOM     20  C   UNL     1       8.028   5.217  13.788  0.00  0.00    +0.000 C 
ATOM     21  C   UNL     1       6.173   5.298  15.356  0.00  0.00    +0.000 C 
ATOM     22  O   UNL     1       6.744   6.082  16.119  0.00  0.00    +0.000 OA
ENDBRANCH  17  21
ENDBRANCH   1  17
TORSDOF 2
ENDMDL
MODEL 7
REMARK VINA RESULT:      -6.7      3.044      7.238
REMARK  Name = 
REMARK  5 active torsions:
REMARK  status: ('A' for Active; 'I' for Inactive)
REMARK    1  A    between atoms: C_1  and  N_2
REMARK    2  A    between atoms: N_2  and  C_3
REMARK    3  A    between atoms: C_4  and  C_6
REMARK    4  A    between atoms: C_6  and  N_7
REMARK    5  A    between atoms: N_9  and  C_10
REMARK                            x       y       z     vdW  Elec       q    Type
REMARK                         _______ _______ _______ _____ _____    ______ ____
ROOT
ATOM      1  N   UNL     1       1.920   7.097  20.129  0.00  0.00    +0.000 N 
ATOM      2  C   UNL     1       1.320   6.183  20.896  0.00  0.00    +0.000 A 
ATOM      3  N   UNL     1       1.748   4.977  20.491  0.00  0.00    +0.000 N 
ATOM      4  C   UNL     1       1.413   3.712  21.133  0.00  0.00    +0.000 C 
ATOM      5  C   UNL     1       2.549   5.126  19.347  0.00  0.00    +0.000 A 
ATOM      6  C   UNL     1       2.593   6.470  19.082  0.00  0.00    +0.000 A 
ATOM      7  C   UNL     1       3.266   7.053  17.967  0.00  0.00    +0.000 C 
ATOM      8  O   UNL     1       3.258   8.230  17.629  0.00  0.00    +0.000 OA
ATOM      9  C   UNL     1       4.076   6.078  17.185  0.00  0.00    +0.000 A 
ATOM     10  C   UNL     1       4.896   6.577  16.159  0.00  0.00    +0.000 A 
ATOM     11  C   UNL     1       5.700   5.708  15.423  0.00  0.00    +0.000 A 
ATOM     12  C   UNL     1       5.687   4.343  15.700  0.00  0.00    +0.000 A 
ATOM     13  C   UNL     1       4.873   3.834  16.716  0.00  0.00    +0.000 A 
ATOM     14  C   UNL     1       4.064   4.698  17.470  0.00  0.00    +0.000 A 
ATOM     15  C   UNL     1       3.231   4.128  18.577  0.00  0.00    +0.000 C 
ATOM     16  O   UNL     1       3.216   2.913  18.759  0.00  0.00    +0.000 OA
ENDROOT
BRANCH   1  17
ATOM     17  C   UNL     1       1.822   8.560  20.335  0.00  0.00    +0.000 C 
BRANCH  17  21
ATOM     18  C   UNL     1       1.690   9.231  23.090  0.00  0.00    +0.000 C 
ATOM     19  N   UNL     1       0.464   9.253  22.296  0.00  0.00    +0.000 N 
ATOM     20  C   UNL     1      -0.605  10.103  22.797  0.00  0.00    +0.000 C 
ATOM     21  C   UNL     1       0.474   8.990  20.926  0.00  0.00    +0.000 C 
ATOM     22  O   UNL     1      -0.530   9.038  20.210  0.00  0.00    +0.000 OA
ENDBRANCH  17  21
ENDBRANCH   1  17
TORSDOF 2
ENDMDL
MODEL 8
REMARK VINA RESULT:      -6.4      1.742      3.304
REMARK  Name = 
REMARK  5 active torsions:
REMARK  status: ('A' for Active; 'I' for Inactive)
REMARK    1  A    between atoms: C_1  and  N_2
REMARK    2  A    between atoms: N_2  and  C_3
REMARK    3  A    between atoms: C_4  and  C_6
REMARK    4  A    between atoms: C_6  and  N_7
REMARK    5  A    between atoms: N_9  and  C_10
REMARK                            x       y       z     vdW  Elec       q    Type
REMARK                         _______ _______ _______ _____ _____    ______ ____
ROOT
ATOM      1  N   UNL     1       4.630   4.565  16.361  0.00  0.00    +0.000 N 
ATOM      2  C   UNL     1       4.791   3.255  16.570  0.00  0.00    +0.000 A 
ATOM      3  N   UNL     1       4.107   2.940  17.681  0.00  0.00    +0.000 N 
ATOM      4  C   UNL     1       3.938   1.591  18.205  0.00  0.00    +0.000 C 
ATOM      5  C   UNL     1       3.600   4.112  18.266  0.00  0.00    +0.000 A 
ATOM      6  C   UNL     1       3.998   5.147  17.460  0.00  0.00    +0.000 A 
ATOM      7  C   UNL     1       3.734   6.525  17.720  0.00  0.00    +0.000 C 
ATOM      8  O   UNL     1       4.146   7.490  17.091  0.00  0.00    +0.000 OA
ATOM      9  C   UNL     1       2.825   6.746  18.880  0.00  0.00    +0.000 A 
ATOM     10  C   UNL     1       2.383   8.056  19.127  0.00  0.00    +0.000 A 
ATOM     11  C   UNL     1       1.502   8.308  20.178  0.00  0.00    +0.000 A 
ATOM     12  C   UNL     1       1.066   7.263  20.989  0.00  0.00    +0.000 A 
ATOM     13  C   UNL     1       1.503   5.956  20.755  0.00  0.00    +0.000 A 
ATOM     14  C   UNL     1       2.382   5.686  19.695  0.00  0.00    +0.000 A 
ATOM     15  C   UNL     1       2.803   4.270  19.447  0.00  0.00    +0.000 C 
ATOM     16  O   UNL     1       2.430   3.384  20.213  0.00  0.00    +0.000 OA
ENDROOT
BRANCH   1  17
ATOM     17  C   UNL     1       5.114   5.289  15.164  0.00  0.00    +0.000 C 
BRANCH  17  21
ATOM     18  C   UNL     1       4.896   3.782  12.768  0.00  0.00    +0.000 C 
ATOM     19  N   UNL     1       6.199   3.895  13.419  0.00  0.00    +0.000 N 
ATOM     20  C   UNL     1       7.359   3.705  12.560  0.00  0.00    +0.000 C 
ATOM     21  C   UNL     1       6.381   4.670  14.565  0.00  0.00    +0.000 C 
ATOM     22  O   UNL     1       7.471   4.826  15.121  0.00  0.00    +0.000 OA
ENDBRANCH  17  21
ENDBRANCH   1  17
TORSDOF 2
ENDMDL
MODEL 9
REMARK VINA RESULT:      -6.4      1.498      2.023
REMARK  Name = 
REMARK  5 active torsions:
REMARK  status: ('A' for Active; 'I' for Inactive)
REMARK    1  A    between atoms: C_1  and  N_2
REMARK    2  A    between atoms: N_2  and  C_3
REMARK    3  A    between atoms: C_4  and  C_6
REMARK    4  A    between atoms: C_6  and  N_7
REMARK    5  A    between atoms: N_9  and  C_10
REMARK                            x       y       z     vdW  Elec       q    Type
REMARK                         _______ _______ _______ _____ _____    ______ ____
ROOT
ATOM      1  N   UNL     1       4.558   6.804  17.729  0.00  0.00    +0.000 N 
ATOM      2  C   UNL     1       3.789   7.892  17.627  0.00  0.00    +0.000 A 
ATOM      3  N   UNL     1       2.758   7.735  18.472  0.00  0.00    +0.000 N 
ATOM      4  C   UNL     1       1.738   8.740  18.743  0.00  0.00    +0.000 C 
ATOM      5  C   UNL     1       2.807   6.449  19.034  0.00  0.00    +0.000 A 
ATOM      6  C   UNL     1       3.913   5.839  18.502  0.00  0.00    +0.000 A 
ATOM      7  C   UNL     1       4.306   4.494  18.773  0.00  0.00    +0.000 C 
ATOM      8  O   UNL     1       5.222   3.871  18.254  0.00  0.00    +0.000 OA
ATOM      9  C   UNL     1       3.492   3.840  19.836  0.00  0.00    +0.000 A 
ATOM     10  C   UNL     1       3.892   2.570  20.283  0.00  0.00    +0.000 A 
ATOM     11  C   UNL     1       3.184   1.934  21.301  0.00  0.00    +0.000 A 
ATOM     12  C   UNL     1       2.075   2.553  21.872  0.00  0.00    +0.000 A 
ATOM     13  C   UNL     1       1.665   3.815  21.433  0.00  0.00    +0.000 A 
ATOM     14  C   UNL     1       2.373   4.471  20.414  0.00  0.00    +0.000 A 
ATOM     15  C   UNL     1       1.932   5.839  19.992  0.00  0.00    +0.000 C 
ATOM     16  O   UNL     1       0.922   6.331  20.490  0.00  0.00    +0.000 OA
ENDROOT
BRANCH   1  17
ATOM     17  C   UNL     1       5.869   6.637  17.061  0.00  0.00    +0.000 C 
BRANCH  17  21
ATOM     18  C   UNL     1       7.380   4.374  16.256  0.00  0.00    +0.000 C 
ATOM     19  N   UNL     1       6.552   5.061  15.268  0.00  0.00    +0.000 N 
ATOM     20  C   UNL     1       6.136   4.267  14.122  0.00  0.00    +0.000 C 
ATOM     21  C   UNL     1       5.742   6.143  15.616  0.00  0.00    +0.000 C 
ATOM     22  O   UNL     1       4.997   6.725  14.824  0.00  0.00    +0.000 OA
ENDBRANCH  17  21
ENDBRANCH   1  17
TORSDOF 2
ENDMDL
