MODEL 1
REMARK VINA RESULT:      -6.5      0.000      0.000
REMARK  Name = 
REMARK  6 active torsions:
REMARK  status: ('A' for Active; 'I' for Inactive)
REMARK    1  A    between atoms: C_1  and  C_2
REMARK    2  A    between atoms: C_2  and  C_3
REMARK    3  A    between atoms: C_7  and  C_8
REMARK    4  A    between atoms: C_15  and  C_17
REMARK    5  A    between atoms: C_17  and  N_18
REMARK    6  A    between atoms: C_24  and  C_25
REMARK                            x       y       z     vdW  Elec       q    Type
REMARK                         _______ _______ _______ _____ _____    ______ ____
ROOT
ATOM      1  C   UNL     1      -1.665  13.749  22.246  0.00  0.00    +0.000 C 
ATOM      2  C   UNL     1      -3.092  13.371  21.899  0.00  0.00    +0.000 C 
ATOM      3  O   UNL     1      -4.015  13.564  22.695  0.00  0.00    +0.000 OA
ATOM      4  C   UNL     1      -3.396  12.707  20.586  0.00  0.00    +0.000 C 
ATOM      5  C   UNL     1      -2.335  12.853  19.487  0.00  0.00    +0.000 C 
ATOM      6  N   UNL     1      -0.945  13.055  19.955  0.00  0.00    +0.000 N 
ATOM      7  C   UNL     1      -0.066  13.647  19.036  0.00  0.00    +0.000 C 
ATOM      8  O   UNL     1      -0.432  14.030  17.919  0.00  0.00    +0.000 OA
ATOM      9  C   UNL     1      -0.640  12.959  21.403  0.00  0.00    +0.000 C 
ENDROOT
BRANCH   5  10
ATOM     10  C   UNL     1      -2.438  11.721  18.438  0.00  0.00    +0.000 A 
ATOM     11  C   UNL     1      -3.552  11.650  17.575  0.00  0.00    +0.000 A 
ATOM     12  C   UNL     1      -3.648  10.684  16.571  0.00  0.00    +0.000 A 
ATOM     13  C   UNL     1      -2.670   9.707  16.454  0.00  0.00    +0.000 A 
ATOM     14  C   UNL     1      -1.583   9.722  17.321  0.00  0.00    +0.000 A 
ATOM     15  C   UNL     1      -1.452  10.736  18.277  0.00  0.00    +0.000 A 
ENDBRANCH   5  10
BRANCH   9  16
ATOM     16  C   UNL     1      -0.285  11.530  21.821  0.00  0.00    +0.000 A 
ATOM     17  C   UNL     1       0.711  10.825  21.115  0.00  0.00    +0.000 A 
ATOM     18  C   UNL     1       1.056   9.511  21.429  0.00  0.00    +0.000 A 
ATOM     19  C   UNL     1       0.423   8.868  22.480  0.00  0.00    +0.000 A 
ATOM     20  C   UNL     1      -0.539   9.546  23.215  0.00  0.00    +0.000 A 
ATOM     21  C   UNL     1      -0.887  10.863  22.889  0.00  0.00    +0.000 A 
ENDBRANCH   9  16
BRANCH   1  23
ATOM     22  C   UNL     1      -1.361  15.015  24.492  0.00  0.00    +0.000 C 
ATOM     23  C   UNL     1      -1.453  13.673  23.778  0.00  0.00    +0.000 C 
ENDBRANCH   1  23
BRANCH   7  24
ATOM     24  C   UNL     1       1.396  13.888  19.400  0.00  0.00    +0.000 C 
BRANCH  24  25
ATOM     25  N   UNL     1       1.929  15.066  18.677  0.00  0.00    +0.000 NA
ATOM     26  C   UNL     1       3.371  14.902  18.348  0.00  0.00    +0.000 C 
ATOM     27  C   UNL     1       4.284  14.891  19.586  0.00  0.00    +0.000 C 
ATOM     28  O   UNL     1       4.122  16.097  20.347  0.00  0.00    +0.000 OA
ATOM     29  C   UNL     1       2.757  16.292  20.732  0.00  0.00    +0.000 C 
ATOM     30  C   UNL     1       1.810  16.279  19.516  0.00  0.00    +0.000 C 
ENDBRANCH  24  25
ENDBRANCH   7  24
TORSDOF 5
ENDMDL
MODEL 2
REMARK VINA RESULT:      -6.5      2.132      4.919
REMARK  Name = 
REMARK  6 active torsions:
REMARK  status: ('A' for Active; 'I' for Inactive)
REMARK    1  A    between atoms: C_1  and  C_2
REMARK    2  A    between atoms: C_2  and  C_3
REMARK    3  A    between atoms: C_7  and  C_8
REMARK    4  A    between atoms: C_15  and  C_17
REMARK    5  A    between atoms: C_17  and  N_18
REMARK    6  A    between atoms: C_24  and  C_25
REMARK                            x       y       z     vdW  Elec       q    Type
REMARK                         _______ _______ _______ _____ _____    ______ ____
ROOT
ATOM      1  C   UNL     1       0.998  10.075  20.164  0.00  0.00    +0.000 C 
ATOM      2  C   UNL     1       0.287   9.311  21.265  0.00  0.00    +0.000 C 
ATOM      3  O   UNL     1       0.547   8.126  21.489  0.00  0.00    +0.000 OA
ATOM      4  C   UNL     1      -0.786   9.983  22.074  0.00  0.00    +0.000 C 
ATOM      5  C   UNL     1      -0.795  11.517  22.054  0.00  0.00    +0.000 C 
ATOM      6  N   UNL     1      -0.219  12.150  20.846  0.00  0.00    +0.000 N 
ATOM      7  C   UNL     1       0.212  13.476  20.992  0.00  0.00    +0.000 C 
ATOM      8  O   UNL     1       0.167  14.074  22.073  0.00  0.00    +0.000 OA
ATOM      9  C   UNL     1       0.183  11.301  19.698  0.00  0.00    +0.000 C 
ENDROOT
BRANCH   5  10
ATOM     10  C   UNL     1      -2.192  12.085  22.400  0.00  0.00    +0.000 A 
ATOM     11  C   UNL     1      -3.047  12.541  21.376  0.00  0.00    +0.000 A 
ATOM     12  C   UNL     1      -4.341  12.996  21.643  0.00  0.00    +0.000 A 
ATOM     13  C   UNL     1      -4.787  13.086  22.953  0.00  0.00    +0.000 A 
ATOM     14  C   UNL     1      -3.949  12.689  23.989  0.00  0.00    +0.000 A 
ATOM     15  C   UNL     1      -2.681  12.163  23.713  0.00  0.00    +0.000 A 
ENDBRANCH   5  10
BRANCH   9  16
ATOM     16  C   UNL     1      -0.966  11.091  18.709  0.00  0.00    +0.000 A 
ATOM     17  C   UNL     1      -1.702   9.888  18.741  0.00  0.00    +0.000 A 
ATOM     18  C   UNL     1      -2.738   9.627  17.846  0.00  0.00    +0.000 A 
ATOM     19  C   UNL     1      -3.084  10.578  16.899  0.00  0.00    +0.000 A 
ATOM     20  C   UNL     1      -2.401  11.785  16.863  0.00  0.00    +0.000 A 
ATOM     21  C   UNL     1      -1.354  12.038  17.761  0.00  0.00    +0.000 A 
ENDBRANCH   9  16
BRANCH   1  23
ATOM     22  C   UNL     1       2.112   9.755  17.842  0.00  0.00    +0.000 C 
ATOM     23  C   UNL     1       1.429   9.105  19.037  0.00  0.00    +0.000 C 
ENDBRANCH   1  23
BRANCH   7  24
ATOM     24  C   UNL     1       0.805  14.238  19.811  0.00  0.00    +0.000 C 
BRANCH  24  25
ATOM     25  N   UNL     1       2.033  14.960  20.215  0.00  0.00    +0.000 NA
ATOM     26  C   UNL     1       2.055  16.349  19.681  0.00  0.00    +0.000 C 
ATOM     27  C   UNL     1       2.178  16.414  18.149  0.00  0.00    +0.000 C 
ATOM     28  O   UNL     1       3.362  15.735  17.706  0.00  0.00    +0.000 OA
ATOM     29  C   UNL     1       3.383  14.375  18.155  0.00  0.00    +0.000 C 
ATOM     30  C   UNL     1       3.230  14.272  19.684  0.00  0.00    +0.000 C 
ENDBRANCH  24  25
ENDBRANCH   7  24
TORSDOF 5
ENDMDL
MODEL 3
REMARK VINA RESULT:      -6.4      2.109      5.179
REMARK  Name = 
REMARK  6 active torsions:
REMARK  status: ('A' for Active; 'I' for Inactive)
REMARK    1  A    between atoms: C_1  and  C_2
REMARK    2  A    between atoms: C_2  and  C_3
REMARK    3  A    between atoms: C_7  and  C_8
REMARK    4  A    between atoms: C_15  and  C_17
REMARK    5  A    between atoms: C_17  and  N_18
REMARK    6  A    between atoms: C_24  and  C_25
REMARK                            x       y       z     vdW  Elec       q    Type
REMARK                         _______ _______ _______ _____ _____    ______ ____
ROOT
ATOM      1  C   UNL     1       0.736  10.346  19.991  0.00  0.00    +0.000 C 
ATOM      2  C   UNL     1       0.241   9.604  21.218  0.00  0.00    +0.000 C 
ATOM      3  O   UNL     1       0.385   8.383  21.327  0.00  0.00    +0.000 OA
ATOM      4  C   UNL     1      -0.477  10.349  22.308  0.00  0.00    +0.000 C 
ATOM      5  C   UNL     1      -0.280  11.870  22.338  0.00  0.00    +0.000 C 
ATOM      6  N   UNL     1       0.039  12.505  21.039  0.00  0.00    +0.000 N 
ATOM      7  C   UNL     1       0.671  13.755  21.105  0.00  0.00    +0.000 C 
ATOM      8  O   UNL     1       0.996  14.280  22.176  0.00  0.00    +0.000 OA
ATOM      9  C   UNL     1       0.004  11.692  19.800  0.00  0.00    +0.000 C 
ENDROOT
BRANCH   5  10
ATOM     10  C   UNL     1      -1.444  12.583  23.066  0.00  0.00    +0.000 A 
ATOM     11  C   UNL     1      -2.696  11.947  23.197  0.00  0.00    +0.000 A 
ATOM     12  C   UNL     1      -3.750  12.530  23.906  0.00  0.00    +0.000 A 
ATOM     13  C   UNL     1      -3.607  13.804  24.436  0.00  0.00    +0.000 A 
ATOM     14  C   UNL     1      -2.399  14.476  24.283  0.00  0.00    +0.000 A 
ATOM     15  C   UNL     1      -1.322  13.859  23.637  0.00  0.00    +0.000 A 
ENDBRANCH   5  10
BRANCH   9  16
ATOM     16  C   UNL     1      -1.383  11.693  19.152  0.00  0.00    +0.000 A 
ATOM     17  C   UNL     1      -1.561  11.097  17.886  0.00  0.00    +0.000 A 
ATOM     18  C   UNL     1      -2.792  11.095  17.232  0.00  0.00    +0.000 A 
ATOM     19  C   UNL     1      -3.894  11.675  17.840  0.00  0.00    +0.000 A 
ATOM     20  C   UNL     1      -3.759  12.240  19.100  0.00  0.00    +0.000 A 
ATOM     21  C   UNL     1      -2.516  12.247  19.748  0.00  0.00    +0.000 A 
ENDBRANCH   9  16
BRANCH   1  23
ATOM     22  C   UNL     1       2.045   9.257  18.031  0.00  0.00    +0.000 C 
ATOM     23  C   UNL     1       0.716   9.407  18.759  0.00  0.00    +0.000 C 
ENDBRANCH   1  23
BRANCH   7  24
ATOM     24  C   UNL     1       1.032  14.514  19.832  0.00  0.00    +0.000 C 
BRANCH  24  25
ATOM     25  N   UNL     1       2.043  15.560  20.112  0.00  0.00    +0.000 NA
ATOM     26  C   UNL     1       1.546  16.915  19.751  0.00  0.00    +0.000 C 
ATOM     27  C   UNL     1       1.346  17.111  18.238  0.00  0.00    +0.000 C 
ATOM     28  O   UNL     1       2.570  16.868  17.528  0.00  0.00    +0.000 OA
ATOM     29  C   UNL     1       3.081  15.558  17.802  0.00  0.00    +0.000 C 
ATOM     30  C   UNL     1       3.264  15.317  19.313  0.00  0.00    +0.000 C 
ENDBRANCH  24  25
ENDBRANCH   7  24
TORSDOF 5
ENDMDL
MODEL 4
REMARK VINA RESULT:      -6.4      2.289      5.085
REMARK  Name = 
REMARK  6 active torsions:
REMARK  status: ('A' for Active; 'I' for Inactive)
REMARK    1  A    between atoms: C_1  and  C_2
REMARK    2  A    between atoms: C_2  and  C_3
REMARK    3  A    between atoms: C_7  and  C_8
REMARK    4  A    between atoms: C_15  and  C_17
REMARK    5  A    between atoms: C_17  and  N_18
REMARK    6  A    between atoms: C_24  and  C_25
REMARK                            x       y       z     vdW  Elec       q    Type
REMARK                         _______ _______ _______ _____ _____    ______ ____
ROOT
ATOM      1  C   UNL     1       0.594  10.752  20.374  0.00  0.00    +0.000 C 
ATOM      2  C   UNL     1       0.122   9.935  21.562  0.00  0.00    +0.000 C 
ATOM      3  O   UNL     1       0.598   8.822  21.800  0.00  0.00    +0.000 OA
ATOM      4  C   UNL     1      -0.975  10.458  22.446  0.00  0.00    +0.000 C 
ATOM      5  C   UNL     1      -1.247  11.966  22.375  0.00  0.00    +0.000 C 
ATOM      6  N   UNL     1      -0.895  12.626  21.097  0.00  0.00    +0.000 N 
ATOM      7  C   UNL     1      -0.685  14.011  21.157  0.00  0.00    +0.000 C 
ATOM      8  O   UNL     1      -0.736  14.646  22.217  0.00  0.00    +0.000 OA
ATOM      9  C   UNL     1      -0.455  11.800  19.946  0.00  0.00    +0.000 C 
ENDROOT
BRANCH   5  10
ATOM     10  C   UNL     1      -2.684  12.310  22.832  0.00  0.00    +0.000 A 
ATOM     11  C   UNL     1      -3.660  12.685  21.886  0.00  0.00    +0.000 A 
ATOM     12  C   UNL     1      -4.985  12.937  22.251  0.00  0.00    +0.000 A 
ATOM     13  C   UNL     1      -5.353  12.900  23.588  0.00  0.00    +0.000 A 
ATOM     14  C   UNL     1      -4.402  12.580  24.550  0.00  0.00    +0.000 A 
ATOM     15  C   UNL     1      -3.094  12.255  24.173  0.00  0.00    +0.000 A 
ENDBRANCH   5  10
BRANCH   9  16
ATOM     16  C   UNL     1      -1.634  11.354  19.077  0.00  0.00    +0.000 A 
ATOM     17  C   UNL     1      -2.786  12.163  18.996  0.00  0.00    +0.000 A 
ATOM     18  C   UNL     1      -3.903  11.794  18.247  0.00  0.00    +0.000 A 
ATOM     19  C   UNL     1      -3.890  10.606  17.535  0.00  0.00    +0.000 A 
ATOM     20  C   UNL     1      -2.758   9.803  17.568  0.00  0.00    +0.000 A 
ATOM     21  C   UNL     1      -1.643  10.175  18.330  0.00  0.00    +0.000 A 
ENDBRANCH   9  16
BRANCH   1  23
ATOM     22  C   UNL     1       1.962  10.466  18.187  0.00  0.00    +0.000 C 
ATOM     23  C   UNL     1       1.083   9.812  19.244  0.00  0.00    +0.000 C 
ENDBRANCH   1  23
BRANCH   7  24
ATOM     24  C   UNL     1      -0.335  14.801  19.900  0.00  0.00    +0.000 C 
BRANCH  24  25
ATOM     25  N   UNL     1      -0.106  16.228  20.224  0.00  0.00    +0.000 NA
ATOM     26  C   UNL     1      -0.977  17.122  19.414  0.00  0.00    +0.000 C 
ATOM     27  C   UNL     1      -0.637  17.114  17.913  0.00  0.00    +0.000 C 
ATOM     28  O   UNL     1       0.731  17.491  17.701  0.00  0.00    +0.000 OA
ATOM     29  C   UNL     1       1.627  16.639  18.424  0.00  0.00    +0.000 C 
ATOM     30  C   UNL     1       1.295  16.601  19.928  0.00  0.00    +0.000 C 
ENDBRANCH  24  25
ENDBRANCH   7  24
TORSDOF 5
ENDMDL
MODEL 5
REMARK VINA RESULT:      -6.4      5.701     10.630
REMARK  Name = 
REMARK  6 active torsions:
REMARK  status: ('A' for Active; 'I' for Inactive)
REMARK    1  A    between atoms: C_1  and  C_2
REMARK    2  A    between atoms: C_2  and  C_3
REMARK    3  A    between atoms: C_7  and  C_8
REMARK    4  A    between atoms: C_15  and  C_17
REMARK    5  A    between atoms: C_17  and  N_18
REMARK    6  A    between atoms: C_24  and  C_25
REMARK                            x       y       z     vdW  Elec       q    Type
REMARK                         _______ _______ _______ _____ _____    ______ ____
ROOT
ATOM      1  C   UNL     1       9.963  16.308  19.734  0.00  0.00    +0.000 C 
ATOM      2  C   UNL     1      10.863  16.249  20.953  0.00  0.00    +0.000 C 
ATOM      3  O   UNL     1      11.984  16.764  20.944  0.00  0.00    +0.000 OA
ATOM      4  C   UNL     1      10.413  15.516  22.185  0.00  0.00    +0.000 C 
ATOM      5  C   UNL     1       8.906  15.254  22.310  0.00  0.00    +0.000 C 
ATOM      6  N   UNL     1       8.158  15.168  21.035  0.00  0.00    +0.000 N 
ATOM      7  C   UNL     1       6.778  15.402  21.114  0.00  0.00    +0.000 C 
ATOM      8  O   UNL     1       6.216  15.714  22.170  0.00  0.00    +0.000 OA
ATOM      9  C   UNL     1       8.899  15.189  19.750  0.00  0.00    +0.000 C 
ENDROOT
BRANCH   5  10
ATOM     10  C   UNL     1       8.609  14.054  23.241  0.00  0.00    +0.000 A 
ATOM     11  C   UNL     1       8.470  14.251  24.631  0.00  0.00    +0.000 A 
ATOM     12  C   UNL     1       8.135  13.206  25.495  0.00  0.00    +0.000 A 
ATOM     13  C   UNL     1       8.010  11.915  25.004  0.00  0.00    +0.000 A 
ATOM     14  C   UNL     1       8.188  11.681  23.645  0.00  0.00    +0.000 A 
ATOM     15  C   UNL     1       8.450  12.742  22.771  0.00  0.00    +0.000 A 
ENDBRANCH   5  10
BRANCH   9  16
ATOM     16  C   UNL     1       9.300  13.783  19.296  0.00  0.00    +0.000 A 
ATOM     17  C   UNL     1       8.577  13.154  18.261  0.00  0.00    +0.000 A 
ATOM     18  C   UNL     1       8.875  11.863  17.825  0.00  0.00    +0.000 A 
ATOM     19  C   UNL     1       9.925  11.168  18.403  0.00  0.00    +0.000 A 
ATOM     20  C   UNL     1      10.676  11.773  19.401  0.00  0.00    +0.000 A 
ATOM     21  C   UNL     1      10.366  13.067  19.841  0.00  0.00    +0.000 A 
ENDBRANCH   9  16
BRANCH   1  23
ATOM     22  C   UNL     1      10.057  16.732  17.175  0.00  0.00    +0.000 C 
ATOM     23  C   UNL     1      10.819  16.383  18.445  0.00  0.00    +0.000 C 
ENDBRANCH   1  23
BRANCH   7  24
ATOM     24  C   UNL     1       5.901  15.323  19.868  0.00  0.00    +0.000 C 
BRANCH  24  25
ATOM     25  N   UNL     1       4.497  15.669  20.191  0.00  0.00    +0.000 NA
ATOM     26  C   UNL     1       3.591  14.502  20.021  0.00  0.00    +0.000 C 
ATOM     27  C   UNL     1       3.442  14.049  18.558  0.00  0.00    +0.000 C 
ATOM     28  O   UNL     1       2.961  15.125  17.740  0.00  0.00    +0.000 OA
ATOM     29  C   UNL     1       3.816  16.271  17.828  0.00  0.00    +0.000 C 
ATOM     30  C   UNL     1       4.011  16.733  19.285  0.00  0.00    +0.000 C 
ENDBRANCH  24  25
ENDBRANCH   7  24
TORSDOF 5
ENDMDL
MODEL 6
REMARK VINA RESULT:      -6.3      2.083      5.189
REMARK  Name = 
REMARK  6 active torsions:
REMARK  status: ('A' for Active; 'I' for Inactive)
REMARK    1  A    between atoms: C_1  and  C_2
REMARK    2  A    between atoms: C_2  and  C_3
REMARK    3  A    between atoms: C_7  and  C_8
REMARK    4  A    between atoms: C_15  and  C_17
REMARK    5  A    between atoms: C_17  and  N_18
REMARK    6  A    between atoms: C_24  and  C_25
REMARK                            x       y       z     vdW  Elec       q    Type
REMARK                         _______ _______ _______ _____ _____    ______ ____
ROOT
ATOM      1  C   UNL     1       0.916  10.114  20.162  0.00  0.00    +0.000 C 
ATOM      2  C   UNL     1       0.341   9.435  21.390  0.00  0.00    +0.000 C 
ATOM      3  O   UNL     1       0.476   8.222  21.571  0.00  0.00    +0.000 OA
ATOM      4  C   UNL     1      -0.446  10.233  22.391  0.00  0.00    +0.000 C 
ATOM      5  C   UNL     1      -0.250  11.754  22.356  0.00  0.00    +0.000 C 
ATOM      6  N   UNL     1       0.154  12.323  21.050  0.00  0.00    +0.000 N 
ATOM      7  C   UNL     1       0.783  13.575  21.092  0.00  0.00    +0.000 C 
ATOM      8  O   UNL     1       1.037  14.156  22.154  0.00  0.00    +0.000 OA
ATOM      9  C   UNL     1       0.199  11.447  19.855  0.00  0.00    +0.000 C 
ENDROOT
BRANCH   5  10
ATOM     10  C   UNL     1      -1.458  12.501  22.969  0.00  0.00    +0.000 A 
ATOM     11  C   UNL     1      -1.273  13.737  23.622  0.00  0.00    +0.000 A 
ATOM     12  C   UNL     1      -2.347  14.474  24.127  0.00  0.00    +0.000 A 
ATOM     13  C   UNL     1      -3.632  13.955  24.066  0.00  0.00    +0.000 A 
ATOM     14  C   UNL     1      -3.841  12.716  23.471  0.00  0.00    +0.000 A 
ATOM     15  C   UNL     1      -2.772  12.015  22.899  0.00  0.00    +0.000 A 
ENDBRANCH   5  10
BRANCH   9  16
ATOM     16  C   UNL     1      -1.142  11.412  19.118  0.00  0.00    +0.000 A 
ATOM     17  C   UNL     1      -2.190  12.258  19.537  0.00  0.00    +0.000 A 
ATOM     18  C   UNL     1      -3.443  12.249  18.926  0.00  0.00    +0.000 A 
ATOM     19  C   UNL     1      -3.678  11.401  17.856  0.00  0.00    +0.000 A 
ATOM     20  C   UNL     1      -2.658  10.580  17.398  0.00  0.00    +0.000 A 
ATOM     21  C   UNL     1      -1.403  10.587  18.023  0.00  0.00    +0.000 A 
ENDBRANCH   9  16
BRANCH   1  23
ATOM     22  C   UNL     1       2.054   9.392  17.943  0.00  0.00    +0.000 C 
ATOM     23  C   UNL     1       0.976   9.113  18.981  0.00  0.00    +0.000 C 
ENDBRANCH   1  23
BRANCH   7  24
ATOM     24  C   UNL     1       1.227  14.269  19.808  0.00  0.00    +0.000 C 
BRANCH  24  25
ATOM     25  N   UNL     1       2.305  15.246  20.085  0.00  0.00    +0.000 NA
ATOM     26  C   UNL     1       1.887  16.635  19.754  0.00  0.00    +0.000 C 
ATOM     27  C   UNL     1       1.671  16.868  18.249  0.00  0.00    +0.000 C 
ATOM     28  O   UNL     1       2.864  16.562  17.512  0.00  0.00    +0.000 OA
ATOM     29  C   UNL     1       3.298  15.218  17.755  0.00  0.00    +0.000 C 
ATOM     30  C   UNL     1       3.494  14.942  19.258  0.00  0.00    +0.000 C 
ENDBRANCH  24  25
ENDBRANCH   7  24
TORSDOF 5
ENDMDL
MODEL 7
REMARK VINA RESULT:      -6.3      2.250      5.338
REMARK  Name = 
REMARK  6 active torsions:
REMARK  status: ('A' for Active; 'I' for Inactive)
REMARK    1  A    between atoms: C_1  and  C_2
REMARK    2  A    between atoms: C_2  and  C_3
REMARK    3  A    between atoms: C_7  and  C_8
REMARK    4  A    between atoms: C_15  and  C_17
REMARK    5  A    between atoms: C_17  and  N_18
REMARK    6  A    between atoms: C_24  and  C_25
REMARK                            x       y       z     vdW  Elec       q    Type
REMARK                         _______ _______ _______ _____ _____    ______ ____
ROOT
ATOM      1  C   UNL     1       0.489  10.937  19.718  0.00  0.00    +0.000 C 
ATOM      2  C   UNL     1       0.218  10.118  20.965  0.00  0.00    +0.000 C 
ATOM      3  O   UNL     1       0.515   8.921  21.020  0.00  0.00    +0.000 OA
ATOM      4  C   UNL     1      -0.465  10.749  22.145  0.00  0.00    +0.000 C 
ATOM      5  C   UNL     1      -0.447  12.282  22.204  0.00  0.00    +0.000 C 
ATOM      6  N   UNL     1      -0.344  12.976  20.900  0.00  0.00    +0.000 N 
ATOM      7  C   UNL     1       0.141  14.291  20.940  0.00  0.00    +0.000 C 
ATOM      8  O   UNL     1       0.512  14.831  21.988  0.00  0.00    +0.000 OA
ATOM      9  C   UNL     1      -0.412  12.188  19.645  0.00  0.00    +0.000 C 
ENDROOT
BRANCH   5  10
ATOM     10  C   UNL     1      -1.604  12.835  23.069  0.00  0.00    +0.000 A 
ATOM     11  C   UNL     1      -2.785  12.084  23.241  0.00  0.00    +0.000 A 
ATOM     12  C   UNL     1      -3.823  12.519  24.069  0.00  0.00    +0.000 A 
ATOM     13  C   UNL     1      -3.744  13.759  24.685  0.00  0.00    +0.000 A 
ATOM     14  C   UNL     1      -2.612  14.544  24.496  0.00  0.00    +0.000 A 
ATOM     15  C   UNL     1      -1.542  14.073  23.727  0.00  0.00    +0.000 A 
ENDBRANCH   5  10
BRANCH   9  16
ATOM     16  C   UNL     1      -1.850  12.035  19.142  0.00  0.00    +0.000 A 
ATOM     17  C   UNL     1      -2.088  11.455  17.879  0.00  0.00    +0.000 A 
ATOM     18  C   UNL     1      -3.372  11.317  17.354  0.00  0.00    +0.000 A 
ATOM     19  C   UNL     1      -4.465  11.740  18.094  0.00  0.00    +0.000 A 
ATOM     20  C   UNL     1      -4.266  12.284  19.355  0.00  0.00    +0.000 A 
ATOM     21  C   UNL     1      -2.972  12.428  19.873  0.00  0.00    +0.000 A 
ENDBRANCH   9  16
BRANCH   1  23
ATOM     22  C   UNL     1       1.810   9.628  17.907  0.00  0.00    +0.000 C 
ATOM     23  C   UNL     1       0.451  10.026  18.465  0.00  0.00    +0.000 C 
ENDBRANCH   1  23
BRANCH   7  24
ATOM     24  C   UNL     1       0.273  15.113  19.661  0.00  0.00    +0.000 C 
BRANCH  24  25
ATOM     25  N   UNL     1       0.393  16.556  19.974  0.00  0.00    +0.000 NA
ATOM     26  C   UNL     1      -0.666  17.353  19.300  0.00  0.00    +0.000 C 
ATOM     27  C   UNL     1      -0.530  17.382  17.767  0.00  0.00    +0.000 C 
ATOM     28  O   UNL     1       0.751  17.903  17.381  0.00  0.00    +0.000 OA
ATOM     29  C   UNL     1       1.819  17.149  17.967  0.00  0.00    +0.000 C 
ATOM     30  C   UNL     1       1.695  17.075  19.501  0.00  0.00    +0.000 C 
ENDBRANCH  24  25
ENDBRANCH   7  24
TORSDOF 5
ENDMDL
MODEL 8
REMARK VINA RESULT:      -6.3      5.608     10.667
REMARK  Name = 
REMARK  6 active torsions:
REMARK  status: ('A' for Active; 'I' for Inactive)
REMARK    1  A    between atoms: C_1  and  C_2
REMARK    2  A    between atoms: C_2  and  C_3
REMARK    3  A    between atoms: C_7  and  C_8
REMARK    4  A    between atoms: C_15  and  C_17
REMARK    5  A    between atoms: C_17  and  N_18
REMARK    6  A    between atoms: C_24  and  C_25
REMARK                            x       y       z     vdW  Elec       q    Type
REMARK                         _______ _______ _______ _____ _____    ______ ____
ROOT
ATOM      1  C   UNL     1      10.040  16.017  19.414  0.00  0.00    +0.000 C 
ATOM      2  C   UNL     1      10.946  16.035  20.630  0.00  0.00    +0.000 C 
ATOM      3  O   UNL     1      12.084  16.508  20.571  0.00  0.00    +0.000 OA
ATOM      4  C   UNL     1      10.480  15.428  21.924  0.00  0.00    +0.000 C 
ATOM      5  C   UNL     1       8.967  15.230  22.078  0.00  0.00    +0.000 C 
ATOM      6  N   UNL     1       8.207  15.058  20.818  0.00  0.00    +0.000 N 
ATOM      7  C   UNL     1       6.836  15.347  20.883  0.00  0.00    +0.000 C 
ATOM      8  O   UNL     1       6.293  15.770  21.910  0.00  0.00    +0.000 OA
ATOM      9  C   UNL     1       8.939  14.941  19.534  0.00  0.00    +0.000 C 
ENDROOT
BRANCH   5  10
ATOM     10  C   UNL     1       8.636  14.129  23.113  0.00  0.00    +0.000 A 
ATOM     11  C   UNL     1       8.415  12.801  22.691  0.00  0.00    +0.000 A 
ATOM     12  C   UNL     1       8.182  11.767  23.601  0.00  0.00    +0.000 A 
ATOM     13  C   UNL     1       8.082  12.046  24.956  0.00  0.00    +0.000 A 
ATOM     14  C   UNL     1       8.249  13.353  25.398  0.00  0.00    +0.000 A 
ATOM     15  C   UNL     1       8.556  14.375  24.492  0.00  0.00    +0.000 A 
ENDBRANCH   5  10
BRANCH   9  16
ATOM     16  C   UNL     1       9.288  13.488  19.203  0.00  0.00    +0.000 A 
ATOM     17  C   UNL     1      10.340  12.850  19.892  0.00  0.00    +0.000 A 
ATOM     18  C   UNL     1      10.725  11.539  19.613  0.00  0.00    +0.000 A 
ATOM     19  C   UNL     1      10.047  10.817  18.644  0.00  0.00    +0.000 A 
ATOM     20  C   UNL     1       8.985  11.405  17.972  0.00  0.00    +0.000 A 
ATOM     21  C   UNL     1       8.610  12.726  18.251  0.00  0.00    +0.000 A 
ENDBRANCH   9  16
BRANCH   1  23
ATOM     22  C   UNL     1      10.547  16.986  17.060  0.00  0.00    +0.000 C 
ATOM     23  C   UNL     1      10.888  15.948  18.120  0.00  0.00    +0.000 C 
ENDBRANCH   1  23
BRANCH   7  24
ATOM     24  C   UNL     1       5.948  15.188  19.653  0.00  0.00    +0.000 C 
BRANCH  24  25
ATOM     25  N   UNL     1       4.613  15.787  19.889  0.00  0.00    +0.000 NA
ATOM     26  C   UNL     1       3.579  14.745  20.132  0.00  0.00    +0.000 C 
ATOM     27  C   UNL     1       3.286  13.874  18.898  0.00  0.00    +0.000 C 
ATOM     28  O   UNL     1       2.867  14.685  17.791  0.00  0.00    +0.000 OA
ATOM     29  C   UNL     1       3.843  15.686  17.479  0.00  0.00    +0.000 C 
ATOM     30  C   UNL     1       4.182  16.559  18.702  0.00  0.00    +0.000 C 
ENDBRANCH  24  25
ENDBRANCH   7  24
TORSDOF 5
ENDMDL
MODEL 9
REMARK VINA RESULT:      -6.3      2.084      4.901
REMARK  Name = 
REMARK  6 active torsions:
REMARK  status: ('A' for Active; 'I' for Inactive)
REMARK    1  A    between atoms: C_1  and  C_2
REMARK    2  A    between atoms: C_2  and  C_3
REMARK    3  A    between atoms: C_7  and  C_8
REMARK    4  A    between atoms: C_15  and  C_17
REMARK    5  A    between atoms: C_17  and  N_18
REMARK    6  A    between atoms: C_24  and  C_25
REMARK                            x       y       z     vdW  Elec       q    Type
REMARK                         _______ _______ _______ _____ _____    ______ ____
ROOT
ATOM      1  C   UNL     1       0.982  10.054  20.099  0.00  0.00    +0.000 C 
ATOM      2  C   UNL     1       0.304   9.326  21.244  0.00  0.00    +0.000 C 
ATOM      3  O   UNL     1       0.586   8.155  21.511  0.00  0.00    +0.000 OA
ATOM      4  C   UNL     1      -0.763  10.016  22.046  0.00  0.00    +0.000 C 
ATOM      5  C   UNL     1      -0.796  11.548  21.962  0.00  0.00    +0.000 C 
ATOM      6  N   UNL     1      -0.253  12.137  20.717  0.00  0.00    +0.000 N 
ATOM      7  C   UNL     1       0.161  13.474  20.799  0.00  0.00    +0.000 C 
ATOM      8  O   UNL     1       0.128  14.117  21.856  0.00  0.00    +0.000 OA
ATOM      9  C   UNL     1       0.140  11.247  19.598  0.00  0.00    +0.000 C 
ENDROOT
BRANCH   5  10
ATOM     10  C   UNL     1      -2.194  12.110  22.312  0.00  0.00    +0.000 A 
ATOM     11  C   UNL     1      -2.627  12.154  23.654  0.00  0.00    +0.000 A 
ATOM     12  C   UNL     1      -3.853  12.717  24.016  0.00  0.00    +0.000 A 
ATOM     13  C   UNL     1      -4.720  13.178  23.036  0.00  0.00    +0.000 A 
ATOM     14  C   UNL     1      -4.342  13.104  21.700  0.00  0.00    +0.000 A 
ATOM     15  C   UNL     1      -3.081  12.608  21.346  0.00  0.00    +0.000 A 
ENDBRANCH   5  10
BRANCH   9  16
ATOM     16  C   UNL     1      -1.025  10.980  18.642  0.00  0.00    +0.000 A 
ATOM     17  C   UNL     1      -1.334  11.923  17.639  0.00  0.00    +0.000 A 
ATOM     18  C   UNL     1      -2.401  11.750  16.759  0.00  0.00    +0.000 A 
ATOM     19  C   UNL     1      -3.183  10.609  16.845  0.00  0.00    +0.000 A 
ATOM     20  C   UNL     1      -2.884   9.647  17.799  0.00  0.00    +0.000 A 
ATOM     21  C   UNL     1      -1.815   9.831  18.686  0.00  0.00    +0.000 A 
ENDBRANCH   9  16
BRANCH   1  23
ATOM     22  C   UNL     1       2.125   9.644  17.804  0.00  0.00    +0.000 C 
ATOM     23  C   UNL     1       1.406   9.043  19.004  0.00  0.00    +0.000 C 
ENDBRANCH   1  23
BRANCH   7  24
ATOM     24  C   UNL     1       0.720  14.194  19.576  0.00  0.00    +0.000 C 
BRANCH  24  25
ATOM     25  N   UNL     1       2.177  13.960  19.449  0.00  0.00    +0.000 NA
ATOM     26  C   UNL     1       2.940  14.653  20.521  0.00  0.00    +0.000 C 
ATOM     27  C   UNL     1       2.889  16.187  20.417  0.00  0.00    +0.000 C 
ATOM     28  O   UNL     1       3.386  16.626  19.144  0.00  0.00    +0.000 OA
ATOM     29  C   UNL     1       2.662  16.024  18.065  0.00  0.00    +0.000 C 
ATOM     30  C   UNL     1       2.668  14.486  18.156  0.00  0.00    +0.000 C 
ENDBRANCH  24  25
ENDBRANCH   7  24
TORSDOF 5
ENDMDL
