MODEL 1
REMARK VINA RESULT:      -8.8      0.000      0.000
REMARK  Name = 
REMARK  11 active torsions:
REMARK  status: ('A' for Active; 'I' for Inactive)
REMARK    1  A    between atoms: C_1  and  C_2
REMARK    2  A    between atoms: C_2  and  C_3
REMARK    3  A    between atoms: C_3  and  N_4
REMARK    4  A    between atoms: N_4  and  C_5
REMARK    5  A    between atoms: C_5  and  C_6
REMARK    6  A    between atoms: C_18  and  C_20
REMARK    7  A    between atoms: C_20  and  C_21
REMARK    8  A    between atoms: C_20  and  C_22
REMARK    9  A    between atoms: C_22  and  N_23
REMARK   10  A    between atoms: N_23  and  C_24
REMARK   11  A    between atoms: C_24  and  C_25
REMARK                            x       y       z     vdW  Elec       q    Type
REMARK                         _______ _______ _______ _____ _____    ______ ____
ROOT
ATOM      1  N   UNL     1       6.077   4.909  16.162  0.00  0.00    +0.000 N 
ATOM      2  C   UNL     1       7.203   5.204  16.925  0.00  0.00    +0.000 C 
ATOM      3  O   UNL     1       8.234   4.534  16.810  0.00  0.00    +0.000 OA
ENDROOT
BRANCH   2   4
ATOM      4  C   UNL     1       7.161   6.354  17.937  0.00  0.00    +0.000 C 
ATOM      5  C   UNL     1       7.796   5.913  19.254  0.00  0.00    +0.000 C 
BRANCH   4   6
ATOM      6  C   UNL     1       7.900   7.583  17.367  0.00  0.00    +0.000 C 
BRANCH   6   7
ATOM      7  N   UNL     1       8.150   8.665  18.327  0.00  0.00    +0.000 NA
ATOM      8  H   UNL     1       8.884   8.377  18.979  0.00  0.00    +0.000 HD
BRANCH   7   9
ATOM      9  C   UNL     1       8.519   9.940  17.713  0.00  0.00    +0.000 C 
BRANCH   9  10
ATOM     10  C   UNL     1       9.317  10.800  18.669  0.00  0.00    +0.000 A 
ATOM     11  C   UNL     1       9.197  10.562  20.056  0.00  0.00    +0.000 A 
ATOM     12  C   UNL     1       9.905  11.307  20.994  0.00  0.00    +0.000 A 
ATOM     13  C   UNL     1      10.762  12.328  20.594  0.00  0.00    +0.000 A 
ATOM     14  C   UNL     1      10.875  12.579  19.228  0.00  0.00    +0.000 A 
ATOM     15  N   UNL     1      11.640  13.518  18.567  0.00  0.00    +0.000 N 
ATOM     16  C   UNL     1      11.447  13.422  17.215  0.00  0.00    +0.000 A 
ATOM     17  C   UNL     1      10.543  12.409  16.996  0.00  0.00    +0.000 A 
ATOM     18  C   UNL     1      10.178  11.852  18.259  0.00  0.00    +0.000 A 
ATOM     19  H   UNL     1      12.247  14.183  19.026  0.00  0.00    +0.000 HD
ENDBRANCH   9  10
ENDBRANCH   7   9
ENDBRANCH   6   7
ENDBRANCH   4   6
ENDBRANCH   2   4
BRANCH   1  20
ATOM     20  C   UNL     1       6.181   3.806  15.193  0.00  0.00    +0.000 C 
BRANCH  20  22
ATOM     21  C   UNL     1       6.658   3.810  12.671  0.00  0.00    +0.000 C 
ATOM     22  C   UNL     1       5.674   4.136  13.782  0.00  0.00    +0.000 C 
ENDBRANCH  20  22
ENDBRANCH   1  20
BRANCH   1  23
ATOM     23  C   UNL     1       4.805   5.629  16.214  0.00  0.00    +0.000 C 
BRANCH  23  24
ATOM     24  C   UNL     1       3.916   5.323  17.402  0.00  0.00    +0.000 A 
ATOM     25  C   UNL     1       3.491   6.403  18.197  0.00  0.00    +0.000 A 
ATOM     26  C   UNL     1       2.565   6.218  19.229  0.00  0.00    +0.000 A 
ATOM     27 CL   UNL     1       2.049   7.603  20.123  0.00  0.00    +0.000 Cl
ATOM     28  C   UNL     1       2.067   4.943  19.509  0.00  0.00    +0.000 A 
ATOM     29  C   UNL     1       2.506   3.857  18.748  0.00  0.00    +0.000 A 
ATOM     30  C   UNL     1       3.416   4.047  17.700  0.00  0.00    +0.000 A 
ATOM     31  O   UNL     1       1.975   2.601  18.878  0.00  0.00    +0.000 OA
ATOM     32  C   UNL     1       2.215   2.024  20.162  0.00  0.00    +0.000 C 
ATOM     33  C   UNL     1       1.247   2.521  21.227  0.00  0.00    +0.000 C 
ATOM     34  C   UNL     1       1.461   3.994  21.533  0.00  0.00    +0.000 C 
ATOM     35  O   UNL     1       1.067   4.815  20.437  0.00  0.00    +0.000 OA
ENDBRANCH  23  24
ENDBRANCH   1  23
TORSDOF 9
ENDMDL
MODEL 2
REMARK VINA RESULT:      -8.7      0.833      1.644
REMARK  Name = 
REMARK  11 active torsions:
REMARK  status: ('A' for Active; 'I' for Inactive)
REMARK    1  A    between atoms: C_1  and  C_2
REMARK    2  A    between atoms: C_2  and  C_3
REMARK    3  A    between atoms: C_3  and  N_4
REMARK    4  A    between atoms: N_4  and  C_5
REMARK    5  A    between atoms: C_5  and  C_6
REMARK    6  A    between atoms: C_18  and  C_20
REMARK    7  A    between atoms: C_20  and  C_21
REMARK    8  A    between atoms: C_20  and  C_22
REMARK    9  A    between atoms: C_22  and  N_23
REMARK   10  A    between atoms: N_23  and  C_24
REMARK   11  A    between atoms: C_24  and  C_25
REMARK                            x       y       z     vdW  Elec       q    Type
REMARK                         _______ _______ _______ _____ _____    ______ ____
ROOT
ATOM      1  N   UNL     1       6.097   4.952  16.114  0.00  0.00    +0.000 N 
ATOM      2  C   UNL     1       7.221   5.218  16.890  0.00  0.00    +0.000 C 
ATOM      3  O   UNL     1       8.248   4.543  16.763  0.00  0.00    +0.000 OA
ENDROOT
BRANCH   2   4
ATOM      4  C   UNL     1       7.184   6.342  17.931  0.00  0.00    +0.000 C 
ATOM      5  C   UNL     1       7.899   5.896  19.206  0.00  0.00    +0.000 C 
BRANCH   4   6
ATOM      6  C   UNL     1       7.847   7.612  17.358  0.00  0.00    +0.000 C 
BRANCH   6   7
ATOM      7  N   UNL     1       8.527   8.463  18.341  0.00  0.00    +0.000 NA
ATOM      8  H   UNL     1       9.539   8.355  18.242  0.00  0.00    +0.000 HD
BRANCH   7   9
ATOM      9  C   UNL     1       8.180   9.881  18.252  0.00  0.00    +0.000 C 
BRANCH   9  10
ATOM     10  C   UNL     1       9.342  10.759  18.664  0.00  0.00    +0.000 A 
ATOM     11  C   UNL     1      10.401  10.953  17.750  0.00  0.00    +0.000 A 
ATOM     12  C   UNL     1      11.499  11.751  18.055  0.00  0.00    +0.000 A 
ATOM     13  C   UNL     1      11.595  12.390  19.288  0.00  0.00    +0.000 A 
ATOM     14  C   UNL     1      10.561  12.191  20.202  0.00  0.00    +0.000 A 
ATOM     15  N   UNL     1      10.405  12.694  21.477  0.00  0.00    +0.000 N 
ATOM     16  C   UNL     1       9.238  12.240  22.028  0.00  0.00    +0.000 A 
ATOM     17  C   UNL     1       8.630  11.428  21.100  0.00  0.00    +0.000 A 
ATOM     18  C   UNL     1       9.446  11.394  19.929  0.00  0.00    +0.000 A 
ATOM     19  H   UNL     1      11.069  13.306  21.933  0.00  0.00    +0.000 HD
ENDBRANCH   9  10
ENDBRANCH   7   9
ENDBRANCH   6   7
ENDBRANCH   4   6
ENDBRANCH   2   4
BRANCH   1  20
ATOM     20  C   UNL     1       6.197   3.874  15.118  0.00  0.00    +0.000 C 
BRANCH  20  22
ATOM     21  C   UNL     1       5.848   3.484  12.605  0.00  0.00    +0.000 C 
ATOM     22  C   UNL     1       6.485   4.343  13.685  0.00  0.00    +0.000 C 
ENDBRANCH  20  22
ENDBRANCH   1  20
BRANCH   1  23
ATOM     23  C   UNL     1       4.831   5.681  16.179  0.00  0.00    +0.000 C 
BRANCH  23  24
ATOM     24  C   UNL     1       3.931   5.348  17.351  0.00  0.00    +0.000 A 
ATOM     25  C   UNL     1       3.485   6.410  18.158  0.00  0.00    +0.000 A 
ATOM     26  C   UNL     1       2.548   6.200  19.175  0.00  0.00    +0.000 A 
ATOM     27 CL   UNL     1       2.007   7.565  20.085  0.00  0.00    +0.000 Cl
ATOM     28  C   UNL     1       2.060   4.915  19.429  0.00  0.00    +0.000 A 
ATOM     29  C   UNL     1       2.519   3.846  18.657  0.00  0.00    +0.000 A 
ATOM     30  C   UNL     1       3.441   4.061  17.623  0.00  0.00    +0.000 A 
ATOM     31  O   UNL     1       2.001   2.582  18.760  0.00  0.00    +0.000 OA
ATOM     32  C   UNL     1       2.231   1.988  20.038  0.00  0.00    +0.000 C 
ATOM     33  C   UNL     1       1.245   2.458  21.099  0.00  0.00    +0.000 C 
ATOM     34  C   UNL     1       1.440   3.927  21.431  0.00  0.00    +0.000 C 
ATOM     35  O   UNL     1       1.050   4.762  20.342  0.00  0.00    +0.000 OA
ENDBRANCH  23  24
ENDBRANCH   1  23
TORSDOF 9
ENDMDL
MODEL 3
REMARK VINA RESULT:      -8.4      1.076      1.250
REMARK  Name = 
REMARK  11 active torsions:
REMARK  status: ('A' for Active; 'I' for Inactive)
REMARK    1  A    between atoms: C_1  and  C_2
REMARK    2  A    between atoms: C_2  and  C_3
REMARK    3  A    between atoms: C_3  and  N_4
REMARK    4  A    between atoms: N_4  and  C_5
REMARK    5  A    between atoms: C_5  and  C_6
REMARK    6  A    between atoms: C_18  and  C_20
REMARK    7  A    between atoms: C_20  and  C_21
REMARK    8  A    between atoms: C_20  and  C_22
REMARK    9  A    between atoms: C_22  and  N_23
REMARK   10  A    between atoms: N_23  and  C_24
REMARK   11  A    between atoms: C_24  and  C_25
REMARK                            x       y       z     vdW  Elec       q    Type
REMARK                         _______ _______ _______ _____ _____    ______ ____
ROOT
ATOM      1  N   UNL     1       6.016   4.875  16.077  0.00  0.00    +0.000 N 
ATOM      2  C   UNL     1       7.159   5.140  16.826  0.00  0.00    +0.000 C 
ATOM      3  O   UNL     1       8.173   4.447  16.693  0.00  0.00    +0.000 OA
ENDROOT
BRANCH   2   4
ATOM      4  C   UNL     1       7.158   6.285  17.844  0.00  0.00    +0.000 C 
ATOM      5  C   UNL     1       7.721   5.798  19.178  0.00  0.00    +0.000 C 
BRANCH   4   6
ATOM      6  C   UNL     1       7.992   7.466  17.307  0.00  0.00    +0.000 C 
BRANCH   6   7
ATOM      7  N   UNL     1       8.287   8.522  18.283  0.00  0.00    +0.000 NA
ATOM      8  H   UNL     1       9.298   8.572  18.434  0.00  0.00    +0.000 HD
BRANCH   7   9
ATOM      9  C   UNL     1       7.785   9.844  17.911  0.00  0.00    +0.000 C 
BRANCH   9  10
ATOM     10  C   UNL     1       8.821  10.917  18.166  0.00  0.00    +0.000 A 
ATOM     11  C   UNL     1      10.064  10.541  18.722  0.00  0.00    +0.000 A 
ATOM     12  C   UNL     1      11.066  11.471  18.978  0.00  0.00    +0.000 A 
ATOM     13  C   UNL     1      10.875  12.821  18.697  0.00  0.00    +0.000 A 
ATOM     14  C   UNL     1       9.646  13.202  18.163  0.00  0.00    +0.000 A 
ATOM     15  N   UNL     1       9.197  14.455  17.798  0.00  0.00    +0.000 N 
ATOM     16  C   UNL     1       7.917  14.380  17.318  0.00  0.00    +0.000 A 
ATOM     17  C   UNL     1       7.530  13.061  17.375  0.00  0.00    +0.000 A 
ATOM     18  C   UNL     1       8.617  12.296  17.895  0.00  0.00    +0.000 A 
ATOM     19  H   UNL     1       9.741  15.303  17.884  0.00  0.00    +0.000 HD
ENDBRANCH   9  10
ENDBRANCH   7   9
ENDBRANCH   6   7
ENDBRANCH   4   6
ENDBRANCH   2   4
BRANCH   1  20
ATOM     20  C   UNL     1       6.082   3.775  15.102  0.00  0.00    +0.000 C 
BRANCH  20  22
ATOM     21  C   UNL     1       5.384   3.689  12.632  0.00  0.00    +0.000 C 
ATOM     22  C   UNL     1       6.378   4.208  13.658  0.00  0.00    +0.000 C 
ENDBRANCH  20  22
ENDBRANCH   1  20
BRANCH   1  23
ATOM     23  C   UNL     1       4.763   5.624  16.150  0.00  0.00    +0.000 C 
BRANCH  23  24
ATOM     24  C   UNL     1       3.881   5.330  17.346  0.00  0.00    +0.000 A 
ATOM     25  C   UNL     1       3.488   6.413  18.152  0.00  0.00    +0.000 A 
ATOM     26  C   UNL     1       2.570   6.242  19.194  0.00  0.00    +0.000 A 
ATOM     27 CL   UNL     1       2.095   7.632  20.103  0.00  0.00    +0.000 Cl
ATOM     28  C   UNL     1       2.048   4.976  19.472  0.00  0.00    +0.000 A 
ATOM     29  C   UNL     1       2.455   3.886  18.700  0.00  0.00    +0.000 A 
ATOM     30  C   UNL     1       3.358   4.062  17.642  0.00  0.00    +0.000 A 
ATOM     31  O   UNL     1       1.899   2.640  18.827  0.00  0.00    +0.000 OA
ATOM     32  C   UNL     1       2.141   2.050  20.106  0.00  0.00    +0.000 C 
ATOM     33  C   UNL     1       1.196   2.561  21.185  0.00  0.00    +0.000 C 
ATOM     34  C   UNL     1       1.445   4.026  21.497  0.00  0.00    +0.000 C 
ATOM     35  O   UNL     1       1.056   4.863  20.410  0.00  0.00    +0.000 OA
ENDBRANCH  23  24
ENDBRANCH   1  23
TORSDOF 9
ENDMDL
MODEL 4
REMARK VINA RESULT:      -8.1      1.163      1.238
REMARK  Name = 
REMARK  11 active torsions:
REMARK  status: ('A' for Active; 'I' for Inactive)
REMARK    1  A    between atoms: C_1  and  C_2
REMARK    2  A    between atoms: C_2  and  C_3
REMARK    3  A    between atoms: C_3  and  N_4
REMARK    4  A    between atoms: N_4  and  C_5
REMARK    5  A    between atoms: C_5  and  C_6
REMARK    6  A    between atoms: C_18  and  C_20
REMARK    7  A    between atoms: C_20  and  C_21
REMARK    8  A    between atoms: C_20  and  C_22
REMARK    9  A    between atoms: C_22  and  N_23
REMARK   10  A    between atoms: N_23  and  C_24
REMARK   11  A    between atoms: C_24  and  C_25
REMARK                            x       y       z     vdW  Elec       q    Type
REMARK                         _______ _______ _______ _____ _____    ______ ____
ROOT
ATOM      1  N   UNL     1       5.565   6.459  16.226  0.00  0.00    +0.000 N 
ATOM      2  C   UNL     1       6.840   6.325  16.766  0.00  0.00    +0.000 C 
ATOM      3  O   UNL     1       7.722   5.713  16.155  0.00  0.00    +0.000 OA
ENDROOT
BRANCH   2   4
ATOM      4  C   UNL     1       7.154   6.918  18.144  0.00  0.00    +0.000 C 
ATOM      5  C   UNL     1       7.491   5.800  19.129  0.00  0.00    +0.000 C 
BRANCH   4   6
ATOM      6  C   UNL     1       8.329   7.911  18.034  0.00  0.00    +0.000 C 
BRANCH   6   7
ATOM      7  N   UNL     1       7.957   9.330  18.075  0.00  0.00    +0.000 NA
ATOM      8  H   UNL     1       7.541   9.546  18.985  0.00  0.00    +0.000 HD
BRANCH   7   9
ATOM      9  C   UNL     1       9.064  10.250  17.817  0.00  0.00    +0.000 C 
BRANCH   9  10
ATOM     10  C   UNL     1       9.260  11.211  18.970  0.00  0.00    +0.000 A 
ATOM     11  C   UNL     1       9.331  10.691  20.281  0.00  0.00    +0.000 A 
ATOM     12  C   UNL     1       9.517  11.513  21.389  0.00  0.00    +0.000 A 
ATOM     13  C   UNL     1       9.636  12.892  21.242  0.00  0.00    +0.000 A 
ATOM     14  C   UNL     1       9.552  13.414  19.952  0.00  0.00    +0.000 A 
ATOM     15  N   UNL     1       9.634  14.724  19.527  0.00  0.00    +0.000 N 
ATOM     16  C   UNL     1       9.495  14.793  18.168  0.00  0.00    +0.000 A 
ATOM     17  C   UNL     1       9.317  13.510  17.704  0.00  0.00    +0.000 A 
ATOM     18  C   UNL     1       9.363  12.619  18.819  0.00  0.00    +0.000 A 
ATOM     19  H   UNL     1       9.770  15.516  20.142  0.00  0.00    +0.000 HD
ENDBRANCH   9  10
ENDBRANCH   7   9
ENDBRANCH   6   7
ENDBRANCH   4   6
ENDBRANCH   2   4
BRANCH   1  20
ATOM     20  C   UNL     1       5.327   5.886  14.892  0.00  0.00    +0.000 C 
BRANCH  20  22
ATOM     21  C   UNL     1       6.130   3.814  13.605  0.00  0.00    +0.000 C 
ATOM     22  C   UNL     1       5.401   4.353  14.825  0.00  0.00    +0.000 C 
ENDBRANCH  20  22
ENDBRANCH   1  20
BRANCH   1  23
ATOM     23  C   UNL     1       4.446   7.158  16.857  0.00  0.00    +0.000 C 
BRANCH  23  24
ATOM     24  C   UNL     1       3.697   6.387  17.924  0.00  0.00    +0.000 A 
ATOM     25  C   UNL     1       2.998   7.124  18.897  0.00  0.00    +0.000 A 
ATOM     26  C   UNL     1       2.177   6.487  19.833  0.00  0.00    +0.000 A 
ATOM     27 CL   UNL     1       1.308   7.466  20.960  0.00  0.00    +0.000 Cl
ATOM     28  C   UNL     1       2.061   5.094  19.836  0.00  0.00    +0.000 A 
ATOM     29  C   UNL     1       2.775   4.348  18.896  0.00  0.00    +0.000 A 
ATOM     30  C   UNL     1       3.580   4.988  17.945  0.00  0.00    +0.000 A 
ATOM     31  O   UNL     1       2.620   2.994  18.754  0.00  0.00    +0.000 OA
ATOM     32  C   UNL     1       3.032   2.262  19.909  0.00  0.00    +0.000 C 
ATOM     33  C   UNL     1       1.980   2.247  21.010  0.00  0.00    +0.000 C 
ATOM     34  C   UNL     1       1.777   3.629  21.608  0.00  0.00    +0.000 C 
ATOM     35  O   UNL     1       1.151   4.511  20.679  0.00  0.00    +0.000 OA
ENDBRANCH  23  24
ENDBRANCH   1  23
TORSDOF 9
ENDMDL
MODEL 5
REMARK VINA RESULT:      -7.7      5.208      8.689
REMARK  Name = 
REMARK  11 active torsions:
REMARK  status: ('A' for Active; 'I' for Inactive)
REMARK    1  A    between atoms: C_1  and  C_2
REMARK    2  A    between atoms: C_2  and  C_3
REMARK    3  A    between atoms: C_3  and  N_4
REMARK    4  A    between atoms: N_4  and  C_5
REMARK    5  A    between atoms: C_5  and  C_6
REMARK    6  A    between atoms: C_18  and  C_20
REMARK    7  A    between atoms: C_20  and  C_21
REMARK    8  A    between atoms: C_20  and  C_22
REMARK    9  A    between atoms: C_22  and  N_23
REMARK   10  A    between atoms: N_23  and  C_24
REMARK   11  A    between atoms: C_24  and  C_25
REMARK                            x       y       z     vdW  Elec       q    Type
REMARK                         _______ _______ _______ _____ _____    ______ ____
ROOT
ATOM      1  N   UNL     1       1.592   8.379  19.928  0.00  0.00    +0.000 N 
ATOM      2  C   UNL     1       1.907   7.063  19.606  0.00  0.00    +0.000 C 
ATOM      3  O   UNL     1       1.983   6.200  20.486  0.00  0.00    +0.000 OA
ENDROOT
BRANCH   2   4
ATOM      4  C   UNL     1       2.189   6.678  18.149  0.00  0.00    +0.000 C 
ATOM      5  C   UNL     1       3.564   7.196  17.730  0.00  0.00    +0.000 C 
BRANCH   4   6
ATOM      6  C   UNL     1       2.118   5.146  17.987  0.00  0.00    +0.000 C 
BRANCH   6   7
ATOM      7  N   UNL     1       2.967   4.378  18.906  0.00  0.00    +0.000 NA
ATOM      8  H   UNL     1       2.378   3.775  19.487  0.00  0.00    +0.000 HD
BRANCH   7   9
ATOM      9  C   UNL     1       3.989   3.568  18.246  0.00  0.00    +0.000 C 
BRANCH   9  10
ATOM     10  C   UNL     1       5.274   4.347  18.063  0.00  0.00    +0.000 A 
ATOM     11  C   UNL     1       5.886   4.922  19.198  0.00  0.00    +0.000 A 
ATOM     12  C   UNL     1       7.071   5.645  19.108  0.00  0.00    +0.000 A 
ATOM     13  C   UNL     1       7.699   5.834  17.880  0.00  0.00    +0.000 A 
ATOM     14  C   UNL     1       7.093   5.284  16.753  0.00  0.00    +0.000 A 
ATOM     15  N   UNL     1       7.494   5.320  15.433  0.00  0.00    +0.000 N 
ATOM     16  C   UNL     1       6.598   4.650  14.645  0.00  0.00    +0.000 A 
ATOM     17  C   UNL     1       5.601   4.174  15.464  0.00  0.00    +0.000 A 
ATOM     18  C   UNL     1       5.903   4.554  16.806  0.00  0.00    +0.000 A 
ATOM     19  H   UNL     1       8.329   5.786  15.104  0.00  0.00    +0.000 HD
ENDBRANCH   9  10
ENDBRANCH   7   9
ENDBRANCH   6   7
ENDBRANCH   4   6
ENDBRANCH   2   4
BRANCH   1  20
ATOM     20  C   UNL     1       1.312   8.686  21.340  0.00  0.00    +0.000 C 
BRANCH  20  22
ATOM     21  C   UNL     1      -0.613   9.493  22.835  0.00  0.00    +0.000 C 
ATOM     22  C   UNL     1      -0.156   8.522  21.759  0.00  0.00    +0.000 C 
ENDBRANCH  20  22
ENDBRANCH   1  20
BRANCH   1  23
ATOM     23  C   UNL     1       1.476   9.482  18.974  0.00  0.00    +0.000 C 
BRANCH  23  24
ATOM     24  C   UNL     1       0.669  10.678  19.434  0.00  0.00    +0.000 A 
ATOM     25  C   UNL     1      -0.663  10.777  18.995  0.00  0.00    +0.000 A 
ATOM     26  C   UNL     1      -1.510  11.778  19.481  0.00  0.00    +0.000 A 
ATOM     27 CL   UNL     1      -3.149  11.799  18.936  0.00  0.00    +0.000 Cl
ATOM     28  C   UNL     1      -1.035  12.722  20.395  0.00  0.00    +0.000 A 
ATOM     29  C   UNL     1       0.296  12.655  20.814  0.00  0.00    +0.000 A 
ATOM     30  C   UNL     1       1.138  11.638  20.344  0.00  0.00    +0.000 A 
ATOM     31  O   UNL     1       0.804  13.463  21.796  0.00  0.00    +0.000 OA
ATOM     32  C   UNL     1       0.803  14.846  21.436  0.00  0.00    +0.000 C 
ATOM     33  C   UNL     1      -0.556  15.507  21.622  0.00  0.00    +0.000 C 
ATOM     34  C   UNL     1      -1.582  14.959  20.645  0.00  0.00    +0.000 C 
ATOM     35  O   UNL     1      -1.920  13.608  20.949  0.00  0.00    +0.000 OA
ENDBRANCH  23  24
ENDBRANCH   1  23
TORSDOF 9
ENDMDL
MODEL 6
REMARK VINA RESULT:      -7.6      1.363      1.912
REMARK  Name = 
REMARK  11 active torsions:
REMARK  status: ('A' for Active; 'I' for Inactive)
REMARK    1  A    between atoms: C_1  and  C_2
REMARK    2  A    between atoms: C_2  and  C_3
REMARK    3  A    between atoms: C_3  and  N_4
REMARK    4  A    between atoms: N_4  and  C_5
REMARK    5  A    between atoms: C_5  and  C_6
REMARK    6  A    between atoms: C_18  and  C_20
REMARK    7  A    between atoms: C_20  and  C_21
REMARK    8  A    between atoms: C_20  and  C_22
REMARK    9  A    between atoms: C_22  and  N_23
REMARK   10  A    between atoms: N_23  and  C_24
REMARK   11  A    between atoms: C_24  and  C_25
REMARK                            x       y       z     vdW  Elec       q    Type
REMARK                         _______ _______ _______ _____ _____    ______ ____
ROOT
ATOM      1  N   UNL     1       5.558   6.512  16.165  0.00  0.00    +0.000 N 
ATOM      2  C   UNL     1       6.876   6.514  16.611  0.00  0.00    +0.000 C 
ATOM      3  O   UNL     1       7.748   5.885  16.002  0.00  0.00    +0.000 OA
ENDROOT
BRANCH   2   4
ATOM      4  C   UNL     1       7.252   7.282  17.883  0.00  0.00    +0.000 C 
ATOM      5  C   UNL     1       7.777   6.313  18.941  0.00  0.00    +0.000 C 
BRANCH   4   6
ATOM      6  C   UNL     1       8.316   8.350  17.557  0.00  0.00    +0.000 C 
BRANCH   6   7
ATOM      7  N   UNL     1       7.994   9.712  18.000  0.00  0.00    +0.000 NA
ATOM      8  H   UNL     1       7.055   9.723  18.407  0.00  0.00    +0.000 HD
BRANCH   7   9
ATOM      9  C   UNL     1       8.944  10.273  18.959  0.00  0.00    +0.000 C 
BRANCH   9  10
ATOM     10  C   UNL     1       9.690  11.451  18.369  0.00  0.00    +0.000 A 
ATOM     11  C   UNL     1      11.052  11.291  18.032  0.00  0.00    +0.000 A 
ATOM     12  C   UNL     1      11.799  12.326  17.479  0.00  0.00    +0.000 A 
ATOM     13  C   UNL     1      11.225  13.571  17.241  0.00  0.00    +0.000 A 
ATOM     14  C   UNL     1       9.886  13.742  17.586  0.00  0.00    +0.000 A 
ATOM     15  N   UNL     1       9.081  14.856  17.461  0.00  0.00    +0.000 N 
ATOM     16  C   UNL     1       7.823  14.589  17.928  0.00  0.00    +0.000 A 
ATOM     17  C   UNL     1       7.811  13.284  18.365  0.00  0.00    +0.000 A 
ATOM     18  C   UNL     1       9.106  12.726  18.144  0.00  0.00    +0.000 A 
ATOM     19  H   UNL     1       9.389  15.742  17.083  0.00  0.00    +0.000 HD
ENDBRANCH   9  10
ENDBRANCH   7   9
ENDBRANCH   6   7
ENDBRANCH   4   6
ENDBRANCH   2   4
BRANCH   1  20
ATOM     20  C   UNL     1       5.259   5.773  14.928  0.00  0.00    +0.000 C 
BRANCH  20  22
ATOM     21  C   UNL     1       5.532   3.341  15.704  0.00  0.00    +0.000 C 
ATOM     22  C   UNL     1       6.010   4.443  14.773  0.00  0.00    +0.000 C 
ENDBRANCH  20  22
ENDBRANCH   1  20
BRANCH   1  23
ATOM     23  C   UNL     1       4.446   7.215  16.803  0.00  0.00    +0.000 C 
BRANCH  23  24
ATOM     24  C   UNL     1       3.691   6.442  17.865  0.00  0.00    +0.000 A 
ATOM     25  C   UNL     1       3.039   7.177  18.871  0.00  0.00    +0.000 A 
ATOM     26  C   UNL     1       2.215   6.544  19.807  0.00  0.00    +0.000 A 
ATOM     27 CL   UNL     1       1.403   7.522  20.977  0.00  0.00    +0.000 Cl
ATOM     28  C   UNL     1       2.049   5.157  19.777  0.00  0.00    +0.000 A 
ATOM     29  C   UNL     1       2.718   4.411  18.803  0.00  0.00    +0.000 A 
ATOM     30  C   UNL     1       3.526   5.048  17.852  0.00  0.00    +0.000 A 
ATOM     31  O   UNL     1       2.513   3.068  18.629  0.00  0.00    +0.000 OA
ATOM     32  C   UNL     1       2.922   2.292  19.757  0.00  0.00    +0.000 C 
ATOM     33  C   UNL     1       1.892   2.283  20.878  0.00  0.00    +0.000 C 
ATOM     34  C   UNL     1       1.750   3.655  21.515  0.00  0.00    +0.000 C 
ATOM     35  O   UNL     1       1.137   4.583  20.623  0.00  0.00    +0.000 OA
ENDBRANCH  23  24
ENDBRANCH   1  23
TORSDOF 9
ENDMDL
MODEL 7
REMARK VINA RESULT:      -7.6      1.686      2.533
REMARK  Name = 
REMARK  11 active torsions:
REMARK  status: ('A' for Active; 'I' for Inactive)
REMARK    1  A    between atoms: C_1  and  C_2
REMARK    2  A    between atoms: C_2  and  C_3
REMARK    3  A    between atoms: C_3  and  N_4
REMARK    4  A    between atoms: N_4  and  C_5
REMARK    5  A    between atoms: C_5  and  C_6
REMARK    6  A    between atoms: C_18  and  C_20
REMARK    7  A    between atoms: C_20  and  C_21
REMARK    8  A    between atoms: C_20  and  C_22
REMARK    9  A    between atoms: C_22  and  N_23
REMARK   10  A    between atoms: N_23  and  C_24
REMARK   11  A    between atoms: C_24  and  C_25
REMARK                            x       y       z     vdW  Elec       q    Type
REMARK                         _______ _______ _______ _____ _____    ______ ____
ROOT
ATOM      1  N   UNL     1       5.852   5.348  16.257  0.00  0.00    +0.000 N 
ATOM      2  C   UNL     1       6.902   5.349  17.171  0.00  0.00    +0.000 C 
ATOM      3  O   UNL     1       7.710   4.415  17.203  0.00  0.00    +0.000 OA
ENDROOT
BRANCH   2   4
ATOM      4  C   UNL     1       7.049   6.505  18.167  0.00  0.00    +0.000 C 
ATOM      5  C   UNL     1       7.893   6.062  19.360  0.00  0.00    +0.000 C 
BRANCH   4   6
ATOM      6  C   UNL     1       7.696   7.720  17.470  0.00  0.00    +0.000 C 
BRANCH   6   7
ATOM      7  N   UNL     1       8.457   8.615  18.349  0.00  0.00    +0.000 NA
ATOM      8  H   UNL     1       9.360   8.186  18.571  0.00  0.00    +0.000 HD
BRANCH   7   9
ATOM      9  C   UNL     1       8.677   9.953  17.802  0.00  0.00    +0.000 C 
BRANCH   9  10
ATOM     10  C   UNL     1       9.432  10.829  18.778  0.00  0.00    +0.000 A 
ATOM     11  C   UNL     1       9.167  10.690  20.158  0.00  0.00    +0.000 A 
ATOM     12  C   UNL     1       9.827  11.455  21.115  0.00  0.00    +0.000 A 
ATOM     13  C   UNL     1      10.777  12.400  20.739  0.00  0.00    +0.000 A 
ATOM     14  C   UNL     1      11.033  12.555  19.378  0.00  0.00    +0.000 A 
ATOM     15  N   UNL     1      11.911  13.407  18.740  0.00  0.00    +0.000 N 
ATOM     16  C   UNL     1      11.841  13.233  17.384  0.00  0.00    +0.000 A 
ATOM     17  C   UNL     1      10.903  12.258  17.139  0.00  0.00    +0.000 A 
ATOM     18  C   UNL     1      10.388  11.805  18.391  0.00  0.00    +0.000 A 
ATOM     19  H   UNL     1      12.511  14.068  19.215  0.00  0.00    +0.000 HD
ENDBRANCH   9  10
ENDBRANCH   7   9
ENDBRANCH   6   7
ENDBRANCH   4   6
ENDBRANCH   2   4
BRANCH   1  20
ATOM     20  C   UNL     1       5.772   4.222  15.314  0.00  0.00    +0.000 C 
BRANCH  20  22
ATOM     21  C   UNL     1       6.060   3.543  12.854  0.00  0.00    +0.000 C 
ATOM     22  C   UNL     1       6.532   4.429  13.996  0.00  0.00    +0.000 C 
ENDBRANCH  20  22
ENDBRANCH   1  20
BRANCH   1  23
ATOM     23  C   UNL     1       4.838   6.394  16.130  0.00  0.00    +0.000 C 
BRANCH  23  24
ATOM     24  C   UNL     1       3.919   6.578  17.319  0.00  0.00    +0.000 A 
ATOM     25  C   UNL     1       3.702   5.469  18.157  0.00  0.00    +0.000 A 
ATOM     26  C   UNL     1       2.975   5.594  19.345  0.00  0.00    +0.000 A 
ATOM     27 CL   UNL     1       2.800   4.199  20.348  0.00  0.00    +0.000 Cl
ATOM     28  C   UNL     1       2.421   6.825  19.707  0.00  0.00    +0.000 A 
ATOM     29  C   UNL     1       2.601   7.927  18.867  0.00  0.00    +0.000 A 
ATOM     30  C   UNL     1       3.349   7.806  17.688  0.00  0.00    +0.000 A 
ATOM     31  O   UNL     1       2.198   9.191  19.208  0.00  0.00    +0.000 OA
ATOM     32  C   UNL     1       0.781   9.305  19.347  0.00  0.00    +0.000 C 
ATOM     33  C   UNL     1       0.272   8.802  20.691  0.00  0.00    +0.000 C 
ATOM     34  C   UNL     1       0.450   7.299  20.828  0.00  0.00    +0.000 C 
ATOM     35  O   UNL     1       1.827   6.946  20.935  0.00  0.00    +0.000 OA
ENDBRANCH  23  24
ENDBRANCH   1  23
TORSDOF 9
ENDMDL
MODEL 8
REMARK VINA RESULT:      -7.5      5.309      8.626
REMARK  Name = 
REMARK  11 active torsions:
REMARK  status: ('A' for Active; 'I' for Inactive)
REMARK    1  A    between atoms: C_1  and  C_2
REMARK    2  A    between atoms: C_2  and  C_3
REMARK    3  A    between atoms: C_3  and  N_4
REMARK    4  A    between atoms: N_4  and  C_5
REMARK    5  A    between atoms: C_5  and  C_6
REMARK    6  A    between atoms: C_18  and  C_20
REMARK    7  A    between atoms: C_20  and  C_21
REMARK    8  A    between atoms: C_20  and  C_22
REMARK    9  A    between atoms: C_22  and  N_23
REMARK   10  A    between atoms: N_23  and  C_24
REMARK   11  A    between atoms: C_24  and  C_25
REMARK                            x       y       z     vdW  Elec       q    Type
REMARK                         _______ _______ _______ _____ _____    ______ ____
ROOT
ATOM      1  N   UNL     1       1.380   9.060  19.999  0.00  0.00    +0.000 N 
ATOM      2  C   UNL     1       1.799   7.772  19.679  0.00  0.00    +0.000 C 
ATOM      3  O   UNL     1       2.025   6.945  20.569  0.00  0.00    +0.000 OA
ENDROOT
BRANCH   2   4
ATOM      4  C   UNL     1       2.008   7.376  18.214  0.00  0.00    +0.000 C 
ATOM      5  C   UNL     1       3.419   7.752  17.767  0.00  0.00    +0.000 C 
BRANCH   4   6
ATOM      6  C   UNL     1       1.774   5.861  18.040  0.00  0.00    +0.000 C 
BRANCH   6   7
ATOM      7  N   UNL     1       2.666   4.995  18.820  0.00  0.00    +0.000 NA
ATOM      8  H   UNL     1       2.112   4.448  19.485  0.00  0.00    +0.000 HD
BRANCH   7   9
ATOM      9  C   UNL     1       3.485   4.093  18.013  0.00  0.00    +0.000 C 
BRANCH   9  10
ATOM     10  C   UNL     1       4.926   4.555  17.963  0.00  0.00    +0.000 A 
ATOM     11  C   UNL     1       5.525   5.033  19.149  0.00  0.00    +0.000 A 
ATOM     12  C   UNL     1       6.846   5.468  19.181  0.00  0.00    +0.000 A 
ATOM     13  C   UNL     1       7.631   5.451  18.032  0.00  0.00    +0.000 A 
ATOM     14  C   UNL     1       7.042   4.994  16.854  0.00  0.00    +0.000 A 
ATOM     15  N   UNL     1       7.582   4.874  15.590  0.00  0.00    +0.000 N 
ATOM     16  C   UNL     1       6.649   4.383  14.718  0.00  0.00    +0.000 A 
ATOM     17  C   UNL     1       5.486   4.184  15.426  0.00  0.00    +0.000 A 
ATOM     18  C   UNL     1       5.718   4.553  16.785  0.00  0.00    +0.000 A 
ATOM     19  H   UNL     1       8.533   5.125  15.350  0.00  0.00    +0.000 HD
ENDBRANCH   9  10
ENDBRANCH   7   9
ENDBRANCH   6   7
ENDBRANCH   4   6
ENDBRANCH   2   4
BRANCH   1  20
ATOM     20  C   UNL     1       1.179   9.377  21.422  0.00  0.00    +0.000 C 
BRANCH  20  22
ATOM     21  C   UNL     1      -0.680   9.757  23.151  0.00  0.00    +0.000 C 
ATOM     22  C   UNL     1      -0.160   8.903  22.006  0.00  0.00    +0.000 C 
ENDBRANCH  20  22
ENDBRANCH   1  20
BRANCH   1  23
ATOM     23  C   UNL     1       1.086  10.119  19.034  0.00  0.00    +0.000 C 
BRANCH  23  24
ATOM     24  C   UNL     1      -0.321  10.678  19.070  0.00  0.00    +0.000 A 
ATOM     25  C   UNL     1      -0.582  11.740  19.955  0.00  0.00    +0.000 A 
ATOM     26  C   UNL     1      -1.818  12.396  19.950  0.00  0.00    +0.000 A 
ATOM     27 CL   UNL     1      -2.041  13.728  21.027  0.00  0.00    +0.000 Cl
ATOM     28  C   UNL     1      -2.832  11.983  19.082  0.00  0.00    +0.000 A 
ATOM     29  C   UNL     1      -2.597  10.908  18.222  0.00  0.00    +0.000 A 
ATOM     30  C   UNL     1      -1.352  10.266  18.211  0.00  0.00    +0.000 A 
ATOM     31  O   UNL     1      -3.492  10.523  17.258  0.00  0.00    +0.000 OA
ATOM     32  C   UNL     1      -4.725  10.048  17.801  0.00  0.00    +0.000 C 
ATOM     33  C   UNL     1      -5.670  11.172  18.201  0.00  0.00    +0.000 C 
ATOM     34  C   UNL     1      -5.129  11.964  19.379  0.00  0.00    +0.000 C 
ATOM     35  O   UNL     1      -3.981  12.725  19.011  0.00  0.00    +0.000 OA
ENDBRANCH  23  24
ENDBRANCH   1  23
TORSDOF 9
ENDMDL
MODEL 9
REMARK VINA RESULT:      -7.5      5.264      8.698
REMARK  Name = 
REMARK  11 active torsions:
REMARK  status: ('A' for Active; 'I' for Inactive)
REMARK    1  A    between atoms: C_1  and  C_2
REMARK    2  A    between atoms: C_2  and  C_3
REMARK    3  A    between atoms: C_3  and  N_4
REMARK    4  A    between atoms: N_4  and  C_5
REMARK    5  A    between atoms: C_5  and  C_6
REMARK    6  A    between atoms: C_18  and  C_20
REMARK    7  A    between atoms: C_20  and  C_21
REMARK    8  A    between atoms: C_20  and  C_22
REMARK    9  A    between atoms: C_22  and  N_23
REMARK   10  A    between atoms: N_23  and  C_24
REMARK   11  A    between atoms: C_24  and  C_25
REMARK                            x       y       z     vdW  Elec       q    Type
REMARK                         _______ _______ _______ _____ _____    ______ ____
ROOT
ATOM      1  N   UNL     1       1.507   8.507  19.883  0.00  0.00    +0.000 N 
ATOM      2  C   UNL     1       1.910   7.181  19.760  0.00  0.00    +0.000 C 
ATOM      3  O   UNL     1       2.127   6.493  20.763  0.00  0.00    +0.000 OA
ENDROOT
BRANCH   2   4
ATOM      4  C   UNL     1       2.113   6.569  18.370  0.00  0.00    +0.000 C 
ATOM      5  C   UNL     1       3.452   7.023  17.790  0.00  0.00    +0.000 C 
BRANCH   4   6
ATOM      6  C   UNL     1       2.060   5.030  18.460  0.00  0.00    +0.000 C 
BRANCH   6   7
ATOM      7  N   UNL     1       2.726   4.314  17.365  0.00  0.00    +0.000 NA
ATOM      8  H   UNL     1       3.069   4.989  16.677  0.00  0.00    +0.000 HD
BRANCH   7   9
ATOM      9  C   UNL     1       3.827   3.452  17.792  0.00  0.00    +0.000 C 
BRANCH   9  10
ATOM     10  C   UNL     1       5.144   4.198  17.782  0.00  0.00    +0.000 A 
ATOM     11  C   UNL     1       5.684   4.636  19.011  0.00  0.00    +0.000 A 
ATOM     12  C   UNL     1       6.893   5.321  19.081  0.00  0.00    +0.000 A 
ATOM     13  C   UNL     1       7.618   5.606  17.928  0.00  0.00    +0.000 A 
ATOM     14  C   UNL     1       7.085   5.191  16.709  0.00  0.00    +0.000 A 
ATOM     15  N   UNL     1       7.586   5.342  15.433  0.00  0.00    +0.000 N 
ATOM     16  C   UNL     1       6.735   4.786  14.518  0.00  0.00    +0.000 A 
ATOM     17  C   UNL     1       5.664   4.269  15.210  0.00  0.00    +0.000 A 
ATOM     18  C   UNL     1       5.873   4.504  16.602  0.00  0.00    +0.000 A 
ATOM     19  H   UNL     1       8.458   5.807  15.214  0.00  0.00    +0.000 HD
ENDBRANCH   9  10
ENDBRANCH   7   9
ENDBRANCH   6   7
ENDBRANCH   4   6
ENDBRANCH   2   4
BRANCH   1  20
ATOM     20  C   UNL     1       1.310   9.035  21.243  0.00  0.00    +0.000 C 
BRANCH  20  22
ATOM     21  C   UNL     1      -0.516   9.649  22.940  0.00  0.00    +0.000 C 
ATOM     22  C   UNL     1      -0.030   8.660  21.893  0.00  0.00    +0.000 C 
ENDBRANCH  20  22
ENDBRANCH   1  20
BRANCH   1  23
ATOM     23  C   UNL     1       1.224   9.414  18.771  0.00  0.00    +0.000 C 
BRANCH  23  24
ATOM     24  C   UNL     1       0.586  10.737  19.138  0.00  0.00    +0.000 A 
ATOM     25  C   UNL     1       1.412  11.875  19.178  0.00  0.00    +0.000 A 
ATOM     26  C   UNL     1       0.875  13.150  19.378  0.00  0.00    +0.000 A 
ATOM     27 CL   UNL     1       1.949  14.503  19.357  0.00  0.00    +0.000 Cl
ATOM     28  C   UNL     1      -0.499  13.314  19.575  0.00  0.00    +0.000 A 
ATOM     29  C   UNL     1      -1.327  12.189  19.571  0.00  0.00    +0.000 A 
ATOM     30  C   UNL     1      -0.791  10.914  19.348  0.00  0.00    +0.000 A 
ATOM     31  O   UNL     1      -2.692  12.276  19.633  0.00  0.00    +0.000 OA
ATOM     32  C   UNL     1      -3.160  12.834  20.862  0.00  0.00    +0.000 C 
ATOM     33  C   UNL     1      -3.082  14.354  20.892  0.00  0.00    +0.000 C 
ATOM     34  C   UNL     1      -1.643  14.840  20.890  0.00  0.00    +0.000 C 
ATOM     35  O   UNL     1      -1.009  14.584  19.639  0.00  0.00    +0.000 OA
ENDBRANCH  23  24
ENDBRANCH   1  23
TORSDOF 9
ENDMDL
