MODEL 1
REMARK VINA RESULT:      -8.5      0.000      0.000
REMARK  Name = 
REMARK  5 active torsions:
REMARK  status: ('A' for Active; 'I' for Inactive)
REMARK    1  A    between atoms: C_1  and  C_2
REMARK    2  A    between atoms: C_7  and  N_8
REMARK    3  A    between atoms: C_9  and  C_11
REMARK    4  A    between atoms: C_12  and  C_13
REMARK    5  A    between atoms: N_15  and  C_16
REMARK                            x       y       z     vdW  Elec       q    Type
REMARK                         _______ _______ _______ _____ _____    ______ ____
ROOT
ATOM      1  C   UNL     1       4.490   6.900  16.978  0.00  0.00    +0.000 C 
ATOM      2  O   UNL     1       5.541   6.924  16.362  0.00  0.00    +0.000 OA
ATOM      3  N   UNL     1       3.863   5.771  17.422  0.00  0.00    +0.000 N 
ATOM      4  H   UNL     1       3.071   5.883  18.046  0.00  0.00    +0.000 HD
ENDROOT
BRANCH   3   5
ATOM      5  C   UNL     1       4.363   4.389  17.281  0.00  0.00    +0.000 C 
ATOM      6  C   UNL     1       3.311   3.271  17.218  0.00  0.00    +0.000 C 
ATOM      7  C   UNL     1       2.596   3.086  18.532  0.00  0.00    +0.000 A 
ATOM      8  C   UNL     1       1.413   2.343  18.605  0.00  0.00    +0.000 A 
ATOM      9  C   UNL     1       0.723   2.247  19.815  0.00  0.00    +0.000 A 
ATOM     10  C   UNL     1       1.204   2.905  20.948  0.00  0.00    +0.000 A 
ATOM     11  C   UNL     1       2.434   3.562  20.904  0.00  0.00    +0.000 A 
ATOM     12  C   UNL     1       3.148   3.600  19.709  0.00  0.00    +0.000 A 
ATOM     13  N   UNL     1       4.473   4.057  19.703  0.00  0.00    +0.000 N 
ATOM     14  C   UNL     1       5.208   4.181  18.542  0.00  0.00    +0.000 C 
ATOM     15  O   UNL     1       6.429   4.313  18.569  0.00  0.00    +0.000 OA
ATOM     16  H   UNL     1       4.979   4.128  20.575  0.00  0.00    +0.000 HD
ENDBRANCH   3   5
BRANCH   1  18
ATOM     17  C   UNL     1       2.479   8.112  17.803  0.00  0.00    +0.000 C 
ATOM     18  C   UNL     1       3.750   8.135  17.351  0.00  0.00    +0.000 C 
BRANCH  17  20
ATOM     19  N   UNL     1       0.751   9.356  18.959  0.00  0.00    +0.000 N 
ATOM     20  C   UNL     1       1.842   9.426  18.099  0.00  0.00    +0.000 C 
ATOM     21  O   UNL     1       2.293  10.433  17.570  0.00  0.00    +0.000 OA
ATOM     22  H   UNL     1       0.512   8.451  19.336  0.00  0.00    +0.000 HD
BRANCH  19  29
ATOM     23  C   UNL     1      -1.672   9.929  17.322  0.00  0.00    +0.000 C 
ATOM     24  C   UNL     1      -1.255  10.732  18.527  0.00  0.00    +0.000 A 
ATOM     25  C   UNL     1      -2.077  11.828  18.878  0.00  0.00    +0.000 A 
ATOM     26  C   UNL     1      -1.787  12.628  19.979  0.00  0.00    +0.000 A 
ATOM     27  C   UNL     1      -0.675  12.340  20.751  0.00  0.00    +0.000 A 
ATOM     28  C   UNL     1       0.146  11.260  20.418  0.00  0.00    +0.000 A 
ATOM     29  C   UNL     1      -0.112  10.438  19.308  0.00  0.00    +0.000 A 
ENDBRANCH  19  29
ENDBRANCH  17  20
ENDBRANCH   1  18
TORSDOF 4
ENDMDL
MODEL 2
REMARK VINA RESULT:      -8.3      0.395      1.359
REMARK  Name = 
REMARK  5 active torsions:
REMARK  status: ('A' for Active; 'I' for Inactive)
REMARK    1  A    between atoms: C_1  and  C_2
REMARK    2  A    between atoms: C_7  and  N_8
REMARK    3  A    between atoms: C_9  and  C_11
REMARK    4  A    between atoms: C_12  and  C_13
REMARK    5  A    between atoms: N_15  and  C_16
REMARK                            x       y       z     vdW  Elec       q    Type
REMARK                         _______ _______ _______ _____ _____    ______ ____
ROOT
ATOM      1  C   UNL     1       4.585   6.849  16.978  0.00  0.00    +0.000 C 
ATOM      2  O   UNL     1       5.703   6.899  16.496  0.00  0.00    +0.000 OA
ATOM      3  N   UNL     1       3.942   5.707  17.361  0.00  0.00    +0.000 N 
ATOM      4  H   UNL     1       3.076   5.802  17.879  0.00  0.00    +0.000 HD
ENDROOT
BRANCH   3   5
ATOM      5  C   UNL     1       4.499   4.340  17.309  0.00  0.00    +0.000 C 
ATOM      6  C   UNL     1       3.493   3.181  17.251  0.00  0.00    +0.000 C 
ATOM      7  C   UNL     1       2.723   3.029  18.538  0.00  0.00    +0.000 A 
ATOM      8  C   UNL     1       1.565   2.245  18.592  0.00  0.00    +0.000 A 
ATOM      9  C   UNL     1       0.824   2.177  19.772  0.00  0.00    +0.000 A 
ATOM     10  C   UNL     1       1.225   2.904  20.893  0.00  0.00    +0.000 A 
ATOM     11  C   UNL     1       2.431   3.605  20.875  0.00  0.00    +0.000 A 
ATOM     12  C   UNL     1       3.200   3.617  19.713  0.00  0.00    +0.000 A 
ATOM     13  N   UNL     1       4.506   4.124  19.746  0.00  0.00    +0.000 N 
ATOM     14  C   UNL     1       5.290   4.223  18.616  0.00  0.00    +0.000 C 
ATOM     15  O   UNL     1       6.502   4.403  18.692  0.00  0.00    +0.000 OA
ATOM     16  H   UNL     1       4.967   4.254  20.636  0.00  0.00    +0.000 HD
ENDBRANCH   3   5
BRANCH   1  18
ATOM     17  C   UNL     1       2.607   8.028  17.922  0.00  0.00    +0.000 C 
ATOM     18  C   UNL     1       3.766   8.065  17.232  0.00  0.00    +0.000 C 
BRANCH  17  20
ATOM     19  N   UNL     1       0.662   9.208  18.756  0.00  0.00    +0.000 N 
ATOM     20  C   UNL     1       1.865   9.313  18.067  0.00  0.00    +0.000 C 
ATOM     21  O   UNL     1       2.339  10.327  17.572  0.00  0.00    +0.000 OA
ATOM     22  H   UNL     1       0.415   8.302  19.127  0.00  0.00    +0.000 HD
BRANCH  19  29
ATOM     23  C   UNL     1       0.777  10.971  21.154  0.00  0.00    +0.000 C 
ATOM     24  C   UNL     1      -0.266  11.080  20.073  0.00  0.00    +0.000 A 
ATOM     25  C   UNL     1      -1.248  12.086  20.234  0.00  0.00    +0.000 A 
ATOM     26  C   UNL     1      -2.251  12.277  19.288  0.00  0.00    +0.000 A 
ATOM     27  C   UNL     1      -2.282  11.473  18.163  0.00  0.00    +0.000 A 
ATOM     28  C   UNL     1      -1.318  10.476  17.989  0.00  0.00    +0.000 A 
ATOM     29  C   UNL     1      -0.299  10.249  18.928  0.00  0.00    +0.000 A 
ENDBRANCH  19  29
ENDBRANCH  17  20
ENDBRANCH   1  18
TORSDOF 4
ENDMDL
MODEL 3
REMARK VINA RESULT:      -8.1      2.328      4.107
REMARK  Name = 
REMARK  5 active torsions:
REMARK  status: ('A' for Active; 'I' for Inactive)
REMARK    1  A    between atoms: C_1  and  C_2
REMARK    2  A    between atoms: C_7  and  N_8
REMARK    3  A    between atoms: C_9  and  C_11
REMARK    4  A    between atoms: C_12  and  C_13
REMARK    5  A    between atoms: N_15  and  C_16
REMARK                            x       y       z     vdW  Elec       q    Type
REMARK                         _______ _______ _______ _____ _____    ______ ____
ROOT
ATOM      1  C   UNL     1       2.182   5.142  20.619  0.00  0.00    +0.000 C 
ATOM      2  O   UNL     1       2.070   4.212  21.398  0.00  0.00    +0.000 OA
ATOM      3  N   UNL     1       2.996   5.157  19.522  0.00  0.00    +0.000 N 
ATOM      4  H   UNL     1       2.898   5.928  18.871  0.00  0.00    +0.000 HD
ENDROOT
BRANCH   3   5
ATOM      5  C   UNL     1       3.843   4.041  19.057  0.00  0.00    +0.000 C 
ATOM      6  C   UNL     1       5.334   4.098  19.427  0.00  0.00    +0.000 C 
ATOM      7  C   UNL     1       6.058   5.207  18.707  0.00  0.00    +0.000 A 
ATOM      8  C   UNL     1       7.329   5.619  19.122  0.00  0.00    +0.000 A 
ATOM      9  C   UNL     1       7.952   6.698  18.492  0.00  0.00    +0.000 A 
ATOM     10  C   UNL     1       7.302   7.377  17.462  0.00  0.00    +0.000 A 
ATOM     11  C   UNL     1       6.080   6.907  16.978  0.00  0.00    +0.000 A 
ATOM     12  C   UNL     1       5.493   5.790  17.569  0.00  0.00    +0.000 A 
ATOM     13  N   UNL     1       4.390   5.178  16.959  0.00  0.00    +0.000 N 
ATOM     14  C   UNL     1       3.726   4.112  17.531  0.00  0.00    +0.000 C 
ATOM     15  O   UNL     1       2.953   3.416  16.878  0.00  0.00    +0.000 OA
ATOM     16  H   UNL     1       4.175   5.388  15.995  0.00  0.00    +0.000 HD
ENDBRANCH   3   5
BRANCH   1  18
ATOM     17  C   UNL     1       1.889   7.599  20.356  0.00  0.00    +0.000 C 
ATOM     18  C   UNL     1       1.409   6.405  20.760  0.00  0.00    +0.000 C 
BRANCH  17  20
ATOM     19  N   UNL     1       1.008   9.707  19.550  0.00  0.00    +0.000 N 
ATOM     20  C   UNL     1       1.027   8.791  20.596  0.00  0.00    +0.000 C 
ATOM     21  O   UNL     1       0.436   8.886  21.664  0.00  0.00    +0.000 OA
ATOM     22  H   UNL     1       1.532   9.477  18.719  0.00  0.00    +0.000 HD
BRANCH  19  29
ATOM     23  C   UNL     1      -1.431  10.187  17.907  0.00  0.00    +0.000 C 
ATOM     24  C   UNL     1      -0.777  11.229  18.775  0.00  0.00    +0.000 A 
ATOM     25  C   UNL     1      -1.371  12.514  18.787  0.00  0.00    +0.000 A 
ATOM     26  C   UNL     1      -0.851  13.546  19.563  0.00  0.00    +0.000 A 
ATOM     27  C   UNL     1       0.265  13.308  20.344  0.00  0.00    +0.000 A 
ATOM     28  C   UNL     1       0.863  12.045  20.345  0.00  0.00    +0.000 A 
ATOM     29  C   UNL     1       0.371  10.985  19.566  0.00  0.00    +0.000 A 
ENDBRANCH  19  29
ENDBRANCH  17  20
ENDBRANCH   1  18
TORSDOF 4
ENDMDL
MODEL 4
REMARK VINA RESULT:      -8.0      2.072      3.727
REMARK  Name = 
REMARK  5 active torsions:
REMARK  status: ('A' for Active; 'I' for Inactive)
REMARK    1  A    between atoms: C_1  and  C_2
REMARK    2  A    between atoms: C_7  and  N_8
REMARK    3  A    between atoms: C_9  and  C_11
REMARK    4  A    between atoms: C_12  and  C_13
REMARK    5  A    between atoms: N_15  and  C_16
REMARK                            x       y       z     vdW  Elec       q    Type
REMARK                         _______ _______ _______ _____ _____    ______ ____
ROOT
ATOM      1  C   UNL     1       2.472   5.877  20.024  0.00  0.00    +0.000 C 
ATOM      2  O   UNL     1       1.866   5.189  20.827  0.00  0.00    +0.000 OA
ATOM      3  N   UNL     1       3.564   5.476  19.310  0.00  0.00    +0.000 N 
ATOM      4  H   UNL     1       3.896   6.085  18.570  0.00  0.00    +0.000 HD
ENDROOT
BRANCH   3   5
ATOM      5  C   UNL     1       4.175   4.132  19.342  0.00  0.00    +0.000 C 
ATOM      6  C   UNL     1       5.658   4.032  18.951  0.00  0.00    +0.000 C 
ATOM      7  C   UNL     1       5.882   4.314  17.487  0.00  0.00    +0.000 A 
ATOM      8  C   UNL     1       7.166   4.570  16.995  0.00  0.00    +0.000 A 
ATOM      9  C   UNL     1       7.345   4.904  15.652  0.00  0.00    +0.000 A 
ATOM     10  C   UNL     1       6.242   4.999  14.803  0.00  0.00    +0.000 A 
ATOM     11  C   UNL     1       4.973   4.646  15.263  0.00  0.00    +0.000 A 
ATOM     12  C   UNL     1       4.812   4.252  16.590  0.00  0.00    +0.000 A 
ATOM     13  N   UNL     1       3.598   3.687  17.006  0.00  0.00    +0.000 N 
ATOM     14  C   UNL     1       3.356   3.339  18.319  0.00  0.00    +0.000 C 
ATOM     15  O   UNL     1       2.420   2.605  18.623  0.00  0.00    +0.000 OA
ATOM     16  H   UNL     1       2.944   3.349  16.314  0.00  0.00    +0.000 HD
ENDBRANCH   3   5
BRANCH   1  18
ATOM     17  C   UNL     1       2.237   7.810  18.474  0.00  0.00    +0.000 C 
ATOM     18  C   UNL     1       2.073   7.273  19.701  0.00  0.00    +0.000 C 
BRANCH  17  20
ATOM     19  N   UNL     1       1.026   9.732  19.316  0.00  0.00    +0.000 N 
ATOM     20  C   UNL     1       1.833   9.233  18.299  0.00  0.00    +0.000 C 
ATOM     21  O   UNL     1       2.208   9.835  17.301  0.00  0.00    +0.000 OA
ATOM     22  H   UNL     1       0.820   9.118  20.090  0.00  0.00    +0.000 HD
BRANCH  19  29
ATOM     23  C   UNL     1      -1.583  10.148  17.939  0.00  0.00    +0.000 C 
ATOM     24  C   UNL     1      -0.830  11.228  18.669  0.00  0.00    +0.000 A 
ATOM     25  C   UNL     1      -1.415  12.517  18.681  0.00  0.00    +0.000 A 
ATOM     26  C   UNL     1      -0.805  13.584  19.336  0.00  0.00    +0.000 A 
ATOM     27  C   UNL     1       0.393  13.376  19.996  0.00  0.00    +0.000 A 
ATOM     28  C   UNL     1       0.982  12.110  19.995  0.00  0.00    +0.000 A 
ATOM     29  C   UNL     1       0.400  11.014  19.336  0.00  0.00    +0.000 A 
ENDBRANCH  19  29
ENDBRANCH  17  20
ENDBRANCH   1  18
TORSDOF 4
ENDMDL
MODEL 5
REMARK VINA RESULT:      -8.0      2.007      3.950
REMARK  Name = 
REMARK  5 active torsions:
REMARK  status: ('A' for Active; 'I' for Inactive)
REMARK    1  A    between atoms: C_1  and  C_2
REMARK    2  A    between atoms: C_7  and  N_8
REMARK    3  A    between atoms: C_9  and  C_11
REMARK    4  A    between atoms: C_12  and  C_13
REMARK    5  A    between atoms: N_15  and  C_16
REMARK                            x       y       z     vdW  Elec       q    Type
REMARK                         _______ _______ _______ _____ _____    ______ ____
ROOT
ATOM      1  C   UNL     1       2.799   5.713  20.048  0.00  0.00    +0.000 C 
ATOM      2  O   UNL     1       2.376   5.018  20.955  0.00  0.00    +0.000 OA
ATOM      3  N   UNL     1       3.890   5.428  19.279  0.00  0.00    +0.000 N 
ATOM      4  H   UNL     1       4.061   6.008  18.465  0.00  0.00    +0.000 HD
ENDROOT
BRANCH   3   5
ATOM      5  C   UNL     1       4.722   4.211  19.372  0.00  0.00    +0.000 C 
ATOM      6  C   UNL     1       6.143   4.294  18.794  0.00  0.00    +0.000 C 
ATOM      7  C   UNL     1       6.141   4.414  17.291  0.00  0.00    +0.000 A 
ATOM      8  C   UNL     1       7.295   4.802  16.602  0.00  0.00    +0.000 A 
ATOM      9  C   UNL     1       7.254   4.982  15.219  0.00  0.00    +0.000 A 
ATOM     10  C   UNL     1       6.058   4.793  14.524  0.00  0.00    +0.000 A 
ATOM     11  C   UNL     1       4.932   4.310  15.191  0.00  0.00    +0.000 A 
ATOM     12  C   UNL     1       4.998   4.071  16.562  0.00  0.00    +0.000 A 
ATOM     13  N   UNL     1       3.958   3.382  17.200  0.00  0.00    +0.000 N 
ATOM     14  C   UNL     1       3.935   3.175  18.564  0.00  0.00    +0.000 C 
ATOM     15  O   UNL     1       3.182   2.349  19.073  0.00  0.00    +0.000 OA
ATOM     16  H   UNL     1       3.294   2.859  16.646  0.00  0.00    +0.000 HD
ENDBRANCH   3   5
BRANCH   1  18
ATOM     17  C   UNL     1       2.486   7.653  18.520  0.00  0.00    +0.000 C 
ATOM     18  C   UNL     1       2.146   6.987  19.644  0.00  0.00    +0.000 C 
BRANCH  17  20
ATOM     19  N   UNL     1       0.699   9.185  19.094  0.00  0.00    +0.000 N 
ATOM     20  C   UNL     1       1.782   8.940  18.256  0.00  0.00    +0.000 C 
ATOM     21  O   UNL     1       2.178   9.653  17.345  0.00  0.00    +0.000 OA
ATOM     22  H   UNL     1       0.509   8.510  19.820  0.00  0.00    +0.000 HD
BRANCH  19  29
ATOM     23  C   UNL     1       0.952  11.553  20.885  0.00  0.00    +0.000 C 
ATOM     24  C   UNL     1      -0.120  11.393  19.839  0.00  0.00    +0.000 A 
ATOM     25  C   UNL     1      -1.061  12.444  19.725  0.00  0.00    +0.000 A 
ATOM     26  C   UNL     1      -2.086  12.400  18.784  0.00  0.00    +0.000 A 
ATOM     27  C   UNL     1      -2.181  11.310  17.937  0.00  0.00    +0.000 A 
ATOM     28  C   UNL     1      -1.258  10.265  18.036  0.00  0.00    +0.000 A 
ATOM     29  C   UNL     1      -0.219  10.272  18.981  0.00  0.00    +0.000 A 
ENDBRANCH  19  29
ENDBRANCH  17  20
ENDBRANCH   1  18
TORSDOF 4
ENDMDL
MODEL 6
REMARK VINA RESULT:      -7.9      2.514      4.270
REMARK  Name = 
REMARK  5 active torsions:
REMARK  status: ('A' for Active; 'I' for Inactive)
REMARK    1  A    between atoms: C_1  and  C_2
REMARK    2  A    between atoms: C_7  and  N_8
REMARK    3  A    between atoms: C_9  and  C_11
REMARK    4  A    between atoms: C_12  and  C_13
REMARK    5  A    between atoms: N_15  and  C_16
REMARK                            x       y       z     vdW  Elec       q    Type
REMARK                         _______ _______ _______ _____ _____    ______ ____
ROOT
ATOM      1  C   UNL     1       1.696   5.182  20.451  0.00  0.00    +0.000 C 
ATOM      2  O   UNL     1       0.952   4.220  20.369  0.00  0.00    +0.000 OA
ATOM      3  N   UNL     1       2.985   5.221  20.004  0.00  0.00    +0.000 N 
ATOM      4  H   UNL     1       3.457   6.118  19.998  0.00  0.00    +0.000 HD
ENDROOT
BRANCH   3   5
ATOM      5  C   UNL     1       3.693   4.131  19.302  0.00  0.00    +0.000 C 
ATOM      6  C   UNL     1       5.224   4.105  19.422  0.00  0.00    +0.000 C 
ATOM      7  C   UNL     1       5.873   5.256  18.698  0.00  0.00    +0.000 A 
ATOM      8  C   UNL     1       7.212   5.586  18.931  0.00  0.00    +0.000 A 
ATOM      9  C   UNL     1       7.774   6.702  18.310  0.00  0.00    +0.000 A 
ATOM     10  C   UNL     1       6.997   7.500  17.470  0.00  0.00    +0.000 A 
ATOM     11  C   UNL     1       5.693   7.118  17.155  0.00  0.00    +0.000 A 
ATOM     12  C   UNL     1       5.158   5.967  17.729  0.00  0.00    +0.000 A 
ATOM     13  N   UNL     1       3.943   5.453  17.258  0.00  0.00    +0.000 N 
ATOM     14  C   UNL     1       3.331   4.356  17.830  0.00  0.00    +0.000 C 
ATOM     15  O   UNL     1       2.431   3.753  17.254  0.00  0.00    +0.000 OA
ATOM     16  H   UNL     1       3.583   5.764  16.366  0.00  0.00    +0.000 HD
ENDBRANCH   3   5
BRANCH   1  18
ATOM     17  C   UNL     1       1.735   7.665  20.611  0.00  0.00    +0.000 C 
ATOM     18  C   UNL     1       1.270   6.476  21.048  0.00  0.00    +0.000 C 
BRANCH  17  20
ATOM     19  N   UNL     1       0.088   9.431  20.813  0.00  0.00    +0.000 N 
ATOM     20  C   UNL     1       1.258   8.882  21.327  0.00  0.00    +0.000 C 
ATOM     21  O   UNL     1       1.915   9.308  22.267  0.00  0.00    +0.000 OA
ATOM     22  H   UNL     1      -0.354   8.949  20.044  0.00  0.00    +0.000 HD
BRANCH  19  29
ATOM     23  C   UNL     1      -0.427  11.591  18.827  0.00  0.00    +0.000 C 
ATOM     24  C   UNL     1      -0.746  11.698  20.295  0.00  0.00    +0.000 A 
ATOM     25  C   UNL     1      -1.318  12.914  20.737  0.00  0.00    +0.000 A 
ATOM     26  C   UNL     1      -1.659  13.112  22.071  0.00  0.00    +0.000 A 
ATOM     27  C   UNL     1      -1.442  12.094  22.983  0.00  0.00    +0.000 A 
ATOM     28  C   UNL     1      -0.880  10.886  22.562  0.00  0.00    +0.000 A 
ATOM     29  C   UNL     1      -0.514  10.657  21.226  0.00  0.00    +0.000 A 
ENDBRANCH  19  29
ENDBRANCH  17  20
ENDBRANCH   1  18
TORSDOF 4
ENDMDL
MODEL 7
REMARK VINA RESULT:      -7.9      2.589      8.732
REMARK  Name = 
REMARK  5 active torsions:
REMARK  status: ('A' for Active; 'I' for Inactive)
REMARK    1  A    between atoms: C_1  and  C_2
REMARK    2  A    between atoms: C_7  and  N_8
REMARK    3  A    between atoms: C_9  and  C_11
REMARK    4  A    between atoms: C_12  and  C_13
REMARK    5  A    between atoms: N_15  and  C_16
REMARK                            x       y       z     vdW  Elec       q    Type
REMARK                         _______ _______ _______ _____ _____    ______ ____
ROOT
ATOM      1  C   UNL     1       0.264  10.620  21.110  0.00  0.00    +0.000 C 
ATOM      2  O   UNL     1       0.465  11.247  22.135  0.00  0.00    +0.000 OA
ATOM      3  N   UNL     1      -0.472  11.060  20.048  0.00  0.00    +0.000 N 
ATOM      4  H   UNL     1      -0.450  10.512  19.196  0.00  0.00    +0.000 HD
ENDROOT
BRANCH   3   5
ATOM      5  C   UNL     1      -1.114  12.385  19.929  0.00  0.00    +0.000 C 
ATOM      6  C   UNL     1      -2.646  12.408  19.808  0.00  0.00    +0.000 C 
ATOM      7  C   UNL     1      -3.123  11.841  18.496  0.00  0.00    +0.000 A 
ATOM      8  C   UNL     1      -4.466  11.494  18.311  0.00  0.00    +0.000 A 
ATOM      9  C   UNL     1      -4.875  10.900  17.117  0.00  0.00    +0.000 A 
ATOM     10  C   UNL     1      -3.943  10.635  16.113  0.00  0.00    +0.000 A 
ATOM     11  C   UNL     1      -2.625  11.070  16.251  0.00  0.00    +0.000 A 
ATOM     12  C   UNL     1      -2.237  11.720  17.421  0.00  0.00    +0.000 A 
ATOM     13  N   UNL     1      -0.989  12.355  17.485  0.00  0.00    +0.000 N 
ATOM     14  C   UNL     1      -0.523  12.956  18.636  0.00  0.00    +0.000 C 
ATOM     15  O   UNL     1       0.426  13.735  18.611  0.00  0.00    +0.000 OA
ATOM     16  H   UNL     1      -0.485  12.547  16.631  0.00  0.00    +0.000 HD
ENDBRANCH   3   5
BRANCH   1  18
ATOM     17  C   UNL     1       1.495   8.941  19.746  0.00  0.00    +0.000 C 
ATOM     18  C   UNL     1       0.831   9.265  20.875  0.00  0.00    +0.000 C 
BRANCH  17  20
ATOM     19  N   UNL     1       2.429   7.193  18.353  0.00  0.00    +0.000 N 
ATOM     20  C   UNL     1       1.973   7.535  19.621  0.00  0.00    +0.000 C 
ATOM     21  O   UNL     1       1.916   6.804  20.601  0.00  0.00    +0.000 OA
ATOM     22  H   UNL     1       2.438   7.917  17.649  0.00  0.00    +0.000 HD
BRANCH  19  29
ATOM     23  C   UNL     1       5.174   6.728  17.290  0.00  0.00    +0.000 C 
ATOM     24  C   UNL     1       4.118   5.660  17.403  0.00  0.00    +0.000 A 
ATOM     25  C   UNL     1       4.472   4.363  16.961  0.00  0.00    +0.000 A 
ATOM     26  C   UNL     1       3.574   3.303  17.031  0.00  0.00    +0.000 A 
ATOM     27  C   UNL     1       2.310   3.520  17.552  0.00  0.00    +0.000 A 
ATOM     28  C   UNL     1       1.945   4.794  17.993  0.00  0.00    +0.000 A 
ATOM     29  C   UNL     1       2.823   5.888  17.928  0.00  0.00    +0.000 A 
ENDBRANCH  19  29
ENDBRANCH  17  20
ENDBRANCH   1  18
TORSDOF 4
ENDMDL
MODEL 8
REMARK VINA RESULT:      -7.9      2.253      8.721
REMARK  Name = 
REMARK  5 active torsions:
REMARK  status: ('A' for Active; 'I' for Inactive)
REMARK    1  A    between atoms: C_1  and  C_2
REMARK    2  A    between atoms: C_7  and  N_8
REMARK    3  A    between atoms: C_9  and  C_11
REMARK    4  A    between atoms: C_12  and  C_13
REMARK    5  A    between atoms: N_15  and  C_16
REMARK                            x       y       z     vdW  Elec       q    Type
REMARK                         _______ _______ _______ _____ _____    ______ ____
ROOT
ATOM      1  C   UNL     1       0.592  10.335  20.685  0.00  0.00    +0.000 C 
ATOM      2  O   UNL     1       0.932  10.847  21.737  0.00  0.00    +0.000 OA
ATOM      3  N   UNL     1      -0.271  10.887  19.782  0.00  0.00    +0.000 N 
ATOM      4  H   UNL     1      -0.366  10.434  18.880  0.00  0.00    +0.000 HD
ENDROOT
BRANCH   3   5
ATOM      5  C   UNL     1      -0.904  12.217  19.890  0.00  0.00    +0.000 C 
ATOM      6  C   UNL     1      -2.439  12.252  19.965  0.00  0.00    +0.000 C 
ATOM      7  C   UNL     1      -3.082  11.834  18.668  0.00  0.00    +0.000 A 
ATOM      8  C   UNL     1      -4.442  11.509  18.615  0.00  0.00    +0.000 A 
ATOM      9  C   UNL     1      -5.004  11.050  17.422  0.00  0.00    +0.000 A 
ATOM     10  C   UNL     1      -4.207  10.899  16.287  0.00  0.00    +0.000 A 
ATOM     11  C   UNL     1      -2.876  11.317  16.307  0.00  0.00    +0.000 A 
ATOM     12  C   UNL     1      -2.338  11.834  17.484  0.00  0.00    +0.000 A 
ATOM     13  N   UNL     1      -1.084  12.458  17.462  0.00  0.00    +0.000 N 
ATOM     14  C   UNL     1      -0.471  12.928  18.605  0.00  0.00    +0.000 C 
ATOM     15  O   UNL     1       0.478  13.706  18.548  0.00  0.00    +0.000 OA
ATOM     16  H   UNL     1      -0.686  12.744  16.578  0.00  0.00    +0.000 HD
ENDBRANCH   3   5
BRANCH   1  18
ATOM     17  C   UNL     1       1.813   8.859  19.096  0.00  0.00    +0.000 C 
ATOM     18  C   UNL     1       1.105   9.014  20.234  0.00  0.00    +0.000 C 
BRANCH  17  20
ATOM     19  N   UNL     1       2.692   6.719  19.813  0.00  0.00    +0.000 N 
ATOM     20  C   UNL     1       2.230   7.473  18.740  0.00  0.00    +0.000 C 
ATOM     21  O   UNL     1       2.156   7.117  17.572  0.00  0.00    +0.000 OA
ATOM     22  H   UNL     1       2.670   7.146  20.727  0.00  0.00    +0.000 HD
BRANCH  19  29
ATOM     23  C   UNL     1       1.082   4.326  20.563  0.00  0.00    +0.000 C 
ATOM     24  C   UNL     1       2.517   4.272  20.107  0.00  0.00    +0.000 A 
ATOM     25  C   UNL     1       3.119   2.993  20.047  0.00  0.00    +0.000 A 
ATOM     26  C   UNL     1       4.437   2.832  19.630  0.00  0.00    +0.000 A 
ATOM     27  C   UNL     1       5.170   3.944  19.257  0.00  0.00    +0.000 A 
ATOM     28  C   UNL     1       4.589   5.214  19.308  0.00  0.00    +0.000 A 
ATOM     29  C   UNL     1       3.266   5.414  19.734  0.00  0.00    +0.000 A 
ENDBRANCH  19  29
ENDBRANCH  17  20
ENDBRANCH   1  18
TORSDOF 4
ENDMDL
MODEL 9
REMARK VINA RESULT:      -7.8      2.220      3.140
REMARK  Name = 
REMARK  5 active torsions:
REMARK  status: ('A' for Active; 'I' for Inactive)
REMARK    1  A    between atoms: C_1  and  C_2
REMARK    2  A    between atoms: C_7  and  N_8
REMARK    3  A    between atoms: C_9  and  C_11
REMARK    4  A    between atoms: C_12  and  C_13
REMARK    5  A    between atoms: N_15  and  C_16
REMARK                            x       y       z     vdW  Elec       q    Type
REMARK                         _______ _______ _______ _____ _____    ______ ____
ROOT
ATOM      1  C   UNL     1       1.986   8.500  18.448  0.00  0.00    +0.000 C 
ATOM      2  O   UNL     1       1.997   8.876  17.289  0.00  0.00    +0.000 OA
ATOM      3  N   UNL     1       2.416   7.280  18.885  0.00  0.00    +0.000 N 
ATOM      4  H   UNL     1       2.491   7.134  19.885  0.00  0.00    +0.000 HD
ENDROOT
BRANCH   3   5
ATOM      5  C   UNL     1       3.015   6.221  18.047  0.00  0.00    +0.000 C 
ATOM      6  C   UNL     1       2.157   4.975  17.781  0.00  0.00    +0.000 C 
ATOM      7  C   UNL     1       1.953   4.148  19.025  0.00  0.00    +0.000 A 
ATOM      8  C   UNL     1       0.970   3.154  19.071  0.00  0.00    +0.000 A 
ATOM      9  C   UNL     1       0.744   2.450  20.255  0.00  0.00    +0.000 A 
ATOM     10  C   UNL     1       1.487   2.748  21.398  0.00  0.00    +0.000 A 
ATOM     11  C   UNL     1       2.535   3.666  21.329  0.00  0.00    +0.000 A 
ATOM     12  C   UNL     1       2.797   4.319  20.127  0.00  0.00    +0.000 A 
ATOM     13  N   UNL     1       3.972   5.069  19.981  0.00  0.00    +0.000 N 
ATOM     14  C   UNL     1       4.253   5.791  18.840  0.00  0.00    +0.000 C 
ATOM     15  O   UNL     1       5.384   6.210  18.611  0.00  0.00    +0.000 OA
ATOM     16  H   UNL     1       4.727   4.942  20.641  0.00  0.00    +0.000 HD
ENDBRANCH   3   5
BRANCH   1  18
ATOM     17  C   UNL     1       1.058   8.846  20.732  0.00  0.00    +0.000 C 
ATOM     18  C   UNL     1       1.505   9.356  19.565  0.00  0.00    +0.000 C 
BRANCH  17  20
ATOM     19  N   UNL     1      -0.278  10.801  21.246  0.00  0.00    +0.000 N 
ATOM     20  C   UNL     1       0.565   9.816  21.750  0.00  0.00    +0.000 C 
ATOM     21  O   UNL     1       0.937   9.694  22.910  0.00  0.00    +0.000 OA
ATOM     22  H   UNL     1      -0.513  10.755  20.266  0.00  0.00    +0.000 HD
BRANCH  19  29
ATOM     23  C   UNL     1       1.080  13.447  21.074  0.00  0.00    +0.000 C 
ATOM     24  C   UNL     1      -0.140  13.176  21.913  0.00  0.00    +0.000 A 
ATOM     25  C   UNL     1      -0.651  14.259  22.666  0.00  0.00    +0.000 A 
ATOM     26  C   UNL     1      -1.781  14.117  23.466  0.00  0.00    +0.000 A 
ATOM     27  C   UNL     1      -2.422  12.893  23.520  0.00  0.00    +0.000 A 
ATOM     28  C   UNL     1      -1.931  11.813  22.781  0.00  0.00    +0.000 A 
ATOM     29  C   UNL     1      -0.788  11.919  21.972  0.00  0.00    +0.000 A 
ENDBRANCH  19  29
ENDBRANCH  17  20
ENDBRANCH   1  18
TORSDOF 4
ENDMDL
