MODEL 1
REMARK VINA RESULT:      -8.5      0.000      0.000
REMARK  Name = 
REMARK  3 active torsions:
REMARK  status: ('A' for Active; 'I' for Inactive)
REMARK    1  A    between atoms: C_1  and  C_2
REMARK    2  A    between atoms: C_2  and  C_3
REMARK    3  A    between atoms: C_6  and  N_7
REMARK                            x       y       z     vdW  Elec       q    Type
REMARK                         _______ _______ _______ _____ _____    ______ ____
ROOT
ATOM      1  C   UNL     1       2.875   4.027  20.619  0.00  0.00    +0.000 C 
ATOM      2  C   UNL     1       3.379   4.463  19.234  0.00  0.00    +0.000 C 
ATOM      3  C   UNL     1       2.753   3.569  18.148  0.00  0.00    +0.000 C 
ATOM      4  O   UNL     1       1.703   2.943  18.280  0.00  0.00    +0.000 OA
ATOM      5  N   UNL     1       3.358   3.643  16.915  0.00  0.00    +0.000 N 
ATOM      6  C   UNL     1       4.653   4.136  16.712  0.00  0.00    +0.000 A 
ATOM      7  C   UNL     1       5.109   4.287  15.402  0.00  0.00    +0.000 A 
ATOM      8  C   UNL     1       6.423   4.685  15.177  0.00  0.00    +0.000 A 
ATOM      9 CL   UNL     1       6.984   4.896  13.566  0.00  0.00    +0.000 Cl
ATOM     10  C   UNL     1       7.288   4.910  16.244  0.00  0.00    +0.000 A 
ATOM     11  C   UNL     1       6.831   4.778  17.560  0.00  0.00    +0.000 A 
ATOM     12 CL   UNL     1       7.972   5.126  18.807  0.00  0.00    +0.000 Cl
ATOM     13  C   UNL     1       5.500   4.411  17.799  0.00  0.00    +0.000 A 
ATOM     14  C   UNL     1       4.902   4.280  19.154  0.00  0.00    +0.000 C 
ATOM     15  O   UNL     1       5.601   4.063  20.138  0.00  0.00    +0.000 OA
ATOM     16  H   UNL     1       2.833   3.239  16.146  0.00  0.00    +0.000 HD
ENDROOT
BRANCH   2  17
ATOM     17  C   UNL     1       2.964   5.941  18.999  0.00  0.00    +0.000 A 
ATOM     18  C   UNL     1       3.274   6.613  17.801  0.00  0.00    +0.000 A 
ATOM     19  C   UNL     1       2.803   7.911  17.564  0.00  0.00    +0.000 A 
ATOM     20  C   UNL     1       2.033   8.561  18.537  0.00  0.00    +0.000 A 
ATOM     21  C   UNL     1       1.761   7.935  19.754  0.00  0.00    +0.000 A 
ATOM     22  C   UNL     1       2.240   6.644  19.985  0.00  0.00    +0.000 A 
BRANCH  20  23
ATOM     23  N   UNL     1       1.495   9.906  18.277  0.00  0.00    +0.000 N 
ATOM     24  O   UNL     1       0.284  10.083  18.465  0.00  0.00    +0.000 OA
ATOM     25  O   UNL     1       2.287  10.779  17.902  0.00  0.00    +0.000 OA
ENDBRANCH  20  23
ENDBRANCH   2  17
TORSDOF 2
ENDMDL
MODEL 2
REMARK VINA RESULT:      -8.3      0.346      1.046
REMARK  Name = 
REMARK  3 active torsions:
REMARK  status: ('A' for Active; 'I' for Inactive)
REMARK    1  A    between atoms: C_1  and  C_2
REMARK    2  A    between atoms: C_2  and  C_3
REMARK    3  A    between atoms: C_6  and  N_7
REMARK                            x       y       z     vdW  Elec       q    Type
REMARK                         _______ _______ _______ _____ _____    ______ ____
ROOT
ATOM      1  C   UNL     1       2.858   3.735  20.625  0.00  0.00    +0.000 C 
ATOM      2  C   UNL     1       3.364   4.236  19.262  0.00  0.00    +0.000 C 
ATOM      3  C   UNL     1       2.829   3.326  18.142  0.00  0.00    +0.000 C 
ATOM      4  O   UNL     1       1.823   2.625  18.234  0.00  0.00    +0.000 OA
ATOM      5  N   UNL     1       3.457   3.469  16.927  0.00  0.00    +0.000 N 
ATOM      6  C   UNL     1       4.719   4.055  16.767  0.00  0.00    +0.000 A 
ATOM      7  C   UNL     1       5.194   4.267  15.473  0.00  0.00    +0.000 A 
ATOM      8  C   UNL     1       6.483   4.761  15.290  0.00  0.00    +0.000 A 
ATOM      9 CL   UNL     1       7.066   5.047  13.699  0.00  0.00    +0.000 Cl
ATOM     10  C   UNL     1       7.304   5.022  16.384  0.00  0.00    +0.000 A 
ATOM     11  C   UNL     1       6.824   4.829  17.684  0.00  0.00    +0.000 A 
ATOM     12 CL   UNL     1       7.908   5.228  18.967  0.00  0.00    +0.000 Cl
ATOM     13  C   UNL     1       5.518   4.364  17.881  0.00  0.00    +0.000 A 
ATOM     14  C   UNL     1       4.897   4.162  19.217  0.00  0.00    +0.000 C 
ATOM     15  O   UNL     1       5.586   3.972  20.214  0.00  0.00    +0.000 OA
ATOM     16  H   UNL     1       2.981   3.047  16.136  0.00  0.00    +0.000 HD
ENDROOT
BRANCH   2  17
ATOM     17  C   UNL     1       2.852   5.686  19.047  0.00  0.00    +0.000 A 
ATOM     18  C   UNL     1       2.166   6.384  20.059  0.00  0.00    +0.000 A 
ATOM     19  C   UNL     1       1.802   7.726  19.885  0.00  0.00    +0.000 A 
ATOM     20  C   UNL     1       2.103   8.379  18.683  0.00  0.00    +0.000 A 
ATOM     21  C   UNL     1       2.732   7.690  17.645  0.00  0.00    +0.000 A 
ATOM     22  C   UNL     1       3.084   6.351  17.824  0.00  0.00    +0.000 A 
BRANCH  20  23
ATOM     23  N   UNL     1       1.767   9.801  18.510  0.00  0.00    +0.000 N 
ATOM     24  O   UNL     1       1.030  10.322  19.358  0.00  0.00    +0.000 OA
ATOM     25  O   UNL     1       2.252  10.392  17.536  0.00  0.00    +0.000 OA
ENDBRANCH  20  23
ENDBRANCH   2  17
TORSDOF 2
ENDMDL
MODEL 3
REMARK VINA RESULT:      -8.0      3.593      6.318
REMARK  Name = 
REMARK  3 active torsions:
REMARK  status: ('A' for Active; 'I' for Inactive)
REMARK    1  A    between atoms: C_1  and  C_2
REMARK    2  A    between atoms: C_2  and  C_3
REMARK    3  A    between atoms: C_6  and  N_7
REMARK                            x       y       z     vdW  Elec       q    Type
REMARK                         _______ _______ _______ _____ _____    ______ ____
ROOT
ATOM      1  C   UNL     1       8.066   4.447  18.053  0.00  0.00    +0.000 C 
ATOM      2  C   UNL     1       6.825   5.221  17.581  0.00  0.00    +0.000 C 
ATOM      3  C   UNL     1       7.109   6.733  17.622  0.00  0.00    +0.000 C 
ATOM      4  O   UNL     1       8.231   7.234  17.579  0.00  0.00    +0.000 OA
ATOM      5  N   UNL     1       5.996   7.536  17.534  0.00  0.00    +0.000 N 
ATOM      6  C   UNL     1       4.693   7.092  17.796  0.00  0.00    +0.000 A 
ATOM      7  C   UNL     1       3.632   7.961  17.542  0.00  0.00    +0.000 A 
ATOM      8  C   UNL     1       2.338   7.577  17.882  0.00  0.00    +0.000 A 
ATOM      9 CL   UNL     1       1.022   8.633  17.551  0.00  0.00    +0.000 Cl
ATOM     10  C   UNL     1       2.100   6.347  18.490  0.00  0.00    +0.000 A 
ATOM     11  C   UNL     1       3.159   5.465  18.729  0.00  0.00    +0.000 A 
ATOM     12 CL   UNL     1       2.748   3.949  19.444  0.00  0.00    +0.000 Cl
ATOM     13  C   UNL     1       4.461   5.827  18.361  0.00  0.00    +0.000 A 
ATOM     14  C   UNL     1       5.651   4.951  18.533  0.00  0.00    +0.000 C 
ATOM     15  O   UNL     1       5.664   4.057  19.373  0.00  0.00    +0.000 OA
ATOM     16  H   UNL     1       6.177   8.515  17.339  0.00  0.00    +0.000 HD
ENDROOT
BRANCH   2  17
ATOM     17  C   UNL     1       6.497   4.790  16.125  0.00  0.00    +0.000 A 
ATOM     18  C   UNL     1       7.335   5.133  15.047  0.00  0.00    +0.000 A 
ATOM     19  C   UNL     1       7.079   4.649  13.758  0.00  0.00    +0.000 A 
ATOM     20  C   UNL     1       5.965   3.832  13.529  0.00  0.00    +0.000 A 
ATOM     21  C   UNL     1       5.090   3.525  14.572  0.00  0.00    +0.000 A 
ATOM     22  C   UNL     1       5.348   4.018  15.852  0.00  0.00    +0.000 A 
BRANCH  20  23
ATOM     23  N   UNL     1       5.715   3.281  12.187  0.00  0.00    +0.000 N 
ATOM     24  O   UNL     1       6.663   2.734  11.608  0.00  0.00    +0.000 OA
ATOM     25  O   UNL     1       4.571   3.385  11.727  0.00  0.00    +0.000 OA
ENDBRANCH  20  23
ENDBRANCH   2  17
TORSDOF 2
ENDMDL
MODEL 4
REMARK VINA RESULT:      -7.9      3.507      5.966
REMARK  Name = 
REMARK  3 active torsions:
REMARK  status: ('A' for Active; 'I' for Inactive)
REMARK    1  A    between atoms: C_1  and  C_2
REMARK    2  A    between atoms: C_2  and  C_3
REMARK    3  A    between atoms: C_6  and  N_7
REMARK                            x       y       z     vdW  Elec       q    Type
REMARK                         _______ _______ _______ _____ _____    ______ ____
ROOT
ATOM      1  C   UNL     1       6.699   6.906  18.026  0.00  0.00    +0.000 C 
ATOM      2  C   UNL     1       5.468   6.020  17.780  0.00  0.00    +0.000 C 
ATOM      3  C   UNL     1       4.193   6.880  17.810  0.00  0.00    +0.000 C 
ATOM      4  O   UNL     1       4.163   8.091  17.596  0.00  0.00    +0.000 OA
ATOM      5  N   UNL     1       3.017   6.174  17.923  0.00  0.00    +0.000 N 
ATOM      6  C   UNL     1       2.944   4.853  18.382  0.00  0.00    +0.000 A 
ATOM      7  C   UNL     1       1.714   4.197  18.324  0.00  0.00    +0.000 A 
ATOM      8  C   UNL     1       1.595   2.919  18.861  0.00  0.00    +0.000 A 
ATOM      9 CL   UNL     1       0.089   2.095  18.772  0.00  0.00    +0.000 Cl
ATOM     10  C   UNL     1       2.684   2.302  19.471  0.00  0.00    +0.000 A 
ATOM     11  C   UNL     1       3.925   2.949  19.514  0.00  0.00    +0.000 A 
ATOM     12 CL   UNL     1       5.218   2.076  20.251  0.00  0.00    +0.000 Cl
ATOM     13  C   UNL     1       4.064   4.222  18.948  0.00  0.00    +0.000 A 
ATOM     14  C   UNL     1       5.343   4.980  18.904  0.00  0.00    +0.000 C 
ATOM     15  O   UNL     1       6.240   4.757  19.710  0.00  0.00    +0.000 OA
ATOM     16  H   UNL     1       2.172   6.699  17.723  0.00  0.00    +0.000 HD
ENDROOT
BRANCH   2  17
ATOM     17  C   UNL     1       5.613   5.347  16.388  0.00  0.00    +0.000 A 
ATOM     18  C   UNL     1       5.257   6.019  15.203  0.00  0.00    +0.000 A 
ATOM     19  C   UNL     1       5.491   5.437  13.950  0.00  0.00    +0.000 A 
ATOM     20  C   UNL     1       6.065   4.161  13.871  0.00  0.00    +0.000 A 
ATOM     21  C   UNL     1       6.374   3.454  15.034  0.00  0.00    +0.000 A 
ATOM     22  C   UNL     1       6.130   4.039  16.278  0.00  0.00    +0.000 A 
BRANCH  20  23
ATOM     23  N   UNL     1       6.357   3.562  12.559  0.00  0.00    +0.000 N 
ATOM     24  O   UNL     1       5.631   2.633  12.180  0.00  0.00    +0.000 OA
ATOM     25  O   UNL     1       7.300   4.032  11.910  0.00  0.00    +0.000 OA
ENDBRANCH  20  23
ENDBRANCH   2  17
TORSDOF 2
ENDMDL
MODEL 5
REMARK VINA RESULT:      -7.8      3.433      5.964
REMARK  Name = 
REMARK  3 active torsions:
REMARK  status: ('A' for Active; 'I' for Inactive)
REMARK    1  A    between atoms: C_1  and  C_2
REMARK    2  A    between atoms: C_2  and  C_3
REMARK    3  A    between atoms: C_6  and  N_7
REMARK                            x       y       z     vdW  Elec       q    Type
REMARK                         _______ _______ _______ _____ _____    ______ ____
ROOT
ATOM      1  C   UNL     1       6.802   6.849  18.077  0.00  0.00    +0.000 C 
ATOM      2  C   UNL     1       5.562   5.980  17.811  0.00  0.00    +0.000 C 
ATOM      3  C   UNL     1       4.298   6.858  17.824  0.00  0.00    +0.000 C 
ATOM      4  O   UNL     1       4.289   8.070  17.613  0.00  0.00    +0.000 OA
ATOM      5  N   UNL     1       3.112   6.169  17.917  0.00  0.00    +0.000 N 
ATOM      6  C   UNL     1       3.013   4.847  18.372  0.00  0.00    +0.000 A 
ATOM      7  C   UNL     1       1.776   4.209  18.295  0.00  0.00    +0.000 A 
ATOM      8  C   UNL     1       1.631   2.931  18.827  0.00  0.00    +0.000 A 
ATOM      9 CL   UNL     1       0.115   2.129  18.714  0.00  0.00    +0.000 Cl
ATOM     10  C   UNL     1       2.703   2.298  19.451  0.00  0.00    +0.000 A 
ATOM     11  C   UNL     1       3.951   2.927  19.514  0.00  0.00    +0.000 A 
ATOM     12 CL   UNL     1       5.221   2.035  20.268  0.00  0.00    +0.000 Cl
ATOM     13  C   UNL     1       4.117   4.200  18.953  0.00  0.00    +0.000 A 
ATOM     14  C   UNL     1       5.406   4.939  18.930  0.00  0.00    +0.000 C 
ATOM     15  O   UNL     1       6.288   4.702  19.748  0.00  0.00    +0.000 OA
ATOM     16  H   UNL     1       2.277   6.705  17.707  0.00  0.00    +0.000 HD
ENDROOT
BRANCH   2  17
ATOM     17  C   UNL     1       5.718   5.308  16.419  0.00  0.00    +0.000 A 
ATOM     18  C   UNL     1       6.036   3.943  16.290  0.00  0.00    +0.000 A 
ATOM     19  C   UNL     1       6.072   3.331  15.030  0.00  0.00    +0.000 A 
ATOM     20  C   UNL     1       5.811   4.087  13.880  0.00  0.00    +0.000 A 
ATOM     21  C   UNL     1       5.549   5.454  13.980  0.00  0.00    +0.000 A 
ATOM     22  C   UNL     1       5.522   6.058  15.239  0.00  0.00    +0.000 A 
BRANCH  20  23
ATOM     23  N   UNL     1       5.800   3.442  12.558  0.00  0.00    +0.000 N 
ATOM     24  O   UNL     1       6.892   3.137  12.061  0.00  0.00    +0.000 OA
ATOM     25  O   UNL     1       4.700   3.231  12.030  0.00  0.00    +0.000 OA
ENDBRANCH  20  23
ENDBRANCH   2  17
TORSDOF 2
ENDMDL
MODEL 6
REMARK VINA RESULT:      -7.7      6.319      8.253
REMARK  Name = 
REMARK  3 active torsions:
REMARK  status: ('A' for Active; 'I' for Inactive)
REMARK    1  A    between atoms: C_1  and  C_2
REMARK    2  A    between atoms: C_2  and  C_3
REMARK    3  A    between atoms: C_6  and  N_7
REMARK                            x       y       z     vdW  Elec       q    Type
REMARK                         _______ _______ _______ _____ _____    ______ ____
ROOT
ATOM      1  C   UNL     1      -0.000   9.007  20.766  0.00  0.00    +0.000 C 
ATOM      2  C   UNL     1       0.340  10.179  19.832  0.00  0.00    +0.000 C 
ATOM      3  C   UNL     1       1.539   9.805  18.943  0.00  0.00    +0.000 C 
ATOM      4  O   UNL     1       1.875   8.653  18.675  0.00  0.00    +0.000 OA
ATOM      5  N   UNL     1       2.138  10.863  18.300  0.00  0.00    +0.000 N 
ATOM      6  C   UNL     1       1.987  12.199  18.691  0.00  0.00    +0.000 A 
ATOM      7  C   UNL     1       2.533  13.195  17.881  0.00  0.00    +0.000 A 
ATOM      8  C   UNL     1       2.477  14.522  18.297  0.00  0.00    +0.000 A 
ATOM      9 CL   UNL     1       3.127  15.757  17.293  0.00  0.00    +0.000 Cl
ATOM     10  C   UNL     1       1.903  14.858  19.520  0.00  0.00    +0.000 A 
ATOM     11  C   UNL     1       1.337  13.865  20.327  0.00  0.00    +0.000 A 
ATOM     12 CL   UNL     1       0.610  14.395  21.800  0.00  0.00    +0.000 Cl
ATOM     13  C   UNL     1       1.358  12.529  19.903  0.00  0.00    +0.000 A 
ATOM     14  C   UNL     1       0.752  11.404  20.663  0.00  0.00    +0.000 C 
ATOM     15  O   UNL     1       0.579  11.477  21.875  0.00  0.00    +0.000 OA
ATOM     16  H   UNL     1       2.776  10.614  17.551  0.00  0.00    +0.000 HD
ENDROOT
BRANCH   2  17
ATOM     17  C   UNL     1      -0.897  10.478  18.942  0.00  0.00    +0.000 A 
ATOM     18  C   UNL     1      -1.841  11.462  19.297  0.00  0.00    +0.000 A 
ATOM     19  C   UNL     1      -2.894  11.789  18.433  0.00  0.00    +0.000 A 
ATOM     20  C   UNL     1      -3.027  11.118  17.211  0.00  0.00    +0.000 A 
ATOM     21  C   UNL     1      -2.136  10.102  16.864  0.00  0.00    +0.000 A 
ATOM     22  C   UNL     1      -1.094   9.776  17.735  0.00  0.00    +0.000 A 
BRANCH  20  23
ATOM     23  N   UNL     1      -4.102  11.489  16.277  0.00  0.00    +0.000 N 
ATOM     24  O   UNL     1      -5.156  11.923  16.762  0.00  0.00    +0.000 OA
ATOM     25  O   UNL     1      -3.883  11.358  15.066  0.00  0.00    +0.000 OA
ENDBRANCH  20  23
ENDBRANCH   2  17
TORSDOF 2
ENDMDL
MODEL 7
REMARK VINA RESULT:      -7.7      6.365      8.274
REMARK  Name = 
REMARK  3 active torsions:
REMARK  status: ('A' for Active; 'I' for Inactive)
REMARK    1  A    between atoms: C_1  and  C_2
REMARK    2  A    between atoms: C_2  and  C_3
REMARK    3  A    between atoms: C_6  and  N_7
REMARK                            x       y       z     vdW  Elec       q    Type
REMARK                         _______ _______ _______ _____ _____    ______ ____
ROOT
ATOM      1  C   UNL     1      -0.082   9.169  20.781  0.00  0.00    +0.000 C 
ATOM      2  C   UNL     1       0.302  10.321  19.838  0.00  0.00    +0.000 C 
ATOM      3  C   UNL     1       1.440   9.873  18.904  0.00  0.00    +0.000 C 
ATOM      4  O   UNL     1       1.688   8.702  18.620  0.00  0.00    +0.000 OA
ATOM      5  N   UNL     1       2.084  10.892  18.242  0.00  0.00    +0.000 N 
ATOM      6  C   UNL     1       2.037  12.233  18.643  0.00  0.00    +0.000 A 
ATOM      7  C   UNL     1       2.617  13.195  17.816  0.00  0.00    +0.000 A 
ATOM      8  C   UNL     1       2.665  14.520  18.238  0.00  0.00    +0.000 A 
ATOM      9 CL   UNL     1       3.359  15.714  17.214  0.00  0.00    +0.000 Cl
ATOM     10  C   UNL     1       2.160  14.887  19.482  0.00  0.00    +0.000 A 
ATOM     11  C   UNL     1       1.559  13.929  20.307  0.00  0.00    +0.000 A 
ATOM     12 CL   UNL     1       0.924  14.499  21.807  0.00  0.00    +0.000 Cl
ATOM     13  C   UNL     1       1.475  12.598  19.878  0.00  0.00    +0.000 A 
ATOM     14  C   UNL     1       0.824  11.511  20.657  0.00  0.00    +0.000 C 
ATOM     15  O   UNL     1       0.701  11.589  21.874  0.00  0.00    +0.000 OA
ATOM     16  H   UNL     1       2.676  10.605  17.469  0.00  0.00    +0.000 HD
ENDROOT
BRANCH   2  17
ATOM     17  C   UNL     1      -0.945  10.706  18.995  0.00  0.00    +0.000 A 
ATOM     18  C   UNL     1      -1.210  10.103  17.751  0.00  0.00    +0.000 A 
ATOM     19  C   UNL     1      -2.392  10.387  17.054  0.00  0.00    +0.000 A 
ATOM     20  C   UNL     1      -3.313  11.298  17.586  0.00  0.00    +0.000 A 
ATOM     21  C   UNL     1      -3.044  11.950  18.790  0.00  0.00    +0.000 A 
ATOM     22  C   UNL     1      -1.861  11.667  19.475  0.00  0.00    +0.000 A 
BRANCH  20  23
ATOM     23  N   UNL     1      -4.578  11.567  16.883  0.00  0.00    +0.000 N 
ATOM     24  O   UNL     1      -5.415  12.271  17.462  0.00  0.00    +0.000 OA
ATOM     25  O   UNL     1      -4.721  11.085  15.752  0.00  0.00    +0.000 OA
ENDBRANCH  20  23
ENDBRANCH   2  17
TORSDOF 2
ENDMDL
MODEL 8
REMARK VINA RESULT:      -7.5      3.543      6.280
REMARK  Name = 
REMARK  3 active torsions:
REMARK  status: ('A' for Active; 'I' for Inactive)
REMARK    1  A    between atoms: C_1  and  C_2
REMARK    2  A    between atoms: C_2  and  C_3
REMARK    3  A    between atoms: C_6  and  N_7
REMARK                            x       y       z     vdW  Elec       q    Type
REMARK                         _______ _______ _______ _____ _____    ______ ____
ROOT
ATOM      1  C   UNL     1       8.158   4.519  18.224  0.00  0.00    +0.000 C 
ATOM      2  C   UNL     1       6.894   5.221  17.702  0.00  0.00    +0.000 C 
ATOM      3  C   UNL     1       7.135   6.739  17.630  0.00  0.00    +0.000 C 
ATOM      4  O   UNL     1       8.242   7.267  17.543  0.00  0.00    +0.000 OA
ATOM      5  N   UNL     1       5.998   7.501  17.488  0.00  0.00    +0.000 N 
ATOM      6  C   UNL     1       4.710   7.042  17.789  0.00  0.00    +0.000 A 
ATOM      7  C   UNL     1       3.623   7.859  17.477  0.00  0.00    +0.000 A 
ATOM      8  C   UNL     1       2.342   7.465  17.851  0.00  0.00    +0.000 A 
ATOM      9 CL   UNL     1       0.996   8.455  17.450  0.00  0.00    +0.000 Cl
ATOM     10  C   UNL     1       2.141   6.277  18.550  0.00  0.00    +0.000 A 
ATOM     11  C   UNL     1       3.226   5.445  18.848  0.00  0.00    +0.000 A 
ATOM     12 CL   UNL     1       2.861   3.976  19.677  0.00  0.00    +0.000 Cl
ATOM     13  C   UNL     1       4.516   5.816  18.447  0.00  0.00    +0.000 A 
ATOM     14  C   UNL     1       5.731   4.989  18.678  0.00  0.00    +0.000 C 
ATOM     15  O   UNL     1       5.772   4.161  19.582  0.00  0.00    +0.000 OA
ATOM     16  H   UNL     1       6.151   8.468  17.220  0.00  0.00    +0.000 HD
ENDROOT
BRANCH   2  17
ATOM     17  C   UNL     1       6.574   4.673  16.284  0.00  0.00    +0.000 A 
ATOM     18  C   UNL     1       5.465   3.838  16.050  0.00  0.00    +0.000 A 
ATOM     19  C   UNL     1       5.132   3.437  14.749  0.00  0.00    +0.000 A 
ATOM     20  C   UNL     1       5.921   3.852  13.668  0.00  0.00    +0.000 A 
ATOM     21  C   UNL     1       7.056   4.634  13.884  0.00  0.00    +0.000 A 
ATOM     22  C   UNL     1       7.385   5.023  15.185  0.00  0.00    +0.000 A 
BRANCH  20  23
ATOM     23  N   UNL     1       5.551   3.475  12.295  0.00  0.00    +0.000 N 
ATOM     24  O   UNL     1       6.460   3.106  11.539  0.00  0.00    +0.000 OA
ATOM     25  O   UNL     1       4.355   3.536  11.984  0.00  0.00    +0.000 OA
ENDBRANCH  20  23
ENDBRANCH   2  17
TORSDOF 2
ENDMDL
MODEL 9
REMARK VINA RESULT:      -7.3      7.569      9.789
REMARK  Name = 
REMARK  3 active torsions:
REMARK  status: ('A' for Active; 'I' for Inactive)
REMARK    1  A    between atoms: C_1  and  C_2
REMARK    2  A    between atoms: C_2  and  C_3
REMARK    3  A    between atoms: C_6  and  N_7
REMARK                            x       y       z     vdW  Elec       q    Type
REMARK                         _______ _______ _______ _____ _____    ______ ____
ROOT
ATOM      1  C   UNL     1      -0.613  14.116  22.656  0.00  0.00    +0.000 C 
ATOM      2  C   UNL     1      -0.938  13.671  21.221  0.00  0.00    +0.000 C 
ATOM      3  C   UNL     1      -2.457  13.745  20.985  0.00  0.00    +0.000 C 
ATOM      4  O   UNL     1      -3.228  14.458  21.625  0.00  0.00    +0.000 OA
ATOM      5  N   UNL     1      -2.904  13.079  19.868  0.00  0.00    +0.000 N 
ATOM      6  C   UNL     1      -2.173  12.081  19.211  0.00  0.00    +0.000 A 
ATOM      7  C   UNL     1      -2.671  11.573  18.011  0.00  0.00    +0.000 A 
ATOM      8  C   UNL     1      -2.011  10.517  17.390  0.00  0.00    +0.000 A 
ATOM      9 CL   UNL     1      -2.606   9.902  15.899  0.00  0.00    +0.000 Cl
ATOM     10  C   UNL     1      -0.877   9.952  17.967  0.00  0.00    +0.000 A 
ATOM     11  C   UNL     1      -0.363  10.471  19.160  0.00  0.00    +0.000 A 
ATOM     12 CL   UNL     1       1.073   9.728  19.764  0.00  0.00    +0.000 Cl
ATOM     13  C   UNL     1      -0.999  11.556  19.777  0.00  0.00    +0.000 A 
ATOM     14  C   UNL     1      -0.516  12.207  21.024  0.00  0.00    +0.000 C 
ATOM     15  O   UNL     1       0.194  11.603  21.821  0.00  0.00    +0.000 OA
ATOM     16  H   UNL     1      -3.852  13.298  19.579  0.00  0.00    +0.000 HD
ENDROOT
BRANCH   2  17
ATOM     17  C   UNL     1      -0.207  14.619  20.232  0.00  0.00    +0.000 A 
ATOM     18  C   UNL     1      -0.804  15.809  19.773  0.00  0.00    +0.000 A 
ATOM     19  C   UNL     1      -0.091  16.702  18.963  0.00  0.00    +0.000 A 
ATOM     20  C   UNL     1       1.223  16.402  18.584  0.00  0.00    +0.000 A 
ATOM     21  C   UNL     1       1.815  15.202  18.981  0.00  0.00    +0.000 A 
ATOM     22  C   UNL     1       1.095  14.314  19.782  0.00  0.00    +0.000 A 
BRANCH  20  23
ATOM     23  N   UNL     1       1.995  17.356  17.772  0.00  0.00    +0.000 N 
ATOM     24  O   UNL     1       3.174  17.072  17.522  0.00  0.00    +0.000 OA
ATOM     25  O   UNL     1       1.415  18.376  17.378  0.00  0.00    +0.000 OA
ENDBRANCH  20  23
ENDBRANCH   2  17
TORSDOF 2
ENDMDL
