MODEL 1
REMARK VINA RESULT:      -6.6      0.000      0.000
REMARK  Name = 
REMARK  5 active torsions:
REMARK  status: ('A' for Active; 'I' for Inactive)
REMARK    1  A    between atoms: C_1  and  C_2
REMARK    2  A    between atoms: C_15  and  C_16
REMARK    3  A    between atoms: C_20  and  O_21
REMARK    4  A    between atoms: O_21  and  S_22
REMARK    5  A    between atoms: S_22  and  O_25
REMARK                            x       y       z     vdW  Elec       q    Type
REMARK                         _______ _______ _______ _____ _____    ______ ____
ROOT
ATOM      1  C   UNL     1       1.498   5.356  17.897  0.00  0.00    +0.000 C 
ATOM      2  C   UNL     1       2.761   5.803  18.680  0.00  0.00    +0.000 C 
ATOM      3  C   UNL     1       2.492   5.918  20.189  0.00  0.00    +0.000 C 
ATOM      4  C   UNL     1       1.426   6.975  20.491  0.00  0.00    +0.000 C 
ATOM      5  C   UNL     1       1.739   8.359  19.874  0.00  0.00    +0.000 C 
ATOM      6  C   UNL     1       2.210   8.287  18.388  0.00  0.00    +0.000 C 
ATOM      7  C   UNL     1       2.724   9.666  17.949  0.00  0.00    +0.000 C 
ATOM      8  C   UNL     1       1.682  10.763  18.169  0.00  0.00    +0.000 C 
ATOM      9  C   UNL     1       1.066  10.754  19.553  0.00  0.00    +0.000 C 
ATOM     10  C   UNL     1       0.957  11.900  20.251  0.00  0.00    +0.000 C 
ATOM     11  C   UNL     1       0.234  11.956  21.544  0.00  0.00    +0.000 C 
ATOM     12  O   UNL     1       0.205  13.005  22.179  0.00  0.00    +0.000 OA
ATOM     13  C   UNL     1      -0.529  10.731  21.979  0.00  0.00    +0.000 C 
ATOM     14  C   UNL     1       0.254   9.486  21.601  0.00  0.00    +0.000 C 
ATOM     15  C   UNL     1       0.580   9.401  20.080  0.00  0.00    +0.000 C 
ATOM     16  C   UNL     1      -0.708   9.000  19.322  0.00  0.00    +0.000 C 
ATOM     17  C   UNL     1       3.283   7.197  18.239  0.00  0.00    +0.000 C 
ATOM     18  C   UNL     1       3.877   6.934  16.864  0.00  0.00    +0.000 C 
ATOM     19  C   UNL     1       4.447   5.511  16.969  0.00  0.00    +0.000 C 
ATOM     20  C   UNL     1       3.975   4.913  18.308  0.00  0.00    +0.000 C 
ENDROOT
BRANCH  20  21
ATOM     21  O   UNL     1       3.629   3.542  18.182  0.00  0.00    +0.000 OA
BRANCH  21  22
ATOM     22  S   UNL     1       3.922   2.510  19.416  0.00  0.00    +0.000 S 
ATOM     23  O   UNL     1       5.212   2.827  20.001  0.00  0.00    +0.000 OA
ATOM     24  O   UNL     1       2.735   2.409  20.225  0.00  0.00    +0.000 OA
BRANCH  22  25
ATOM     25  O   UNL     1       4.146   1.115  18.665  0.00  0.00    +0.000 OA
ATOM     26  H   UNL     1       4.055   0.408  19.333  0.00  0.00    +0.000 HD
ENDBRANCH  22  25
ENDBRANCH  21  22
ENDBRANCH  20  21
TORSDOF 3
ENDMDL
MODEL 2
REMARK VINA RESULT:      -6.6      2.910      7.788
REMARK  Name = 
REMARK  5 active torsions:
REMARK  status: ('A' for Active; 'I' for Inactive)
REMARK    1  A    between atoms: C_1  and  C_2
REMARK    2  A    between atoms: C_15  and  C_16
REMARK    3  A    between atoms: C_20  and  O_21
REMARK    4  A    between atoms: O_21  and  S_22
REMARK    5  A    between atoms: S_22  and  O_25
REMARK                            x       y       z     vdW  Elec       q    Type
REMARK                         _______ _______ _______ _____ _____    ______ ____
ROOT
ATOM      1  C   UNL     1      -0.748   9.395  18.698  0.00  0.00    +0.000 C 
ATOM      2  C   UNL     1       0.474   9.972  19.461  0.00  0.00    +0.000 C 
ATOM      3  C   UNL     1       1.681  10.187  18.536  0.00  0.00    +0.000 C 
ATOM      4  C   UNL     1       2.165   8.868  17.925  0.00  0.00    +0.000 C 
ATOM      5  C   UNL     1       2.458   7.773  18.978  0.00  0.00    +0.000 C 
ATOM      6  C   UNL     1       1.348   7.642  20.068  0.00  0.00    +0.000 C 
ATOM      7  C   UNL     1       1.841   6.714  21.188  0.00  0.00    +0.000 C 
ATOM      8  C   UNL     1       2.284   5.352  20.652  0.00  0.00    +0.000 C 
ATOM      9  C   UNL     1       3.229   5.437  19.471  0.00  0.00    +0.000 C 
ATOM     10  C   UNL     1       4.350   4.692  19.448  0.00  0.00    +0.000 C 
ATOM     11  C   UNL     1       5.224   4.640  18.252  0.00  0.00    +0.000 C 
ATOM     12  O   UNL     1       6.266   3.995  18.289  0.00  0.00    +0.000 OA
ATOM     13  C   UNL     1       4.736   5.309  16.993  0.00  0.00    +0.000 C 
ATOM     14  C   UNL     1       4.015   6.597  17.350  0.00  0.00    +0.000 C 
ATOM     15  C   UNL     1       2.829   6.387  18.338  0.00  0.00    +0.000 C 
ATOM     16  C   UNL     1       1.644   5.767  17.559  0.00  0.00    +0.000 C 
ATOM     17  C   UNL     1       0.975   9.036  20.594  0.00  0.00    +0.000 C 
ATOM     18  C   UNL     1      -0.109   9.155  21.656  0.00  0.00    +0.000 C 
ATOM     19  C   UNL     1      -0.587  10.609  21.540  0.00  0.00    +0.000 C 
ATOM     20  C   UNL     1       0.061  11.220  20.283  0.00  0.00    +0.000 C 
ENDROOT
BRANCH  20  21
ATOM     21  O   UNL     1      -0.838  12.064  19.580  0.00  0.00    +0.000 OA
BRANCH  21  22
ATOM     22  S   UNL     1      -0.295  13.444  18.892  0.00  0.00    +0.000 S 
ATOM     23  O   UNL     1      -1.042  14.565  19.431  0.00  0.00    +0.000 OA
ATOM     24  O   UNL     1       1.145  13.427  18.899  0.00  0.00    +0.000 OA
BRANCH  22  25
ATOM     25  O   UNL     1      -0.799  13.307  17.380  0.00  0.00    +0.000 OA
ATOM     26  H   UNL     1      -0.005  13.217  16.817  0.00  0.00    +0.000 HD
ENDBRANCH  22  25
ENDBRANCH  21  22
ENDBRANCH  20  21
TORSDOF 3
ENDMDL
MODEL 3
REMARK VINA RESULT:      -6.4      2.971      8.018
REMARK  Name = 
REMARK  5 active torsions:
REMARK  status: ('A' for Active; 'I' for Inactive)
REMARK    1  A    between atoms: C_1  and  C_2
REMARK    2  A    between atoms: C_15  and  C_16
REMARK    3  A    between atoms: C_20  and  O_21
REMARK    4  A    between atoms: O_21  and  S_22
REMARK    5  A    between atoms: S_22  and  O_25
REMARK                            x       y       z     vdW  Elec       q    Type
REMARK                         _______ _______ _______ _____ _____    ______ ____
ROOT
ATOM      1  C   UNL     1      -0.659  10.017  18.397  0.00  0.00    +0.000 C 
ATOM      2  C   UNL     1       0.525  10.513  19.268  0.00  0.00    +0.000 C 
ATOM      3  C   UNL     1       1.825  10.635  18.458  0.00  0.00    +0.000 C 
ATOM      4  C   UNL     1       2.268   9.281  17.897  0.00  0.00    +0.000 C 
ATOM      5  C   UNL     1       2.385   8.177  18.975  0.00  0.00    +0.000 C 
ATOM      6  C   UNL     1       1.173   8.133  19.957  0.00  0.00    +0.000 C 
ATOM      7  C   UNL     1       1.494   7.182  21.120  0.00  0.00    +0.000 C 
ATOM      8  C   UNL     1       1.888   5.788  20.629  0.00  0.00    +0.000 C 
ATOM      9  C   UNL     1       2.941   5.797  19.541  0.00  0.00    +0.000 C 
ATOM     10  C   UNL     1       4.004   4.975  19.622  0.00  0.00    +0.000 C 
ATOM     11  C   UNL     1       4.978   4.852  18.512  0.00  0.00    +0.000 C 
ATOM     12  O   UNL     1       5.965   4.136  18.646  0.00  0.00    +0.000 OA
ATOM     13  C   UNL     1       4.657   5.544  17.212  0.00  0.00    +0.000 C 
ATOM     14  C   UNL     1       3.998   6.882  17.499  0.00  0.00    +0.000 C 
ATOM     15  C   UNL     1       2.714   6.763  18.373  0.00  0.00    +0.000 C 
ATOM     16  C   UNL     1       1.566   6.221  17.489  0.00  0.00    +0.000 C 
ATOM     17  C   UNL     1       0.853   9.554  20.444  0.00  0.00    +0.000 C 
ATOM     18  C   UNL     1      -0.313   9.757  21.402  0.00  0.00    +0.000 C 
ATOM     19  C   UNL     1      -0.675  11.240  21.239  0.00  0.00    +0.000 C 
ATOM     20  C   UNL     1       0.127  11.794  20.047  0.00  0.00    +0.000 C 
ENDROOT
BRANCH  20  21
ATOM     21  O   UNL     1      -0.642  12.693  19.262  0.00  0.00    +0.000 OA
BRANCH  21  22
ATOM     22  S   UNL     1      -0.600  14.296  19.581  0.00  0.00    +0.000 S 
ATOM     23  O   UNL     1       0.197  14.519  20.773  0.00  0.00    +0.000 OA
ATOM     24  O   UNL     1      -0.333  15.003  18.356  0.00  0.00    +0.000 OA
BRANCH  22  25
ATOM     25  O   UNL     1      -2.103  14.606  20.032  0.00  0.00    +0.000 OA
ATOM     26  H   UNL     1      -2.419  15.357  19.491  0.00  0.00    +0.000 HD
ENDBRANCH  22  25
ENDBRANCH  21  22
ENDBRANCH  20  21
TORSDOF 3
ENDMDL
MODEL 4
REMARK VINA RESULT:      -6.4      3.015      7.719
REMARK  Name = 
REMARK  5 active torsions:
REMARK  status: ('A' for Active; 'I' for Inactive)
REMARK    1  A    between atoms: C_1  and  C_2
REMARK    2  A    between atoms: C_15  and  C_16
REMARK    3  A    between atoms: C_20  and  O_21
REMARK    4  A    between atoms: O_21  and  S_22
REMARK    5  A    between atoms: S_22  and  O_25
REMARK                            x       y       z     vdW  Elec       q    Type
REMARK                         _______ _______ _______ _____ _____    ______ ____
ROOT
ATOM      1  C   UNL     1       0.138   9.268  17.979  0.00  0.00    +0.000 C 
ATOM      2  C   UNL     1       1.333   9.553  18.926  0.00  0.00    +0.000 C 
ATOM      3  C   UNL     1       2.684   9.278  18.247  0.00  0.00    +0.000 C 
ATOM      4  C   UNL     1       2.822   7.807  17.844  0.00  0.00    +0.000 C 
ATOM      5  C   UNL     1       2.576   6.823  19.012  0.00  0.00    +0.000 C 
ATOM      6  C   UNL     1       1.315   7.171  19.865  0.00  0.00    +0.000 C 
ATOM      7  C   UNL     1       1.296   6.294  21.126  0.00  0.00    +0.000 C 
ATOM      8  C   UNL     1       1.371   4.804  20.791  0.00  0.00    +0.000 C 
ATOM      9  C   UNL     1       2.478   4.450  19.820  0.00  0.00    +0.000 C 
ATOM     10  C   UNL     1       3.294   3.411  20.076  0.00  0.00    +0.000 C 
ATOM     11  C   UNL     1       4.294   2.946  19.085  0.00  0.00    +0.000 C 
ATOM     12  O   UNL     1       5.059   2.032  19.376  0.00  0.00    +0.000 OA
ATOM     13  C   UNL     1       4.259   3.558  17.708  0.00  0.00    +0.000 C 
ATOM     14  C   UNL     1       3.932   5.036  17.818  0.00  0.00    +0.000 C 
ATOM     15  C   UNL     1       2.592   5.317  18.562  0.00  0.00    +0.000 C 
ATOM     16  C   UNL     1       1.420   4.978  17.610  0.00  0.00    +0.000 C 
ATOM     17  C   UNL     1       1.318   8.669  20.202  0.00  0.00    +0.000 C 
ATOM     18  C   UNL     1       0.166   9.241  21.015  0.00  0.00    +0.000 C 
ATOM     19  C   UNL     1       0.196  10.744  20.698  0.00  0.00    +0.000 C 
ATOM     20  C   UNL     1       1.204  10.965  19.555  0.00  0.00    +0.000 C 
ENDROOT
BRANCH  20  21
ATOM     21  O   UNL     1       0.746  11.936  18.627  0.00  0.00    +0.000 OA
BRANCH  21  22
ATOM     22  S   UNL     1       1.444  13.414  18.581  0.00  0.00    +0.000 S 
ATOM     23  O   UNL     1       0.421  14.411  18.319  0.00  0.00    +0.000 OA
ATOM     24  O   UNL     1       2.342  13.536  19.700  0.00  0.00    +0.000 OA
BRANCH  22  25
ATOM     25  O   UNL     1       2.310  13.355  17.237  0.00  0.00    +0.000 OA
ATOM     26  H   UNL     1       3.207  13.677  17.456  0.00  0.00    +0.000 HD
ENDBRANCH  22  25
ENDBRANCH  21  22
ENDBRANCH  20  21
TORSDOF 3
ENDMDL
MODEL 5
REMARK VINA RESULT:      -6.2      2.941      7.858
REMARK  Name = 
REMARK  5 active torsions:
REMARK  status: ('A' for Active; 'I' for Inactive)
REMARK    1  A    between atoms: C_1  and  C_2
REMARK    2  A    between atoms: C_15  and  C_16
REMARK    3  A    between atoms: C_20  and  O_21
REMARK    4  A    between atoms: O_21  and  S_22
REMARK    5  A    between atoms: S_22  and  O_25
REMARK                            x       y       z     vdW  Elec       q    Type
REMARK                         _______ _______ _______ _____ _____    ______ ____
ROOT
ATOM      1  C   UNL     1      -0.372   9.889  18.301  0.00  0.00    +0.000 C 
ATOM      2  C   UNL     1       0.858  10.284  19.162  0.00  0.00    +0.000 C 
ATOM      3  C   UNL     1       2.165  10.226  18.357  0.00  0.00    +0.000 C 
ATOM      4  C   UNL     1       2.455   8.809  17.854  0.00  0.00    +0.000 C 
ATOM      5  C   UNL     1       2.443   7.743  18.975  0.00  0.00    +0.000 C 
ATOM      6  C   UNL     1       1.231   7.875  19.949  0.00  0.00    +0.000 C 
ATOM      7  C   UNL     1       1.439   6.941  21.150  0.00  0.00    +0.000 C 
ATOM      8  C   UNL     1       1.674   5.494  20.718  0.00  0.00    +0.000 C 
ATOM      9  C   UNL     1       2.725   5.340  19.638  0.00  0.00    +0.000 C 
ATOM     10  C   UNL     1       3.688   4.408  19.761  0.00  0.00    +0.000 C 
ATOM     11  C   UNL     1       4.646   4.131  18.663  0.00  0.00    +0.000 C 
ATOM     12  O   UNL     1       5.545   3.314  18.833  0.00  0.00    +0.000 OA
ATOM     13  C   UNL     1       4.408   4.802  17.335  0.00  0.00    +0.000 C 
ATOM     14  C   UNL     1       3.905   6.216  17.564  0.00  0.00    +0.000 C 
ATOM     15  C   UNL     1       2.613   6.278  18.432  0.00  0.00    +0.000 C 
ATOM     16  C   UNL     1       1.413   5.834  17.562  0.00  0.00    +0.000 C 
ATOM     17  C   UNL     1       1.071   9.342  20.377  0.00  0.00    +0.000 C 
ATOM     18  C   UNL     1      -0.066   9.713  21.317  0.00  0.00    +0.000 C 
ATOM     19  C   UNL     1      -0.258  11.220  21.093  0.00  0.00    +0.000 C 
ATOM     20  C   UNL     1       0.605  11.631  19.886  0.00  0.00    +0.000 C 
ENDROOT
BRANCH  20  21
ATOM     21  O   UNL     1      -0.055  12.579  19.061  0.00  0.00    +0.000 OA
BRANCH  21  22
ATOM     22  S   UNL     1       0.588  14.068  18.851  0.00  0.00    +0.000 S 
ATOM     23  O   UNL     1       1.818  13.947  18.091  0.00  0.00    +0.000 OA
ATOM     24  O   UNL     1      -0.459  14.970  18.447  0.00  0.00    +0.000 OA
BRANCH  22  25
ATOM     25  O   UNL     1       1.058  14.461  20.329  0.00  0.00    +0.000 OA
ATOM     26  H   UNL     1       1.288  13.630  20.790  0.00  0.00    +0.000 HD
ENDBRANCH  22  25
ENDBRANCH  21  22
ENDBRANCH  20  21
TORSDOF 3
ENDMDL
MODEL 6
REMARK VINA RESULT:      -6.2      9.450     10.715
REMARK  Name = 
REMARK  5 active torsions:
REMARK  status: ('A' for Active; 'I' for Inactive)
REMARK    1  A    between atoms: C_1  and  C_2
REMARK    2  A    between atoms: C_15  and  C_16
REMARK    3  A    between atoms: C_20  and  O_21
REMARK    4  A    between atoms: O_21  and  S_22
REMARK    5  A    between atoms: S_22  and  O_25
REMARK                            x       y       z     vdW  Elec       q    Type
REMARK                         _______ _______ _______ _____ _____    ______ ____
ROOT
ATOM      1  C   UNL     1       8.328  14.568  20.066  0.00  0.00    +0.000 C 
ATOM      2  C   UNL     1       9.614  13.945  20.671  0.00  0.00    +0.000 C 
ATOM      3  C   UNL     1       9.429  12.458  21.009  0.00  0.00    +0.000 C 
ATOM      4  C   UNL     1       8.339  12.252  22.065  0.00  0.00    +0.000 C 
ATOM      5  C   UNL     1       8.555  13.092  23.346  0.00  0.00    +0.000 C 
ATOM      6  C   UNL     1       8.942  14.577  23.060  0.00  0.00    +0.000 C 
ATOM      7  C   UNL     1       9.370  15.253  24.371  0.00  0.00    +0.000 C 
ATOM      8  C   UNL     1       8.296  15.136  25.454  0.00  0.00    +0.000 C 
ATOM      9  C   UNL     1       7.764  13.730  25.639  0.00  0.00    +0.000 C 
ATOM     10  C   UNL     1       7.647  13.209  26.874  0.00  0.00    +0.000 C 
ATOM     11  C   UNL     1       6.999  11.896  27.106  0.00  0.00    +0.000 C 
ATOM     12  O   UNL     1       6.963  11.428  28.240  0.00  0.00    +0.000 OA
ATOM     13  C   UNL     1       6.316  11.231  25.939  0.00  0.00    +0.000 C 
ATOM     14  C   UNL     1       7.127  11.465  24.677  0.00  0.00    +0.000 C 
ATOM     15  C   UNL     1       7.368  12.973  24.368  0.00  0.00    +0.000 C 
ATOM     16  C   UNL     1       6.055  13.576  23.813  0.00  0.00    +0.000 C 
ATOM     17  C   UNL     1      10.049  14.626  21.997  0.00  0.00    +0.000 C 
ATOM     18  C   UNL     1      10.573  15.981  21.543  0.00  0.00    +0.000 C 
ATOM     19  C   UNL     1      11.208  15.697  20.174  0.00  0.00    +0.000 C 
ATOM     20  C   UNL     1      10.841  14.255  19.775  0.00  0.00    +0.000 C 
ENDROOT
BRANCH  20  21
ATOM     21  O   UNL     1      10.547  14.148  18.390  0.00  0.00    +0.000 OA
BRANCH  21  22
ATOM     22  S   UNL     1      11.074  12.853  17.542  0.00  0.00    +0.000 S 
ATOM     23  O   UNL     1      10.101  11.783  17.662  0.00  0.00    +0.000 OA
ATOM     24  O   UNL     1      11.540  13.302  16.256  0.00  0.00    +0.000 OA
BRANCH  22  25
ATOM     25  O   UNL     1      12.333  12.359  18.396  0.00  0.00    +0.000 OA
ATOM     26  H   UNL     1      12.559  13.077  19.020  0.00  0.00    +0.000 HD
ENDBRANCH  22  25
ENDBRANCH  21  22
ENDBRANCH  20  21
TORSDOF 3
ENDMDL
MODEL 7
REMARK VINA RESULT:      -6.1      4.231      8.807
REMARK  Name = 
REMARK  5 active torsions:
REMARK  status: ('A' for Active; 'I' for Inactive)
REMARK    1  A    between atoms: C_1  and  C_2
REMARK    2  A    between atoms: C_15  and  C_16
REMARK    3  A    between atoms: C_20  and  O_21
REMARK    4  A    between atoms: O_21  and  S_22
REMARK    5  A    between atoms: S_22  and  O_25
REMARK                            x       y       z     vdW  Elec       q    Type
REMARK                         _______ _______ _______ _____ _____    ______ ____
ROOT
ATOM      1  C   UNL     1      -0.085  13.767  18.230  0.00  0.00    +0.000 C 
ATOM      2  C   UNL     1       1.218  13.793  19.073  0.00  0.00    +0.000 C 
ATOM      3  C   UNL     1       2.402  13.165  18.322  0.00  0.00    +0.000 C 
ATOM      4  C   UNL     1       2.148  11.689  18.005  0.00  0.00    +0.000 C 
ATOM      5  C   UNL     1       1.768  10.848  19.247  0.00  0.00    +0.000 C 
ATOM      6  C   UNL     1       0.703  11.532  20.160  0.00  0.00    +0.000 C 
ATOM      7  C   UNL     1       0.577  10.744  21.473  0.00  0.00    +0.000 C 
ATOM      8  C   UNL     1       0.262   9.268  21.229  0.00  0.00    +0.000 C 
ATOM      9  C   UNL     1       1.168   8.610  20.209  0.00  0.00    +0.000 C 
ATOM     10  C   UNL     1       1.728   7.415  20.473  0.00  0.00    +0.000 C 
ATOM     11  C   UNL     1       2.502   6.675  19.448  0.00  0.00    +0.000 C 
ATOM     12  O   UNL     1       3.045   5.616  19.744  0.00  0.00    +0.000 OA
ATOM     13  C   UNL     1       2.503   7.215  18.041  0.00  0.00    +0.000 C 
ATOM     14  C   UNL     1       2.552   8.732  18.079  0.00  0.00    +0.000 C 
ATOM     15  C   UNL     1       1.385   9.366  18.894  0.00  0.00    +0.000 C 
ATOM     16  C   UNL     1       0.092   9.282  18.048  0.00  0.00    +0.000 C 
ATOM     17  C   UNL     1       1.094  12.998  20.401  0.00  0.00    +0.000 C 
ATOM     18  C   UNL     1       0.184  13.871  21.253  0.00  0.00    +0.000 C 
ATOM     19  C   UNL     1       0.549  15.304  20.841  0.00  0.00    +0.000 C 
ATOM     20  C   UNL     1       1.484  15.220  19.619  0.00  0.00    +0.000 C 
ENDROOT
BRANCH  20  21
ATOM     21  O   UNL     1       1.200  16.231  18.665  0.00  0.00    +0.000 OA
BRANCH  21  22
ATOM     22  S   UNL     1       2.401  17.192  18.111  0.00  0.00    +0.000 S 
ATOM     23  O   UNL     1       1.833  18.198  17.232  0.00  0.00    +0.000 OA
ATOM     24  O   UNL     1       3.249  17.554  19.216  0.00  0.00    +0.000 OA
BRANCH  22  25
ATOM     25  O   UNL     1       3.216  16.216  17.141  0.00  0.00    +0.000 OA
ATOM     26  H   UNL     1       2.612  15.956  16.418  0.00  0.00    +0.000 HD
ENDBRANCH  22  25
ENDBRANCH  21  22
ENDBRANCH  20  21
TORSDOF 3
ENDMDL
MODEL 8
REMARK VINA RESULT:      -6.1      9.627     11.759
REMARK  Name = 
REMARK  5 active torsions:
REMARK  status: ('A' for Active; 'I' for Inactive)
REMARK    1  A    between atoms: C_1  and  C_2
REMARK    2  A    between atoms: C_15  and  C_16
REMARK    3  A    between atoms: C_20  and  O_21
REMARK    4  A    between atoms: O_21  and  S_22
REMARK    5  A    between atoms: S_22  and  O_25
REMARK                            x       y       z     vdW  Elec       q    Type
REMARK                         _______ _______ _______ _____ _____    ______ ____
ROOT
ATOM      1  C   UNL     1       6.895  14.212  23.049  0.00  0.00    +0.000 C 
ATOM      2  C   UNL     1       8.350  13.909  23.496  0.00  0.00    +0.000 C 
ATOM      3  C   UNL     1       9.339  14.975  22.998  0.00  0.00    +0.000 C 
ATOM      4  C   UNL     1       9.383  15.031  21.468  0.00  0.00    +0.000 C 
ATOM      5  C   UNL     1       9.664  13.659  20.809  0.00  0.00    +0.000 C 
ATOM      6  C   UNL     1       8.822  12.493  21.415  0.00  0.00    +0.000 C 
ATOM      7  C   UNL     1       9.344  11.154  20.872  0.00  0.00    +0.000 C 
ATOM      8  C   UNL     1       9.357  11.120  19.343  0.00  0.00    +0.000 C 
ATOM      9  C   UNL     1      10.011  12.330  18.710  0.00  0.00    +0.000 C 
ATOM     10  C   UNL     1      10.915  12.172  17.725  0.00  0.00    +0.000 C 
ATOM     11  C   UNL     1      11.469  13.331  16.985  0.00  0.00    +0.000 C 
ATOM     12  O   UNL     1      12.332  13.151  16.133  0.00  0.00    +0.000 OA
ATOM     13  C   UNL     1      10.867  14.687  17.247  0.00  0.00    +0.000 C 
ATOM     14  C   UNL     1      10.534  14.818  18.722  0.00  0.00    +0.000 C 
ATOM     15  C   UNL     1       9.580  13.701  19.241  0.00  0.00    +0.000 C 
ATOM     16  C   UNL     1       8.148  14.005  18.740  0.00  0.00    +0.000 C 
ATOM     17  C   UNL     1       8.880  12.556  22.949  0.00  0.00    +0.000 C 
ATOM     18  C   UNL     1       8.111  11.522  23.757  0.00  0.00    +0.000 C 
ATOM     19  C   UNL     1       7.938  12.178  25.135  0.00  0.00    +0.000 C 
ATOM     20  C   UNL     1       8.405  13.641  25.022  0.00  0.00    +0.000 C 
ENDROOT
BRANCH  20  21
ATOM     21  O   UNL     1       7.572  14.521  25.761  0.00  0.00    +0.000 OA
BRANCH  21  22
ATOM     22  S   UNL     1       8.017  15.001  27.260  0.00  0.00    +0.000 S 
ATOM     23  O   UNL     1       7.607  16.380  27.454  0.00  0.00    +0.000 OA
ATOM     24  O   UNL     1       7.660  13.972  28.200  0.00  0.00    +0.000 OA
BRANCH  22  25
ATOM     25  O   UNL     1       9.612  15.062  27.152  0.00  0.00    +0.000 OA
ATOM     26  H   UNL     1       9.946  15.418  27.999  0.00  0.00    +0.000 HD
ENDBRANCH  22  25
ENDBRANCH  21  22
ENDBRANCH  20  21
TORSDOF 3
ENDMDL
MODEL 9
REMARK VINA RESULT:      -6.1      4.272      9.049
REMARK  Name = 
REMARK  5 active torsions:
REMARK  status: ('A' for Active; 'I' for Inactive)
REMARK    1  A    between atoms: C_1  and  C_2
REMARK    2  A    between atoms: C_15  and  C_16
REMARK    3  A    between atoms: C_20  and  O_21
REMARK    4  A    between atoms: O_21  and  S_22
REMARK    5  A    between atoms: S_22  and  O_25
REMARK                            x       y       z     vdW  Elec       q    Type
REMARK                         _______ _______ _______ _____ _____    ______ ____
ROOT
ATOM      1  C   UNL     1      -0.421  14.109  18.564  0.00  0.00    +0.000 C 
ATOM      2  C   UNL     1       0.898  14.130  19.382  0.00  0.00    +0.000 C 
ATOM      3  C   UNL     1       2.084  13.581  18.575  0.00  0.00    +0.000 C 
ATOM      4  C   UNL     1       1.868  12.116  18.182  0.00  0.00    +0.000 C 
ATOM      5  C   UNL     1       1.539  11.198  19.383  0.00  0.00    +0.000 C 
ATOM      6  C   UNL     1       0.473  11.798  20.353  0.00  0.00    +0.000 C 
ATOM      7  C   UNL     1       0.398  10.936  21.622  0.00  0.00    +0.000 C 
ATOM      8  C   UNL     1       0.123   9.466  21.303  0.00  0.00    +0.000 C 
ATOM      9  C   UNL     1       1.026   8.894  20.231  0.00  0.00    +0.000 C 
ATOM     10  C   UNL     1       1.627   7.704  20.418  0.00  0.00    +0.000 C 
ATOM     11  C   UNL     1       2.401   7.045  19.339  0.00  0.00    +0.000 C 
ATOM     12  O   UNL     1       2.982   5.989  19.565  0.00  0.00    +0.000 OA
ATOM     13  C   UNL     1       2.357   7.660  17.964  0.00  0.00    +0.000 C 
ATOM     14  C   UNL     1       2.361   9.174  18.085  0.00  0.00    +0.000 C 
ATOM     15  C   UNL     1       1.193   9.726  18.956  0.00  0.00    +0.000 C 
ATOM     16  C   UNL     1      -0.114   9.649  18.131  0.00  0.00    +0.000 C 
ATOM     17  C   UNL     1       0.825  13.260  20.666  0.00  0.00    +0.000 C 
ATOM     18  C   UNL     1      -0.092  14.056  21.583  0.00  0.00    +0.000 C 
ATOM     19  C   UNL     1       0.222  15.521  21.243  0.00  0.00    +0.000 C 
ATOM     20  C   UNL     1       1.132  15.532  20.001  0.00  0.00    +0.000 C 
ENDROOT
BRANCH  20  21
ATOM     21  O   UNL     1       0.799  16.585  19.109  0.00  0.00    +0.000 OA
BRANCH  21  22
ATOM     22  S   UNL     1       1.983  17.480  18.423  0.00  0.00    +0.000 S 
ATOM     23  O   UNL     1       2.877  16.600  17.695  0.00  0.00    +0.000 OA
ATOM     24  O   UNL     1       1.387  18.631  17.796  0.00  0.00    +0.000 OA
BRANCH  22  25
ATOM     25  O   UNL     1       2.832  17.970  19.687  0.00  0.00    +0.000 OA
ATOM     26  H   UNL     1       3.478  18.629  19.364  0.00  0.00    +0.000 HD
ENDBRANCH  22  25
ENDBRANCH  21  22
ENDBRANCH  20  21
TORSDOF 3
ENDMDL
