MODEL 1
REMARK VINA RESULT:      -8.2      0.000      0.000
REMARK  Name = 
REMARK  5 active torsions:
REMARK  status: ('A' for Active; 'I' for Inactive)
REMARK    1  A    between atoms: C_1  and  O_2
REMARK    2  A    between atoms: O_2  and  C_3
REMARK    3  A    between atoms: C_3  and  C_5
REMARK    4  A    between atoms: C_8  and  C_9
REMARK    5  A    between atoms: C_12  and  C_13
REMARK                            x       y       z     vdW  Elec       q    Type
REMARK                         _______ _______ _______ _____ _____    ______ ____
ROOT
ATOM      1  C   UNL     1       1.722   7.792  20.048  0.00  0.00    +0.000 A 
ATOM      2  C   UNL     1       1.935   6.530  20.623  0.00  0.00    +0.000 A 
ATOM      3  C   UNL     1       2.682   5.544  19.975  0.00  0.00    +0.000 A 
ATOM      4  C   UNL     1       3.235   5.781  18.711  0.00  0.00    +0.000 A 
ATOM      5  C   UNL     1       3.024   7.029  18.117  0.00  0.00    +0.000 A 
ATOM      6  C   UNL     1       2.284   8.020  18.779  0.00  0.00    +0.000 A 
ENDROOT
BRANCH   4   7
ATOM      7  C   UNL     1       4.022   4.713  17.995  0.00  0.00    +0.000 C 
ATOM      8  N   UNL     1       3.237   3.519  17.797  0.00  0.00    +0.000 N 
ATOM      9  C   UNL     1       3.777   2.432  18.438  0.00  0.00    +0.000 C 
ATOM     10  O   UNL     1       3.277   1.324  18.481  0.00  0.00    +0.000 OA
ATOM     11  N   UNL     1       4.940   2.807  19.020  0.00  0.00    +0.000 N 
ATOM     12  C   UNL     1       5.181   4.133  18.815  0.00  0.00    +0.000 C 
ATOM     13  O   UNL     1       6.155   4.737  19.240  0.00  0.00    +0.000 OA
ATOM     14  H   UNL     1       2.333   3.477  17.345  0.00  0.00    +0.000 HD
ATOM     15  H   UNL     1       5.525   2.194  19.560  0.00  0.00    +0.000 HD
ENDBRANCH   4   7
BRANCH   1  19
ATOM     16  C   UNL     1      -0.549  10.795  22.168  0.00  0.00    +0.000 A 
ATOM     17  C   UNL     1       0.101   9.773  22.860  0.00  0.00    +0.000 A 
ATOM     18  C   UNL     1       0.844   8.815  22.168  0.00  0.00    +0.000 A 
ATOM     19  C   UNL     1       0.947   8.831  20.763  0.00  0.00    +0.000 A 
ATOM     20  C   UNL     1       0.277   9.865  20.083  0.00  0.00    +0.000 A 
ATOM     21  C   UNL     1      -0.457  10.839  20.772  0.00  0.00    +0.000 A 
BRANCH  16  22
ATOM     22  C   UNL     1      -1.304  11.797  22.961  0.00  0.00    +0.000 C 
ATOM     23  O   UNL     1      -2.454  11.630  23.335  0.00  0.00    +0.000 OA
BRANCH  22  25
ATOM     24  C   UNL     1      -1.297  14.030  23.614  0.00  0.00    +0.000 C 
ATOM     25  O   UNL     1      -0.541  12.892  23.201  0.00  0.00    +0.000 OA
ENDBRANCH  22  25
ENDBRANCH  16  22
ENDBRANCH   1  19
TORSDOF 4
ENDMDL
MODEL 2
REMARK VINA RESULT:      -8.2      0.064      1.003
REMARK  Name = 
REMARK  5 active torsions:
REMARK  status: ('A' for Active; 'I' for Inactive)
REMARK    1  A    between atoms: C_1  and  O_2
REMARK    2  A    between atoms: O_2  and  C_3
REMARK    3  A    between atoms: C_3  and  C_5
REMARK    4  A    between atoms: C_8  and  C_9
REMARK    5  A    between atoms: C_12  and  C_13
REMARK                            x       y       z     vdW  Elec       q    Type
REMARK                         _______ _______ _______ _____ _____    ______ ____
ROOT
ATOM      1  C   UNL     1       1.719   7.800  20.115  0.00  0.00    +0.000 A 
ATOM      2  C   UNL     1       2.268   8.040  18.846  0.00  0.00    +0.000 A 
ATOM      3  C   UNL     1       2.988   7.059  18.160  0.00  0.00    +0.000 A 
ATOM      4  C   UNL     1       3.199   5.799  18.730  0.00  0.00    +0.000 A 
ATOM      5  C   UNL     1       2.670   5.545  19.998  0.00  0.00    +0.000 A 
ATOM      6  C   UNL     1       1.936   6.530  20.676  0.00  0.00    +0.000 A 
ENDROOT
BRANCH   4   7
ATOM      7  C   UNL     1       3.997   4.743  18.006  0.00  0.00    +0.000 C 
ATOM      8  N   UNL     1       3.228   3.539  17.810  0.00  0.00    +0.000 N 
ATOM      9  C   UNL     1       3.788   2.458  18.445  0.00  0.00    +0.000 C 
ATOM     10  O   UNL     1       3.303   1.343  18.488  0.00  0.00    +0.000 OA
ATOM     11  N   UNL     1       4.949   2.848  19.021  0.00  0.00    +0.000 N 
ATOM     12  C   UNL     1       5.169   4.178  18.818  0.00  0.00    +0.000 C 
ATOM     13  O   UNL     1       6.137   4.795  19.239  0.00  0.00    +0.000 OA
ATOM     14  H   UNL     1       2.323   3.485  17.362  0.00  0.00    +0.000 HD
ATOM     15  H   UNL     1       5.545   2.242  19.556  0.00  0.00    +0.000 HD
ENDBRANCH   4   7
BRANCH   1  19
ATOM     16  C   UNL     1      -0.571  10.824  22.185  0.00  0.00    +0.000 A 
ATOM     17  C   UNL     1       0.009   9.765  22.885  0.00  0.00    +0.000 A 
ATOM     18  C   UNL     1       0.758   8.801  22.210  0.00  0.00    +0.000 A 
ATOM     19  C   UNL     1       0.938   8.847  20.814  0.00  0.00    +0.000 A 
ATOM     20  C   UNL     1       0.339   9.917  20.125  0.00  0.00    +0.000 A 
ATOM     21  C   UNL     1      -0.401  10.898  20.797  0.00  0.00    +0.000 A 
BRANCH  16  22
ATOM     22  C   UNL     1      -1.337  11.831  22.962  0.00  0.00    +0.000 C 
ATOM     23  O   UNL     1      -2.512  11.696  23.263  0.00  0.00    +0.000 OA
BRANCH  22  25
ATOM     24  C   UNL     1      -1.291  14.074  23.580  0.00  0.00    +0.000 C 
ATOM     25  O   UNL     1      -0.551  12.891  23.278  0.00  0.00    +0.000 OA
ENDBRANCH  22  25
ENDBRANCH  16  22
ENDBRANCH   1  19
TORSDOF 4
ENDMDL
MODEL 3
REMARK VINA RESULT:      -8.1      0.553      1.321
REMARK  Name = 
REMARK  5 active torsions:
REMARK  status: ('A' for Active; 'I' for Inactive)
REMARK    1  A    between atoms: C_1  and  O_2
REMARK    2  A    between atoms: O_2  and  C_3
REMARK    3  A    between atoms: C_3  and  C_5
REMARK    4  A    between atoms: C_8  and  C_9
REMARK    5  A    between atoms: C_12  and  C_13
REMARK                            x       y       z     vdW  Elec       q    Type
REMARK                         _______ _______ _______ _____ _____    ______ ____
ROOT
ATOM      1  C   UNL     1       1.689   7.852  20.143  0.00  0.00    +0.000 A 
ATOM      2  C   UNL     1       1.901   6.587  20.711  0.00  0.00    +0.000 A 
ATOM      3  C   UNL     1       2.642   5.603  20.052  0.00  0.00    +0.000 A 
ATOM      4  C   UNL     1       3.187   5.845  18.787  0.00  0.00    +0.000 A 
ATOM      5  C   UNL     1       2.975   7.096  18.200  0.00  0.00    +0.000 A 
ATOM      6  C   UNL     1       2.243   8.086  18.872  0.00  0.00    +0.000 A 
ENDROOT
BRANCH   4   7
ATOM      7  C   UNL     1       3.966   4.778  18.059  0.00  0.00    +0.000 C 
ATOM      8  N   UNL     1       3.191   3.572  17.897  0.00  0.00    +0.000 N 
ATOM      9  C   UNL     1       3.763   2.499  18.534  0.00  0.00    +0.000 C 
ATOM     10  O   UNL     1       3.277   1.386  18.603  0.00  0.00    +0.000 OA
ATOM     11  N   UNL     1       4.937   2.895  19.078  0.00  0.00    +0.000 N 
ATOM     12  C   UNL     1       5.155   4.221  18.852  0.00  0.00    +0.000 C 
ATOM     13  O   UNL     1       6.133   4.842  19.243  0.00  0.00    +0.000 OA
ATOM     14  H   UNL     1       2.275   3.514  17.472  0.00  0.00    +0.000 HD
ATOM     15  H   UNL     1       5.545   2.295  19.608  0.00  0.00    +0.000 HD
ENDBRANCH   4   7
BRANCH   1  19
ATOM     16  C   UNL     1      -0.529  10.911  22.241  0.00  0.00    +0.000 A 
ATOM     17  C   UNL     1      -0.029  11.146  20.960  0.00  0.00    +0.000 A 
ATOM     18  C   UNL     1       0.674  10.147  20.284  0.00  0.00    +0.000 A 
ATOM     19  C   UNL     1       0.921   8.890  20.870  0.00  0.00    +0.000 A 
ATOM     20  C   UNL     1       0.416   8.676  22.165  0.00  0.00    +0.000 A 
ATOM     21  C   UNL     1      -0.305   9.667  22.843  0.00  0.00    +0.000 A 
BRANCH  16  22
ATOM     22  C   UNL     1      -1.289  12.004  22.899  0.00  0.00    +0.000 C 
ATOM     23  O   UNL     1      -0.902  13.161  22.940  0.00  0.00    +0.000 OA
BRANCH  22  25
ATOM     24  C   UNL     1      -3.488  12.507  23.469  0.00  0.00    +0.000 C 
ATOM     25  O   UNL     1      -2.445  11.532  23.428  0.00  0.00    +0.000 OA
ENDBRANCH  22  25
ENDBRANCH  16  22
ENDBRANCH   1  19
TORSDOF 4
ENDMDL
MODEL 4
REMARK VINA RESULT:      -8.0      0.577      1.671
REMARK  Name = 
REMARK  5 active torsions:
REMARK  status: ('A' for Active; 'I' for Inactive)
REMARK    1  A    between atoms: C_1  and  O_2
REMARK    2  A    between atoms: O_2  and  C_3
REMARK    3  A    between atoms: C_3  and  C_5
REMARK    4  A    between atoms: C_8  and  C_9
REMARK    5  A    between atoms: C_12  and  C_13
REMARK                            x       y       z     vdW  Elec       q    Type
REMARK                         _______ _______ _______ _____ _____    ______ ____
ROOT
ATOM      1  C   UNL     1       1.633   7.827  20.221  0.00  0.00    +0.000 A 
ATOM      2  C   UNL     1       2.194   8.097  18.964  0.00  0.00    +0.000 A 
ATOM      3  C   UNL     1       2.926   7.133  18.266  0.00  0.00    +0.000 A 
ATOM      4  C   UNL     1       3.137   5.862  18.811  0.00  0.00    +0.000 A 
ATOM      5  C   UNL     1       2.596   5.579  20.068  0.00  0.00    +0.000 A 
ATOM      6  C   UNL     1       1.850   6.546  20.759  0.00  0.00    +0.000 A 
ENDROOT
BRANCH   4   7
ATOM      7  C   UNL     1       3.947   4.825  18.073  0.00  0.00    +0.000 C 
ATOM      8  N   UNL     1       3.193   3.614  17.863  0.00  0.00    +0.000 N 
ATOM      9  C   UNL     1       3.766   2.532  18.485  0.00  0.00    +0.000 C 
ATOM     10  O   UNL     1       3.296   1.411  18.514  0.00  0.00    +0.000 OA
ATOM     11  N   UNL     1       4.923   2.930  19.064  0.00  0.00    +0.000 N 
ATOM     12  C   UNL     1       5.127   4.265  18.878  0.00  0.00    +0.000 C 
ATOM     13  O   UNL     1       6.087   4.889  19.306  0.00  0.00    +0.000 OA
ATOM     14  H   UNL     1       2.288   3.554  17.416  0.00  0.00    +0.000 HD
ATOM     15  H   UNL     1       5.527   2.325  19.592  0.00  0.00    +0.000 HD
ENDBRANCH   4   7
BRANCH   1  19
ATOM     16  C   UNL     1      -0.660  10.859  22.277  0.00  0.00    +0.000 A 
ATOM     17  C   UNL     1      -0.233  11.057  20.963  0.00  0.00    +0.000 A 
ATOM     18  C   UNL     1       0.495  10.067  20.302  0.00  0.00    +0.000 A 
ATOM     19  C   UNL     1       0.840   8.856  20.934  0.00  0.00    +0.000 A 
ATOM     20  C   UNL     1       0.407   8.679  22.261  0.00  0.00    +0.000 A 
ATOM     21  C   UNL     1      -0.338   9.661  22.925  0.00  0.00    +0.000 A 
BRANCH  16  22
ATOM     22  C   UNL     1      -1.451  11.940  22.918  0.00  0.00    +0.000 C 
ATOM     23  O   UNL     1      -1.046  13.084  23.046  0.00  0.00    +0.000 OA
BRANCH  22  25
ATOM     24  C   UNL     1      -3.507  12.488  23.859  0.00  0.00    +0.000 C 
ATOM     25  O   UNL     1      -2.658  11.473  23.325  0.00  0.00    +0.000 OA
ENDBRANCH  22  25
ENDBRANCH  16  22
ENDBRANCH   1  19
TORSDOF 4
ENDMDL
MODEL 5
REMARK VINA RESULT:      -7.9      2.219      3.070
REMARK  Name = 
REMARK  5 active torsions:
REMARK  status: ('A' for Active; 'I' for Inactive)
REMARK    1  A    between atoms: C_1  and  O_2
REMARK    2  A    between atoms: O_2  and  C_3
REMARK    3  A    between atoms: C_3  and  C_5
REMARK    4  A    between atoms: C_8  and  C_9
REMARK    5  A    between atoms: C_12  and  C_13
REMARK                            x       y       z     vdW  Elec       q    Type
REMARK                         _______ _______ _______ _____ _____    ______ ____
ROOT
ATOM      1  C   UNL     1       2.556   7.454  18.337  0.00  0.00    +0.000 A 
ATOM      2  C   UNL     1       3.715   7.841  17.647  0.00  0.00    +0.000 A 
ATOM      3  C   UNL     1       4.571   6.903  17.066  0.00  0.00    +0.000 A 
ATOM      4  C   UNL     1       4.305   5.533  17.168  0.00  0.00    +0.000 A 
ATOM      5  C   UNL     1       3.161   5.127  17.862  0.00  0.00    +0.000 A 
ATOM      6  C   UNL     1       2.298   6.075  18.432  0.00  0.00    +0.000 A 
ENDROOT
BRANCH   4   7
ATOM      7  C   UNL     1       5.238   4.513  16.564  0.00  0.00    +0.000 C 
ATOM      8  N   UNL     1       6.203   4.042  17.527  0.00  0.00    +0.000 N 
ATOM      9  C   UNL     1       7.491   4.336  17.155  0.00  0.00    +0.000 C 
ATOM     10  O   UNL     1       8.483   4.104  17.820  0.00  0.00    +0.000 OA
ATOM     11  N   UNL     1       7.465   4.935  15.941  0.00  0.00    +0.000 N 
ATOM     12  C   UNL     1       6.184   5.084  15.500  0.00  0.00    +0.000 C 
ATOM     13  O   UNL     1       5.869   5.604  14.440  0.00  0.00    +0.000 OA
ATOM     14  H   UNL     1       5.987   3.644  18.431  0.00  0.00    +0.000 HD
ATOM     15  H   UNL     1       8.282   5.257  15.453  0.00  0.00    +0.000 HD
ENDBRANCH   4   7
BRANCH   1  19
ATOM     16  C   UNL     1      -0.100  10.380  20.085  0.00  0.00    +0.000 A 
ATOM     17  C   UNL     1       0.499   9.400  20.876  0.00  0.00    +0.000 A 
ATOM     18  C   UNL     1       1.367   8.467  20.306  0.00  0.00    +0.000 A 
ATOM     19  C   UNL     1       1.650   8.467  18.926  0.00  0.00    +0.000 A 
ATOM     20  C   UNL     1       1.029   9.458  18.143  0.00  0.00    +0.000 A 
ATOM     21  C   UNL     1       0.169  10.407  18.711  0.00  0.00    +0.000 A 
BRANCH  16  22
ATOM     22  C   UNL     1      -0.995  11.358  20.753  0.00  0.00    +0.000 C 
ATOM     23  O   UNL     1      -1.661  12.183  20.149  0.00  0.00    +0.000 OA
BRANCH  22  25
ATOM     24  C   UNL     1      -1.217  12.400  22.822  0.00  0.00    +0.000 C 
ATOM     25  O   UNL     1      -0.962  11.195  22.100  0.00  0.00    +0.000 OA
ENDBRANCH  22  25
ENDBRANCH  16  22
ENDBRANCH   1  19
TORSDOF 4
ENDMDL
MODEL 6
REMARK VINA RESULT:      -7.9      2.163      3.010
REMARK  Name = 
REMARK  5 active torsions:
REMARK  status: ('A' for Active; 'I' for Inactive)
REMARK    1  A    between atoms: C_1  and  O_2
REMARK    2  A    between atoms: O_2  and  C_3
REMARK    3  A    between atoms: C_3  and  C_5
REMARK    4  A    between atoms: C_8  and  C_9
REMARK    5  A    between atoms: C_12  and  C_13
REMARK                            x       y       z     vdW  Elec       q    Type
REMARK                         _______ _______ _______ _____ _____    ______ ____
ROOT
ATOM      1  C   UNL     1       2.553   7.458  18.525  0.00  0.00    +0.000 A 
ATOM      2  C   UNL     1       2.419   6.078  18.742  0.00  0.00    +0.000 A 
ATOM      3  C   UNL     1       3.277   5.154  18.141  0.00  0.00    +0.000 A 
ATOM      4  C   UNL     1       4.297   5.580  17.283  0.00  0.00    +0.000 A 
ATOM      5  C   UNL     1       4.438   6.950  17.045  0.00  0.00    +0.000 A 
ATOM      6  C   UNL     1       3.582   7.874  17.663  0.00  0.00    +0.000 A 
ENDROOT
BRANCH   4   7
ATOM      7  C   UNL     1       5.211   4.586  16.610  0.00  0.00    +0.000 C 
ATOM      8  N   UNL     1       6.188   4.057  17.531  0.00  0.00    +0.000 N 
ATOM      9  C   UNL     1       7.472   4.360  17.154  0.00  0.00    +0.000 C 
ATOM     10  O   UNL     1       8.472   4.085  17.790  0.00  0.00    +0.000 OA
ATOM     11  N   UNL     1       7.432   5.023  15.974  0.00  0.00    +0.000 N 
ATOM     12  C   UNL     1       6.146   5.205  15.563  0.00  0.00    +0.000 C 
ATOM     13  O   UNL     1       5.818   5.784  14.537  0.00  0.00    +0.000 OA
ATOM     14  H   UNL     1       5.982   3.613  18.415  0.00  0.00    +0.000 HD
ATOM     15  H   UNL     1       8.244   5.364  15.491  0.00  0.00    +0.000 HD
ENDBRANCH   4   7
BRANCH   1  19
ATOM     16  C   UNL     1      -0.078  10.300  20.443  0.00  0.00    +0.000 A 
ATOM     17  C   UNL     1       0.219  10.408  19.084  0.00  0.00    +0.000 A 
ATOM     18  C   UNL     1       1.058   9.478  18.470  0.00  0.00    +0.000 A 
ATOM     19  C   UNL     1       1.647   8.421  19.193  0.00  0.00    +0.000 A 
ATOM     20  C   UNL     1       1.341   8.334  20.564  0.00  0.00    +0.000 A 
ATOM     21  C   UNL     1       0.487   9.255  21.183  0.00  0.00    +0.000 A 
BRANCH  16  22
ATOM     22  C   UNL     1      -0.995  11.307  21.034  0.00  0.00    +0.000 C 
ATOM     23  O   UNL     1      -1.703  12.045  20.367  0.00  0.00    +0.000 OA
BRANCH  22  25
ATOM     24  C   UNL     1      -2.054  11.888  23.022  0.00  0.00    +0.000 C 
ATOM     25  O   UNL     1      -0.930  11.279  22.388  0.00  0.00    +0.000 OA
ENDBRANCH  22  25
ENDBRANCH  16  22
ENDBRANCH   1  19
TORSDOF 4
ENDMDL
MODEL 7
REMARK VINA RESULT:      -7.9      1.038      1.282
REMARK  Name = 
REMARK  5 active torsions:
REMARK  status: ('A' for Active; 'I' for Inactive)
REMARK    1  A    between atoms: C_1  and  O_2
REMARK    2  A    between atoms: O_2  and  C_3
REMARK    3  A    between atoms: C_3  and  C_5
REMARK    4  A    between atoms: C_8  and  C_9
REMARK    5  A    between atoms: C_12  and  C_13
REMARK                            x       y       z     vdW  Elec       q    Type
REMARK                         _______ _______ _______ _____ _____    ______ ____
ROOT
ATOM      1  C   UNL     1       1.459   8.087  20.210  0.00  0.00    +0.000 A 
ATOM      2  C   UNL     1       1.596   6.826  20.812  0.00  0.00    +0.000 A 
ATOM      3  C   UNL     1       2.297   5.790  20.192  0.00  0.00    +0.000 A 
ATOM      4  C   UNL     1       2.878   5.972  18.932  0.00  0.00    +0.000 A 
ATOM      5  C   UNL     1       2.742   7.217  18.311  0.00  0.00    +0.000 A 
ATOM      6  C   UNL     1       2.048   8.260  18.945  0.00  0.00    +0.000 A 
ENDROOT
BRANCH   4   7
ATOM      7  C   UNL     1       3.615   4.850  18.247  0.00  0.00    +0.000 C 
ATOM      8  N   UNL     1       3.443   3.599  18.944  0.00  0.00    +0.000 N 
ATOM      9  C   UNL     1       4.634   3.095  19.405  0.00  0.00    +0.000 C 
ATOM     10  O   UNL     1       4.754   2.088  20.076  0.00  0.00    +0.000 OA
ATOM     11  N   UNL     1       5.635   3.911  19.001  0.00  0.00    +0.000 N 
ATOM     12  C   UNL     1       5.143   4.976  18.306  0.00  0.00    +0.000 C 
ATOM     13  O   UNL     1       5.825   5.875  17.836  0.00  0.00    +0.000 OA
ATOM     14  H   UNL     1       2.556   3.175  19.182  0.00  0.00    +0.000 HD
ATOM     15  H   UNL     1       6.604   3.767  19.219  0.00  0.00    +0.000 HD
ENDBRANCH   4   7
BRANCH   1  19
ATOM     16  C   UNL     1      -0.683  11.246  22.235  0.00  0.00    +0.000 A 
ATOM     17  C   UNL     1      -0.372  10.058  22.897  0.00  0.00    +0.000 A 
ATOM     18  C   UNL     1       0.332   9.048  22.240  0.00  0.00    +0.000 A 
ATOM     19  C   UNL     1       0.732   9.180  20.895  0.00  0.00    +0.000 A 
ATOM     20  C   UNL     1       0.401  10.382  20.243  0.00  0.00    +0.000 A 
ATOM     21  C   UNL     1      -0.291  11.406  20.901  0.00  0.00    +0.000 A 
BRANCH  16  22
ATOM     22  C   UNL     1      -1.414  12.291  22.995  0.00  0.00    +0.000 C 
ATOM     23  O   UNL     1      -0.952  13.396  23.234  0.00  0.00    +0.000 OA
BRANCH  22  25
ATOM     24  C   UNL     1      -3.713  12.568  22.775  0.00  0.00    +0.000 C 
ATOM     25  O   UNL     1      -2.638  11.843  23.371  0.00  0.00    +0.000 OA
ENDBRANCH  22  25
ENDBRANCH  16  22
ENDBRANCH   1  19
TORSDOF 4
ENDMDL
MODEL 8
REMARK VINA RESULT:      -7.8      2.081      2.812
REMARK  Name = 
REMARK  5 active torsions:
REMARK  status: ('A' for Active; 'I' for Inactive)
REMARK    1  A    between atoms: C_1  and  O_2
REMARK    2  A    between atoms: O_2  and  C_3
REMARK    3  A    between atoms: C_3  and  C_5
REMARK    4  A    between atoms: C_8  and  C_9
REMARK    5  A    between atoms: C_12  and  C_13
REMARK                            x       y       z     vdW  Elec       q    Type
REMARK                         _______ _______ _______ _____ _____    ______ ____
ROOT
ATOM      1  C   UNL     1       2.545   7.422  18.544  0.00  0.00    +0.000 A 
ATOM      2  C   UNL     1       2.430   6.088  18.965  0.00  0.00    +0.000 A 
ATOM      3  C   UNL     1       3.281   5.091  18.483  0.00  0.00    +0.000 A 
ATOM      4  C   UNL     1       4.274   5.391  17.544  0.00  0.00    +0.000 A 
ATOM      5  C   UNL     1       4.395   6.712  17.103  0.00  0.00    +0.000 A 
ATOM      6  C   UNL     1       3.547   7.712  17.602  0.00  0.00    +0.000 A 
ENDROOT
BRANCH   4   7
ATOM      7  C   UNL     1       5.179   4.314  17.000  0.00  0.00    +0.000 C 
ATOM      8  N   UNL     1       6.263   4.025  17.907  0.00  0.00    +0.000 N 
ATOM      9  C   UNL     1       7.489   4.291  17.350  0.00  0.00    +0.000 C 
ATOM     10  O   UNL     1       8.556   4.192  17.926  0.00  0.00    +0.000 OA
ATOM     11  N   UNL     1       7.306   4.692  16.070  0.00  0.00    +0.000 N 
ATOM     12  C   UNL     1       5.979   4.736  15.761  0.00  0.00    +0.000 C 
ATOM     13  O   UNL     1       5.529   5.077  14.676  0.00  0.00    +0.000 OA
ATOM     14  H   UNL     1       6.163   3.767  18.879  0.00  0.00    +0.000 HD
ATOM     15  H   UNL     1       8.049   4.956  15.449  0.00  0.00    +0.000 HD
ENDBRANCH   4   7
BRANCH   1  19
ATOM     16  C   UNL     1      -0.087  10.446  20.157  0.00  0.00    +0.000 A 
ATOM     17  C   UNL     1       0.419   9.434  20.973  0.00  0.00    +0.000 A 
ATOM     18  C   UNL     1       1.280   8.469  20.446  0.00  0.00    +0.000 A 
ATOM     19  C   UNL     1       1.648   8.468  19.087  0.00  0.00    +0.000 A 
ATOM     20  C   UNL     1       1.120   9.493  18.279  0.00  0.00    +0.000 A 
ATOM     21  C   UNL     1       0.269  10.474  18.803  0.00  0.00    +0.000 A 
BRANCH  16  22
ATOM     22  C   UNL     1      -0.979  11.456  20.780  0.00  0.00    +0.000 C 
ATOM     23  O   UNL     1      -1.475  12.386  20.165  0.00  0.00    +0.000 OA
BRANCH  22  25
ATOM     24  C   UNL     1      -1.236  12.367  22.906  0.00  0.00    +0.000 C 
ATOM     25  O   UNL     1      -1.154  11.192  22.099  0.00  0.00    +0.000 OA
ENDBRANCH  22  25
ENDBRANCH  16  22
ENDBRANCH   1  19
TORSDOF 4
ENDMDL
MODEL 9
REMARK VINA RESULT:      -7.8      2.393      3.348
REMARK  Name = 
REMARK  5 active torsions:
REMARK  status: ('A' for Active; 'I' for Inactive)
REMARK    1  A    between atoms: C_1  and  O_2
REMARK    2  A    between atoms: O_2  and  C_3
REMARK    3  A    between atoms: C_3  and  C_5
REMARK    4  A    between atoms: C_8  and  C_9
REMARK    5  A    between atoms: C_12  and  C_13
REMARK                            x       y       z     vdW  Elec       q    Type
REMARK                         _______ _______ _______ _____ _____    ______ ____
ROOT
ATOM      1  C   UNL     1       2.551   7.489  18.231  0.00  0.00    +0.000 A 
ATOM      2  C   UNL     1       2.260   6.117  18.291  0.00  0.00    +0.000 A 
ATOM      3  C   UNL     1       3.139   5.159  17.783  0.00  0.00    +0.000 A 
ATOM      4  C   UNL     1       4.342   5.540  17.178  0.00  0.00    +0.000 A 
ATOM      5  C   UNL     1       4.643   6.903  17.098  0.00  0.00    +0.000 A 
ATOM      6  C   UNL     1       3.762   7.861  17.623  0.00  0.00    +0.000 A 
ENDROOT
BRANCH   4   7
ATOM      7  C   UNL     1       5.284   4.511  16.605  0.00  0.00    +0.000 C 
ATOM      8  N   UNL     1       6.241   4.063  17.587  0.00  0.00    +0.000 N 
ATOM      9  C   UNL     1       7.532   4.353  17.222  0.00  0.00    +0.000 C 
ATOM     10  O   UNL     1       8.517   4.138  17.902  0.00  0.00    +0.000 OA
ATOM     11  N   UNL     1       7.516   4.927  15.996  0.00  0.00    +0.000 N 
ATOM     12  C   UNL     1       6.239   5.063  15.539  0.00  0.00    +0.000 C 
ATOM     13  O   UNL     1       5.933   5.560  14.465  0.00  0.00    +0.000 OA
ATOM     14  H   UNL     1       6.016   3.683  18.497  0.00  0.00    +0.000 HD
ATOM     15  H   UNL     1       8.337   5.242  15.510  0.00  0.00    +0.000 HD
ENDBRANCH   4   7
BRANCH   1  19
ATOM     16  C   UNL     1      -0.168  10.431  19.851  0.00  0.00    +0.000 A 
ATOM     17  C   UNL     1       0.086  10.375  18.481  0.00  0.00    +0.000 A 
ATOM     18  C   UNL     1       0.955   9.412  17.964  0.00  0.00    +0.000 A 
ATOM     19  C   UNL     1       1.615   8.488  18.798  0.00  0.00    +0.000 A 
ATOM     20  C   UNL     1       1.352   8.567  20.178  0.00  0.00    +0.000 A 
ATOM     21  C   UNL     1       0.469   9.519  20.701  0.00  0.00    +0.000 A 
BRANCH  16  22
ATOM     22  C   UNL     1      -1.120  11.462  20.337  0.00  0.00    +0.000 C 
ATOM     23  O   UNL     1      -1.382  11.632  21.517  0.00  0.00    +0.000 OA
BRANCH  22  25
ATOM     24  C   UNL     1      -3.059  12.115  19.230  0.00  0.00    +0.000 C 
ATOM     25  O   UNL     1      -1.634  12.167  19.299  0.00  0.00    +0.000 OA
ENDBRANCH  22  25
ENDBRANCH  16  22
ENDBRANCH   1  19
TORSDOF 4
ENDMDL
