MODEL 1
REMARK VINA RESULT:      -7.5      0.000      0.000
REMARK  Name = 
REMARK  7 active torsions:
REMARK  status: ('A' for Active; 'I' for Inactive)
REMARK    1  A    between atoms: C_1  and  O_2
REMARK    2  A    between atoms: O_2  and  C_3
REMARK    3  A    between atoms: C_5  and  N_6
REMARK    4  A    between atoms: N_6  and  C_7
REMARK    5  A    between atoms: C_7  and  N_9
REMARK    6  A    between atoms: C_22  and  O_23
REMARK    7  A    between atoms: O_23  and  C_24
REMARK                            x       y       z     vdW  Elec       q    Type
REMARK                         _______ _______ _______ _____ _____    ______ ____
ROOT
ATOM      1  C   UNL     1       2.838   5.925  18.917  0.00  0.00    +0.000 C 
ATOM      2  S   UNL     1       1.946   4.806  19.799  0.00  0.00    +0.000 S 
ENDROOT
BRANCH   1   3
ATOM      3  N   UNL     1       3.806   5.563  17.954  0.00  0.00    +0.000 N 
ATOM      4  C   UNL     1       4.397   6.638  17.116  0.00  0.00    +0.000 C 
ATOM      5  C   UNL     1       5.737   6.230  16.470  0.00  0.00    +0.000 C 
ATOM      6  N   UNL     1       5.521   4.967  15.765  0.00  0.00    +0.000 N 
ATOM      7  C   UNL     1       6.194   4.723  14.589  0.00  0.00    +0.000 A 
ATOM      8  C   UNL     1       5.666   3.816  13.669  0.00  0.00    +0.000 A 
ATOM      9  C   UNL     1       6.272   3.642  12.428  0.00  0.00    +0.000 A 
ATOM     10  C   UNL     1       7.411   4.370  12.131  0.00  0.00    +0.000 A 
ATOM     11  C   UNL     1       7.884   5.245  13.090  0.00  0.00    +0.000 A 
ATOM     12  N   UNL     1       7.297   5.443  14.294  0.00  0.00    +0.000 NA
ATOM     13  C   UNL     1       5.088   3.865  16.626  0.00  0.00    +0.000 C 
ATOM     14  C   UNL     1       3.746   4.250  17.270  0.00  0.00    +0.000 C 
ENDBRANCH   1   3
BRANCH   1  15
ATOM     15  N   UNL     1       2.813   7.304  19.084  0.00  0.00    +0.000 N 
ATOM     16  H   UNL     1       3.742   7.709  19.083  0.00  0.00    +0.000 HD
BRANCH  15  19
ATOM     17  C   UNL     1       0.121   9.898  18.971  0.00  0.00    +0.000 A 
ATOM     18  C   UNL     1       1.126   9.024  18.548  0.00  0.00    +0.000 A 
ATOM     19  C   UNL     1       1.775   8.180  19.448  0.00  0.00    +0.000 A 
ATOM     20  C   UNL     1       1.435   8.257  20.801  0.00  0.00    +0.000 A 
ATOM     21  C   UNL     1       0.430   9.128  21.244  0.00  0.00    +0.000 A 
ATOM     22  C   UNL     1      -0.226   9.947  20.320  0.00  0.00    +0.000 A 
BRANCH  17  24
ATOM     23  C   UNL     1      -1.651  10.183  17.413  0.00  0.00    +0.000 C 
ATOM     24  O   UNL     1      -0.428  10.645  17.967  0.00  0.00    +0.000 OA
ENDBRANCH  17  24
BRANCH  21  25
ATOM     25  O   UNL     1       0.182   9.086  22.589  0.00  0.00    +0.000 OA
ATOM     26  C   UNL     1      -0.595  10.147  23.136  0.00  0.00    +0.000 C 
ENDBRANCH  21  25
ENDBRANCH  15  19
ENDBRANCH   1  15
TORSDOF 5
ENDMDL
MODEL 2
REMARK VINA RESULT:      -7.4      0.953      2.334
REMARK  Name = 
REMARK  7 active torsions:
REMARK  status: ('A' for Active; 'I' for Inactive)
REMARK    1  A    between atoms: C_1  and  O_2
REMARK    2  A    between atoms: O_2  and  C_3
REMARK    3  A    between atoms: C_5  and  N_6
REMARK    4  A    between atoms: N_6  and  C_7
REMARK    5  A    between atoms: C_7  and  N_9
REMARK    6  A    between atoms: C_22  and  O_23
REMARK    7  A    between atoms: O_23  and  C_24
REMARK                            x       y       z     vdW  Elec       q    Type
REMARK                         _______ _______ _______ _____ _____    ______ ____
ROOT
ATOM      1  C   UNL     1       2.574   5.409  19.359  0.00  0.00    +0.000 C 
ATOM      2  S   UNL     1       1.388   4.304  19.803  0.00  0.00    +0.000 S 
ENDROOT
BRANCH   1   3
ATOM      3  N   UNL     1       3.561   5.141  18.385  0.00  0.00    +0.000 N 
ATOM      4  C   UNL     1       4.160   6.290  17.660  0.00  0.00    +0.000 C 
ATOM      5  C   UNL     1       5.514   5.949  17.004  0.00  0.00    +0.000 C 
ATOM      6  N   UNL     1       5.319   4.755  16.183  0.00  0.00    +0.000 N 
ATOM      7  C   UNL     1       6.015   4.622  15.003  0.00  0.00    +0.000 A 
ATOM      8  C   UNL     1       5.509   3.800  13.994  0.00  0.00    +0.000 A 
ATOM      9  C   UNL     1       6.138   3.742  12.754  0.00  0.00    +0.000 A 
ATOM     10  C   UNL     1       7.278   4.500  12.546  0.00  0.00    +0.000 A 
ATOM     11  C   UNL     1       7.729   5.286  13.589  0.00  0.00    +0.000 A 
ATOM     12  N   UNL     1       7.118   5.371  14.795  0.00  0.00    +0.000 NA
ATOM     13  C   UNL     1       4.877   3.576  16.932  0.00  0.00    +0.000 C 
ATOM     14  C   UNL     1       3.522   3.895  17.584  0.00  0.00    +0.000 C 
ENDBRANCH   1   3
BRANCH   1  15
ATOM     15  N   UNL     1       2.793   6.651  19.941  0.00  0.00    +0.000 N 
ATOM     16  H   UNL     1       3.685   6.701  20.418  0.00  0.00    +0.000 HD
BRANCH  15  19
ATOM     17  C   UNL     1       0.222   8.947  21.393  0.00  0.00    +0.000 A 
ATOM     18  C   UNL     1       1.078   7.852  21.249  0.00  0.00    +0.000 A 
ATOM     19  C   UNL     1       1.934   7.745  20.154  0.00  0.00    +0.000 A 
ATOM     20  C   UNL     1       1.889   8.735  19.170  0.00  0.00    +0.000 A 
ATOM     21  C   UNL     1       1.037   9.841  19.298  0.00  0.00    +0.000 A 
ATOM     22  C   UNL     1       0.204   9.942  20.416  0.00  0.00    +0.000 A 
BRANCH  17  24
ATOM     23  C   UNL     1      -0.817  10.156  23.156  0.00  0.00    +0.000 C 
ATOM     24  O   UNL     1      -0.541   8.913  22.526  0.00  0.00    +0.000 OA
ENDBRANCH  17  24
BRANCH  21  25
ATOM     25  O   UNL     1       1.110  10.747  18.274  0.00  0.00    +0.000 OA
ATOM     26  C   UNL     1       0.971  12.122  18.618  0.00  0.00    +0.000 C 
ENDBRANCH  21  25
ENDBRANCH  15  19
ENDBRANCH   1  15
TORSDOF 5
ENDMDL
MODEL 3
REMARK VINA RESULT:      -7.4      3.383      8.455
REMARK  Name = 
REMARK  7 active torsions:
REMARK  status: ('A' for Active; 'I' for Inactive)
REMARK    1  A    between atoms: C_1  and  O_2
REMARK    2  A    between atoms: O_2  and  C_3
REMARK    3  A    between atoms: C_5  and  N_6
REMARK    4  A    between atoms: N_6  and  C_7
REMARK    5  A    between atoms: C_7  and  N_9
REMARK    6  A    between atoms: C_22  and  O_23
REMARK    7  A    between atoms: O_23  and  C_24
REMARK                            x       y       z     vdW  Elec       q    Type
REMARK                         _______ _______ _______ _____ _____    ______ ____
ROOT
ATOM      1  C   UNL     1       2.793   3.797  18.228  0.00  0.00    +0.000 C 
ATOM      2  S   UNL     1       2.310   2.290  18.794  0.00  0.00    +0.000 S 
ENDROOT
BRANCH   1   3
ATOM      3  N   UNL     1       2.537   5.005  18.915  0.00  0.00    +0.000 N 
ATOM      4  C   UNL     1       1.688   4.952  20.132  0.00  0.00    +0.000 C 
ATOM      5  C   UNL     1       1.867   6.182  21.045  0.00  0.00    +0.000 C 
ATOM      6  N   UNL     1       1.668   7.375  20.223  0.00  0.00    +0.000 N 
ATOM      7  C   UNL     1       1.069   8.486  20.774  0.00  0.00    +0.000 A 
ATOM      8  C   UNL     1       0.429   9.406  19.942  0.00  0.00    +0.000 A 
ATOM      9  C   UNL     1      -0.279  10.473  20.489  0.00  0.00    +0.000 A 
ATOM     10  C   UNL     1      -0.322  10.612  21.866  0.00  0.00    +0.000 A 
ATOM     11  C   UNL     1       0.341   9.670  22.630  0.00  0.00    +0.000 A 
ATOM     12  N   UNL     1       1.016   8.615  22.116  0.00  0.00    +0.000 NA
ATOM     13  C   UNL     1       2.613   7.504  19.113  0.00  0.00    +0.000 C 
ATOM     14  C   UNL     1       2.440   6.290  18.185  0.00  0.00    +0.000 C 
ENDBRANCH   1   3
BRANCH   1  15
ATOM     15  N   UNL     1       3.399   4.055  17.005  0.00  0.00    +0.000 N 
ATOM     16  H   UNL     1       2.764   3.932  16.226  0.00  0.00    +0.000 HD
BRANCH  15  19
ATOM     17  C   UNL     1       6.568   4.426  15.053  0.00  0.00    +0.000 A 
ATOM     18  C   UNL     1       5.211   4.261  15.341  0.00  0.00    +0.000 A 
ATOM     19  C   UNL     1       4.748   4.249  16.656  0.00  0.00    +0.000 A 
ATOM     20  C   UNL     1       5.677   4.358  17.694  0.00  0.00    +0.000 A 
ATOM     21  C   UNL     1       7.043   4.525  17.424  0.00  0.00    +0.000 A 
ATOM     22  C   UNL     1       7.483   4.560  16.097  0.00  0.00    +0.000 A 
BRANCH  17  24
ATOM     23  C   UNL     1       6.034   3.644  12.874  0.00  0.00    +0.000 C 
ATOM     24  O   UNL     1       6.859   4.433  13.718  0.00  0.00    +0.000 OA
ENDBRANCH  17  24
BRANCH  21  25
ATOM     25  O   UNL     1       7.839   4.642  18.531  0.00  0.00    +0.000 OA
ATOM     26  C   UNL     1       7.652   5.798  19.341  0.00  0.00    +0.000 C 
ENDBRANCH  21  25
ENDBRANCH  15  19
ENDBRANCH   1  15
TORSDOF 5
ENDMDL
MODEL 4
REMARK VINA RESULT:      -7.3      3.296      8.449
REMARK  Name = 
REMARK  7 active torsions:
REMARK  status: ('A' for Active; 'I' for Inactive)
REMARK    1  A    between atoms: C_1  and  O_2
REMARK    2  A    between atoms: O_2  and  C_3
REMARK    3  A    between atoms: C_5  and  N_6
REMARK    4  A    between atoms: N_6  and  C_7
REMARK    5  A    between atoms: C_7  and  N_9
REMARK    6  A    between atoms: C_22  and  O_23
REMARK    7  A    between atoms: O_23  and  C_24
REMARK                            x       y       z     vdW  Elec       q    Type
REMARK                         _______ _______ _______ _____ _____    ______ ____
ROOT
ATOM      1  C   UNL     1       3.240   5.136  19.446  0.00  0.00    +0.000 C 
ATOM      2  S   UNL     1       2.336   3.719  19.476  0.00  0.00    +0.000 S 
ENDROOT
BRANCH   1   3
ATOM      3  N   UNL     1       2.664   6.426  19.455  0.00  0.00    +0.000 N 
ATOM      4  C   UNL     1       1.714   6.762  20.546  0.00  0.00    +0.000 C 
ATOM      5  C   UNL     1       1.532   8.281  20.739  0.00  0.00    +0.000 C 
ATOM      6  N   UNL     1       1.182   8.853  19.439  0.00  0.00    +0.000 N 
ATOM      7  C   UNL     1       0.308   9.915  19.379  0.00  0.00    +0.000 A 
ATOM      8  C   UNL     1      -0.413  10.147  18.206  0.00  0.00    +0.000 A 
ATOM      9  C   UNL     1      -1.382  11.144  18.164  0.00  0.00    +0.000 A 
ATOM     10  C   UNL     1      -1.607  11.909  19.296  0.00  0.00    +0.000 A 
ATOM     11  C   UNL     1      -0.852  11.631  20.420  0.00  0.00    +0.000 A 
ATOM     12  N   UNL     1       0.080  10.651  20.486  0.00  0.00    +0.000 NA
ATOM     13  C   UNL     1       2.197   8.655  18.404  0.00  0.00    +0.000 C 
ATOM     14  C   UNL     1       2.384   7.144  18.189  0.00  0.00    +0.000 C 
ENDBRANCH   1   3
BRANCH   1  15
ATOM     15  N   UNL     1       4.620   5.223  19.313  0.00  0.00    +0.000 N 
ATOM     16  H   UNL     1       5.084   5.379  20.200  0.00  0.00    +0.000 HD
BRANCH  15  19
ATOM     17  C   UNL     1       7.130   6.446  16.825  0.00  0.00    +0.000 A 
ATOM     18  C   UNL     1       6.362   6.366  17.989  0.00  0.00    +0.000 A 
ATOM     19  C   UNL     1       5.442   5.335  18.177  0.00  0.00    +0.000 A 
ATOM     20  C   UNL     1       5.263   4.402  17.153  0.00  0.00    +0.000 A 
ATOM     21  C   UNL     1       6.025   4.467  15.978  0.00  0.00    +0.000 A 
ATOM     22  C   UNL     1       6.961   5.494  15.820  0.00  0.00    +0.000 A 
BRANCH  17  24
ATOM     23  C   UNL     1       7.876   8.462  17.839  0.00  0.00    +0.000 C 
ATOM     24  O   UNL     1       7.996   7.503  16.799  0.00  0.00    +0.000 OA
ENDBRANCH  17  24
BRANCH  21  25
ATOM     25  O   UNL     1       5.766   3.478  15.068  0.00  0.00    +0.000 OA
ATOM     26  C   UNL     1       6.192   3.706  13.728  0.00  0.00    +0.000 C 
ENDBRANCH  21  25
ENDBRANCH  15  19
ENDBRANCH   1  15
TORSDOF 5
ENDMDL
MODEL 5
REMARK VINA RESULT:      -7.2      3.352      8.605
REMARK  Name = 
REMARK  7 active torsions:
REMARK  status: ('A' for Active; 'I' for Inactive)
REMARK    1  A    between atoms: C_1  and  O_2
REMARK    2  A    between atoms: O_2  and  C_3
REMARK    3  A    between atoms: C_5  and  N_6
REMARK    4  A    between atoms: N_6  and  C_7
REMARK    5  A    between atoms: C_7  and  N_9
REMARK    6  A    between atoms: C_22  and  O_23
REMARK    7  A    between atoms: O_23  and  C_24
REMARK                            x       y       z     vdW  Elec       q    Type
REMARK                         _______ _______ _______ _____ _____    ______ ____
ROOT
ATOM      1  C   UNL     1       2.925   4.455  19.030  0.00  0.00    +0.000 C 
ATOM      2  S   UNL     1       2.573   3.264  20.162  0.00  0.00    +0.000 S 
ENDROOT
BRANCH   1   3
ATOM      3  N   UNL     1       2.573   5.814  19.195  0.00  0.00    +0.000 N 
ATOM      4  C   UNL     1       1.759   6.188  20.380  0.00  0.00    +0.000 C 
ATOM      5  C   UNL     1       1.844   7.690  20.718  0.00  0.00    +0.000 C 
ATOM      6  N   UNL     1       1.518   8.436  19.503  0.00  0.00    +0.000 N 
ATOM      7  C   UNL     1       0.830   9.625  19.601  0.00  0.00    +0.000 A 
ATOM      8  C   UNL     1       0.090  10.084  18.511  0.00  0.00    +0.000 A 
ATOM      9  C   UNL     1      -0.701  11.223  18.629  0.00  0.00    +0.000 A 
ATOM     10  C   UNL     1      -0.727  11.898  19.837  0.00  0.00    +0.000 A 
ATOM     11  C   UNL     1       0.036  11.393  20.873  0.00  0.00    +0.000 A 
ATOM     12  N   UNL     1       0.794  10.276  20.783  0.00  0.00    +0.000 NA
ATOM     13  C   UNL     1       2.422   8.181  18.381  0.00  0.00    +0.000 C 
ATOM     14  C   UNL     1       2.342   6.688  18.022  0.00  0.00    +0.000 C 
ENDBRANCH   1   3
BRANCH   1  15
ATOM     15  N   UNL     1       3.501   4.252  17.782  0.00  0.00    +0.000 N 
ATOM     16  H   UNL     1       2.874   3.781  17.141  0.00  0.00    +0.000 HD
BRANCH  15  19
ATOM     17  C   UNL     1       7.218   4.655  17.686  0.00  0.00    +0.000 A 
ATOM     18  C   UNL     1       5.925   4.479  18.186  0.00  0.00    +0.000 A 
ATOM     19  C   UNL     1       4.826   4.396  17.332  0.00  0.00    +0.000 A 
ATOM     20  C   UNL     1       5.033   4.539  15.958  0.00  0.00    +0.000 A 
ATOM     21  C   UNL     1       6.323   4.716  15.438  0.00  0.00    +0.000 A 
ATOM     22  C   UNL     1       7.415   4.771  16.310  0.00  0.00    +0.000 A 
BRANCH  17  24
ATOM     23  C   UNL     1       8.025   5.658  19.683  0.00  0.00    +0.000 C 
ATOM     24  O   UNL     1       8.187   4.701  18.648  0.00  0.00    +0.000 OA
ENDBRANCH  17  24
BRANCH  21  25
ATOM     25  O   UNL     1       6.386   4.819  14.075  0.00  0.00    +0.000 OA
ATOM     26  C   UNL     1       6.115   3.639  13.325  0.00  0.00    +0.000 C 
ENDBRANCH  21  25
ENDBRANCH  15  19
ENDBRANCH   1  15
TORSDOF 5
ENDMDL
MODEL 6
REMARK VINA RESULT:      -7.1      3.858      6.045
REMARK  Name = 
REMARK  7 active torsions:
REMARK  status: ('A' for Active; 'I' for Inactive)
REMARK    1  A    between atoms: C_1  and  O_2
REMARK    2  A    between atoms: O_2  and  C_3
REMARK    3  A    between atoms: C_5  and  N_6
REMARK    4  A    between atoms: N_6  and  C_7
REMARK    5  A    between atoms: C_7  and  N_9
REMARK    6  A    between atoms: C_22  and  O_23
REMARK    7  A    between atoms: O_23  and  C_24
REMARK                            x       y       z     vdW  Elec       q    Type
REMARK                         _______ _______ _______ _____ _____    ______ ____
ROOT
ATOM      1  C   UNL     1      -0.009  11.035  19.100  0.00  0.00    +0.000 C 
ATOM      2  S   UNL     1       0.588  12.604  19.005  0.00  0.00    +0.000 S 
ENDROOT
BRANCH   1   3
ATOM      3  N   UNL     1       0.817   9.890  19.139  0.00  0.00    +0.000 N 
ATOM      4  C   UNL     1       1.289   9.321  17.851  0.00  0.00    +0.000 C 
ATOM      5  C   UNL     1       2.526   8.415  18.010  0.00  0.00    +0.000 C 
ATOM      6  N   UNL     1       2.214   7.415  19.031  0.00  0.00    +0.000 N 
ATOM      7  C   UNL     1       2.720   6.140  18.909  0.00  0.00    +0.000 A 
ATOM      8  C   UNL     1       2.070   5.079  19.541  0.00  0.00    +0.000 A 
ATOM      9  C   UNL     1       2.499   3.771  19.337  0.00  0.00    +0.000 A 
ATOM     10  C   UNL     1       3.587   3.545  18.511  0.00  0.00    +0.000 A 
ATOM     11  C   UNL     1       4.188   4.641  17.923  0.00  0.00    +0.000 A 
ATOM     12  N   UNL     1       3.772   5.918  18.094  0.00  0.00    +0.000 NA
ATOM     13  C   UNL     1       1.903   7.978  20.346  0.00  0.00    +0.000 C 
ATOM     14  C   UNL     1       0.663   8.876  20.209  0.00  0.00    +0.000 C 
ENDBRANCH   1   3
BRANCH   1  15
ATOM     15  N   UNL     1      -1.347  10.665  19.053  0.00  0.00    +0.000 N 
ATOM     16  H   UNL     1      -1.615  10.086  19.839  0.00  0.00    +0.000 HD
BRANCH  15  19
ATOM     17  C   UNL     1      -3.085  10.505  15.745  0.00  0.00    +0.000 A 
ATOM     18  C   UNL     1      -2.105  10.338  16.727  0.00  0.00    +0.000 A 
ATOM     19  C   UNL     1      -2.310  10.778  18.034  0.00  0.00    +0.000 A 
ATOM     20  C   UNL     1      -3.503  11.438  18.338  0.00  0.00    +0.000 A 
ATOM     21  C   UNL     1      -4.498  11.615  17.366  0.00  0.00    +0.000 A 
ATOM     22  C   UNL     1      -4.282  11.143  16.068  0.00  0.00    +0.000 A 
BRANCH  17  24
ATOM     23  C   UNL     1      -3.769   9.914  13.547  0.00  0.00    +0.000 C 
ATOM     24  O   UNL     1      -2.740  10.006  14.521  0.00  0.00    +0.000 OA
ENDBRANCH  17  24
BRANCH  21  25
ATOM     25  O   UNL     1      -5.625  12.256  17.804  0.00  0.00    +0.000 OA
ATOM     26  C   UNL     1      -6.720  11.437  18.201  0.00  0.00    +0.000 C 
ENDBRANCH  21  25
ENDBRANCH  15  19
ENDBRANCH   1  15
TORSDOF 5
ENDMDL
MODEL 7
REMARK VINA RESULT:      -7.1      3.474      5.771
REMARK  Name = 
REMARK  7 active torsions:
REMARK  status: ('A' for Active; 'I' for Inactive)
REMARK    1  A    between atoms: C_1  and  O_2
REMARK    2  A    between atoms: O_2  and  C_3
REMARK    3  A    between atoms: C_5  and  N_6
REMARK    4  A    between atoms: N_6  and  C_7
REMARK    5  A    between atoms: C_7  and  N_9
REMARK    6  A    between atoms: C_22  and  O_23
REMARK    7  A    between atoms: O_23  and  C_24
REMARK                            x       y       z     vdW  Elec       q    Type
REMARK                         _______ _______ _______ _____ _____    ______ ____
ROOT
ATOM      1  C   UNL     1       0.633  10.953  19.338  0.00  0.00    +0.000 C 
ATOM      2  S   UNL     1       0.877  11.970  20.653  0.00  0.00    +0.000 S 
ENDROOT
BRANCH   1   3
ATOM      3  N   UNL     1       1.301   9.718  19.175  0.00  0.00    +0.000 N 
ATOM      4  C   UNL     1       1.705   9.316  17.804  0.00  0.00    +0.000 C 
ATOM      5  C   UNL     1       2.812   8.242  17.793  0.00  0.00    +0.000 C 
ATOM      6  N   UNL     1       2.361   7.135  18.637  0.00  0.00    +0.000 N 
ATOM      7  C   UNL     1       2.696   5.844  18.297  0.00  0.00    +0.000 A 
ATOM      8  C   UNL     1       1.906   4.786  18.751  0.00  0.00    +0.000 A 
ATOM      9  C   UNL     1       2.161   3.486  18.325  0.00  0.00    +0.000 A 
ATOM     10  C   UNL     1       3.218   3.261  17.459  0.00  0.00    +0.000 A 
ATOM     11  C   UNL     1       3.964   4.352  17.055  0.00  0.00    +0.000 A 
ATOM     12  N   UNL     1       3.717   5.625  17.443  0.00  0.00    +0.000 NA
ATOM     13  C   UNL     1       2.114   7.506  20.031  0.00  0.00    +0.000 C 
ATOM     14  C   UNL     1       1.004   8.569  20.062  0.00  0.00    +0.000 C 
ENDBRANCH   1   3
BRANCH   1  15
ATOM     15  N   UNL     1      -0.156  11.227  18.228  0.00  0.00    +0.000 N 
ATOM     16  H   UNL     1       0.388  11.555  17.440  0.00  0.00    +0.000 HD
BRANCH  15  19
ATOM     17  C   UNL     1      -3.778  11.921  18.848  0.00  0.00    +0.000 A 
ATOM     18  C   UNL     1      -2.394  11.882  19.036  0.00  0.00    +0.000 A 
ATOM     19  C   UNL     1      -1.552  11.322  18.077  0.00  0.00    +0.000 A 
ATOM     20  C   UNL     1      -2.121  10.752  16.936  0.00  0.00    +0.000 A 
ATOM     21  C   UNL     1      -3.508  10.783  16.730  0.00  0.00    +0.000 A 
ATOM     22  C   UNL     1      -4.333  11.372  17.693  0.00  0.00    +0.000 A 
BRANCH  17  24
ATOM     23  C   UNL     1      -3.699  13.011  20.959  0.00  0.00    +0.000 C 
ATOM     24  O   UNL     1      -4.464  12.517  19.870  0.00  0.00    +0.000 OA
ENDBRANCH  17  24
BRANCH  21  25
ATOM     25  O   UNL     1      -3.930  10.211  15.561  0.00  0.00    +0.000 OA
ATOM     26  C   UNL     1      -2.995  10.169  14.488  0.00  0.00    +0.000 C 
ENDBRANCH  21  25
ENDBRANCH  15  19
ENDBRANCH   1  15
TORSDOF 5
ENDMDL
MODEL 8
REMARK VINA RESULT:      -7.1      3.312      8.110
REMARK  Name = 
REMARK  7 active torsions:
REMARK  status: ('A' for Active; 'I' for Inactive)
REMARK    1  A    between atoms: C_1  and  O_2
REMARK    2  A    between atoms: O_2  and  C_3
REMARK    3  A    between atoms: C_5  and  N_6
REMARK    4  A    between atoms: N_6  and  C_7
REMARK    5  A    between atoms: C_7  and  N_9
REMARK    6  A    between atoms: C_22  and  O_23
REMARK    7  A    between atoms: O_23  and  C_24
REMARK                            x       y       z     vdW  Elec       q    Type
REMARK                         _______ _______ _______ _____ _____    ______ ____
ROOT
ATOM      1  C   UNL     1       2.745   4.280  19.185  0.00  0.00    +0.000 C 
ATOM      2  S   UNL     1       1.564   3.085  19.208  0.00  0.00    +0.000 S 
ENDROOT
BRANCH   1   3
ATOM      3  N   UNL     1       2.461   5.658  19.323  0.00  0.00    +0.000 N 
ATOM      4  C   UNL     1       1.651   6.092  20.489  0.00  0.00    +0.000 C 
ATOM      5  C   UNL     1       1.808   7.594  20.805  0.00  0.00    +0.000 C 
ATOM      6  N   UNL     1       1.537   8.335  19.574  0.00  0.00    +0.000 N 
ATOM      7  C   UNL     1       0.910   9.559  19.643  0.00  0.00    +0.000 A 
ATOM      8  C   UNL     1       0.209  10.037  18.535  0.00  0.00    +0.000 A 
ATOM      9  C   UNL     1      -0.524  11.216  18.623  0.00  0.00    +0.000 A 
ATOM     10  C   UNL     1      -0.532  11.912  19.820  0.00  0.00    +0.000 A 
ATOM     11  C   UNL     1       0.190  11.386  20.875  0.00  0.00    +0.000 A 
ATOM     12  N   UNL     1       0.891  10.230  20.814  0.00  0.00    +0.000 NA
ATOM     13  C   UNL     1       2.443   8.016  18.469  0.00  0.00    +0.000 C 
ATOM     14  C   UNL     1       2.291   6.523  18.132  0.00  0.00    +0.000 C 
ENDBRANCH   1   3
BRANCH   1  15
ATOM     15  N   UNL     1       4.099   4.088  18.937  0.00  0.00    +0.000 N 
ATOM     16  H   UNL     1       4.584   3.694  19.733  0.00  0.00    +0.000 HD
BRANCH  15  19
ATOM     17  C   UNL     1       5.608   4.575  15.549  0.00  0.00    +0.000 A 
ATOM     18  C   UNL     1       4.738   4.141  16.553  0.00  0.00    +0.000 A 
ATOM     19  C   UNL     1       4.923   4.520  17.882  0.00  0.00    +0.000 A 
ATOM     20  C   UNL     1       6.029   5.309  18.205  0.00  0.00    +0.000 A 
ATOM     21  C   UNL     1       6.912   5.754  17.212  0.00  0.00    +0.000 A 
ATOM     22  C   UNL     1       6.694   5.384  15.881  0.00  0.00    +0.000 A 
BRANCH  17  24
ATOM     23  C   UNL     1       6.356   3.863  13.409  0.00  0.00    +0.000 C 
ATOM     24  O   UNL     1       5.282   4.132  14.298  0.00  0.00    +0.000 OA
ENDBRANCH  17  24
BRANCH  21  25
ATOM     25  O   UNL     1       7.939   6.539  17.662  0.00  0.00    +0.000 OA
ATOM     26  C   UNL     1       7.743   7.948  17.617  0.00  0.00    +0.000 C 
ENDBRANCH  21  25
ENDBRANCH  15  19
ENDBRANCH   1  15
TORSDOF 5
ENDMDL
MODEL 9
REMARK VINA RESULT:      -7.1      4.367      6.624
REMARK  Name = 
REMARK  7 active torsions:
REMARK  status: ('A' for Active; 'I' for Inactive)
REMARK    1  A    between atoms: C_1  and  O_2
REMARK    2  A    between atoms: O_2  and  C_3
REMARK    3  A    between atoms: C_5  and  N_6
REMARK    4  A    between atoms: N_6  and  C_7
REMARK    5  A    between atoms: C_7  and  N_9
REMARK    6  A    between atoms: C_22  and  O_23
REMARK    7  A    between atoms: O_23  and  C_24
REMARK                            x       y       z     vdW  Elec       q    Type
REMARK                         _______ _______ _______ _____ _____    ______ ____
ROOT
ATOM      1  C   UNL     1      -0.010  10.893  19.143  0.00  0.00    +0.000 C 
ATOM      2  S   UNL     1       0.654  12.413  18.874  0.00  0.00    +0.000 S 
ENDROOT
BRANCH   1   3
ATOM      3  N   UNL     1       0.765   9.740  19.401  0.00  0.00    +0.000 N 
ATOM      4  C   UNL     1       1.248   8.946  18.243  0.00  0.00    +0.000 C 
ATOM      5  C   UNL     1       2.441   8.034  18.592  0.00  0.00    +0.000 C 
ATOM      6  N   UNL     1       2.059   7.232  19.754  0.00  0.00    +0.000 N 
ATOM      7  C   UNL     1       2.513   5.937  19.863  0.00  0.00    +0.000 A 
ATOM      8  C   UNL     1       1.801   5.022  20.640  0.00  0.00    +0.000 A 
ATOM      9  C   UNL     1       2.180   3.683  20.671  0.00  0.00    +0.000 A 
ATOM     10  C   UNL     1       3.280   3.281  19.933  0.00  0.00    +0.000 A 
ATOM     11  C   UNL     1       3.944   4.241  19.192  0.00  0.00    +0.000 A 
ATOM     12  N   UNL     1       3.577   5.543  19.133  0.00  0.00    +0.000 NA
ATOM     13  C   UNL     1       1.735   8.019  20.946  0.00  0.00    +0.000 C 
ATOM     14  C   UNL     1       0.538   8.927  20.619  0.00  0.00    +0.000 C 
ENDBRANCH   1   3
BRANCH   1  15
ATOM     15  N   UNL     1      -1.356  10.560  19.053  0.00  0.00    +0.000 N 
ATOM     16  H   UNL     1      -1.626   9.860  19.733  0.00  0.00    +0.000 HD
BRANCH  15  19
ATOM     17  C   UNL     1      -4.487  11.728  17.373  0.00  0.00    +0.000 A 
ATOM     18  C   UNL     1      -3.544  11.480  18.373  0.00  0.00    +0.000 A 
ATOM     19  C   UNL     1      -2.328  10.863  18.082  0.00  0.00    +0.000 A 
ATOM     20  C   UNL     1      -2.084  10.450  16.770  0.00  0.00    +0.000 A 
ATOM     21  C   UNL     1      -3.018  10.691  15.753  0.00  0.00    +0.000 A 
ATOM     22  C   UNL     1      -4.221  11.334  16.062  0.00  0.00    +0.000 A 
BRANCH  17  24
ATOM     23  C   UNL     1      -6.026  12.084  19.148  0.00  0.00    +0.000 C 
ATOM     24  O   UNL     1      -5.619  12.353  17.815  0.00  0.00    +0.000 OA
ENDBRANCH  17  24
BRANCH  21  25
ATOM     25  O   UNL     1      -2.643  10.256  14.511  0.00  0.00    +0.000 OA
ATOM     26  C   UNL     1      -3.686   9.884  13.615  0.00  0.00    +0.000 C 
ENDBRANCH  21  25
ENDBRANCH  15  19
ENDBRANCH   1  15
TORSDOF 5
ENDMDL
