MODEL 1
REMARK VINA RESULT:      -7.6      0.000      0.000
REMARK  Name = 
REMARK  4 active torsions:
REMARK  status: ('A' for Active; 'I' for Inactive)
REMARK    1  A    between atoms: C_2  and  C_3
REMARK    2  A    between atoms: C_3  and  C_4
REMARK    3  A    between atoms: C_5  and  O_6
REMARK    4  A    between atoms: C_11  and  C_12
REMARK                            x       y       z     vdW  Elec       q    Type
REMARK                         _______ _______ _______ _____ _____    ______ ____
ROOT
ATOM      1  C   UNL     1       5.981   5.907  17.306  0.00  0.00    +0.000 A 
ATOM      2  C   UNL     1       7.227   6.480  17.517  0.00  0.00    +0.000 A 
ATOM      3  N   UNL     1       7.959   6.301  18.617  0.00  0.00    +0.000 NA
ATOM      4  C   UNL     1       7.453   5.509  19.549  0.00  0.00    +0.000 A 
ATOM      5  N   UNL     1       8.190   5.340  20.703  0.00  0.00    +0.000 N 
ATOM      6  N   UNL     1       6.255   4.911  19.471  0.00  0.00    +0.000 NA
ATOM      7  C   UNL     1       5.529   5.088  18.343  0.00  0.00    +0.000 A 
ATOM      8  H   UNL     1       8.838   6.112  20.802  0.00  0.00    +0.000 HD
ATOM      9  H   UNL     1       7.585   5.133  21.482  0.00  0.00    +0.000 HD
ENDROOT
BRANCH   7  10
ATOM     10  C   UNL     1       4.196   4.413  18.367  0.00  0.00    +0.000 A 
ATOM     11  C   UNL     1       3.069   5.068  18.893  0.00  0.00    +0.000 A 
ATOM     12  C   UNL     1       1.787   4.509  18.802  0.00  0.00    +0.000 A 
ATOM     13  C   UNL     1       1.592   3.288  18.161  0.00  0.00    +0.000 A 
ATOM     14  C   UNL     1       2.687   2.592  17.681  0.00  0.00    +0.000 A 
ATOM     15  C   UNL     1       3.965   3.131  17.837  0.00  0.00    +0.000 A 
ENDBRANCH   7  10
BRANCH   2  16
ATOM     16  O   UNL     1       7.834   7.323  16.634  0.00  0.00    +0.000 OA
ATOM     17  H   UNL     1       8.258   6.838  15.915  0.00  0.00    +0.000 HD
ENDBRANCH   2  16
BRANCH   1  18
ATOM     18  C   UNL     1       5.188   6.150  16.060  0.00  0.00    +0.000 C 
BRANCH  18  20
ATOM     19  C   UNL     1       5.752   4.214  14.083  0.00  0.00    +0.000 C 
ATOM     20  C   UNL     1       5.492   5.108  14.996  0.00  0.00    +0.000 C 
ENDBRANCH  18  20
ENDBRANCH   1  18
TORSDOF 4
ENDMDL
MODEL 2
REMARK VINA RESULT:      -7.5      0.171      1.170
REMARK  Name = 
REMARK  4 active torsions:
REMARK  status: ('A' for Active; 'I' for Inactive)
REMARK    1  A    between atoms: C_2  and  C_3
REMARK    2  A    between atoms: C_3  and  C_4
REMARK    3  A    between atoms: C_5  and  O_6
REMARK    4  A    between atoms: C_11  and  C_12
REMARK                            x       y       z     vdW  Elec       q    Type
REMARK                         _______ _______ _______ _____ _____    ______ ____
ROOT
ATOM      1  C   UNL     1       5.997   5.931  17.269  0.00  0.00    +0.000 A 
ATOM      2  C   UNL     1       7.235   6.509  17.509  0.00  0.00    +0.000 A 
ATOM      3  N   UNL     1       7.942   6.332  18.626  0.00  0.00    +0.000 NA
ATOM      4  C   UNL     1       7.418   5.537  19.545  0.00  0.00    +0.000 A 
ATOM      5  N   UNL     1       8.129   5.370  20.716  0.00  0.00    +0.000 N 
ATOM      6  N   UNL     1       6.226   4.934  19.439  0.00  0.00    +0.000 NA
ATOM      7  C   UNL     1       5.525   5.108  18.295  0.00  0.00    +0.000 A 
ATOM      8  H   UNL     1       8.771   6.145  20.830  0.00  0.00    +0.000 HD
ATOM      9  H   UNL     1       7.507   5.160  21.480  0.00  0.00    +0.000 HD
ENDROOT
BRANCH   7  10
ATOM     10  C   UNL     1       4.195   4.428  18.287  0.00  0.00    +0.000 A 
ATOM     11  C   UNL     1       4.052   3.136  17.752  0.00  0.00    +0.000 A 
ATOM     12  C   UNL     1       2.847   2.428  17.857  0.00  0.00    +0.000 A 
ATOM     13  C   UNL     1       1.755   2.983  18.520  0.00  0.00    +0.000 A 
ATOM     14  C   UNL     1       1.845   4.274  19.009  0.00  0.00    +0.000 A 
ATOM     15  C   UNL     1       3.031   4.991  18.840  0.00  0.00    +0.000 A 
ENDBRANCH   7  10
BRANCH   2  16
ATOM     16  O   UNL     1       7.859   7.355  16.641  0.00  0.00    +0.000 OA
ATOM     17  H   UNL     1       7.838   8.266  16.958  0.00  0.00    +0.000 HD
ENDBRANCH   2  16
BRANCH   1  18
ATOM     18  C   UNL     1       5.232   6.171  16.005  0.00  0.00    +0.000 C 
BRANCH  18  20
ATOM     19  C   UNL     1       5.812   4.209  14.058  0.00  0.00    +0.000 C 
ATOM     20  C   UNL     1       5.543   5.115  14.957  0.00  0.00    +0.000 C 
ENDBRANCH  18  20
ENDBRANCH   1  18
TORSDOF 4
ENDMDL
MODEL 3
REMARK VINA RESULT:      -7.3      1.269      1.946
REMARK  Name = 
REMARK  4 active torsions:
REMARK  status: ('A' for Active; 'I' for Inactive)
REMARK    1  A    between atoms: C_2  and  C_3
REMARK    2  A    between atoms: C_3  and  C_4
REMARK    3  A    between atoms: C_5  and  O_6
REMARK    4  A    between atoms: C_11  and  C_12
REMARK                            x       y       z     vdW  Elec       q    Type
REMARK                         _______ _______ _______ _____ _____    ______ ____
ROOT
ATOM      1  C   UNL     1       5.632   6.258  17.708  0.00  0.00    +0.000 A 
ATOM      2  C   UNL     1       6.914   6.791  17.705  0.00  0.00    +0.000 A 
ATOM      3  N   UNL     1       7.862   6.470  18.585  0.00  0.00    +0.000 NA
ATOM      4  C   UNL     1       7.546   5.571  19.504  0.00  0.00    +0.000 A 
ATOM      5  N   UNL     1       8.512   5.252  20.436  0.00  0.00    +0.000 N 
ATOM      6  N   UNL     1       6.340   4.996  19.622  0.00  0.00    +0.000 NA
ATOM      7  C   UNL     1       5.391   5.319  18.713  0.00  0.00    +0.000 A 
ATOM      8  H   UNL     1       9.192   6.001  20.481  0.00  0.00    +0.000 HD
ATOM      9  H   UNL     1       8.085   4.953  21.298  0.00  0.00    +0.000 HD
ENDROOT
BRANCH   7  10
ATOM     10  C   UNL     1       4.072   4.657  18.950  0.00  0.00    +0.000 A 
ATOM     11  C   UNL     1       3.191   5.142  19.932  0.00  0.00    +0.000 A 
ATOM     12  C   UNL     1       1.898   4.623  20.078  0.00  0.00    +0.000 A 
ATOM     13  C   UNL     1       1.440   3.615  19.232  0.00  0.00    +0.000 A 
ATOM     14  C   UNL     1       2.301   3.078  18.292  0.00  0.00    +0.000 A 
ATOM     15  C   UNL     1       3.608   3.561  18.201  0.00  0.00    +0.000 A 
ENDBRANCH   7  10
BRANCH   2  16
ATOM     16  O   UNL     1       7.342   7.733  16.817  0.00  0.00    +0.000 OA
ATOM     17  H   UNL     1       7.036   8.615  17.062  0.00  0.00    +0.000 HD
ENDBRANCH   2  16
BRANCH   1  18
ATOM     18  C   UNL     1       4.594   6.662  16.708  0.00  0.00    +0.000 C 
BRANCH  18  20
ATOM     19  C   UNL     1       2.586   8.257  17.892  0.00  0.00    +0.000 C 
ATOM     20  C   UNL     1       3.513   7.520  17.345  0.00  0.00    +0.000 C 
ENDBRANCH  18  20
ENDBRANCH   1  18
TORSDOF 4
ENDMDL
MODEL 4
REMARK VINA RESULT:      -7.2      1.380      2.337
REMARK  Name = 
REMARK  4 active torsions:
REMARK  status: ('A' for Active; 'I' for Inactive)
REMARK    1  A    between atoms: C_2  and  C_3
REMARK    2  A    between atoms: C_3  and  C_4
REMARK    3  A    between atoms: C_5  and  O_6
REMARK    4  A    between atoms: C_11  and  C_12
REMARK                            x       y       z     vdW  Elec       q    Type
REMARK                         _______ _______ _______ _____ _____    ______ ____
ROOT
ATOM      1  C   UNL     1       5.532   6.187  17.758  0.00  0.00    +0.000 A 
ATOM      2  C   UNL     1       6.815   6.711  17.686  0.00  0.00    +0.000 A 
ATOM      3  N   UNL     1       7.797   6.409  18.536  0.00  0.00    +0.000 NA
ATOM      4  C   UNL     1       7.514   5.540  19.493  0.00  0.00    +0.000 A 
ATOM      5  N   UNL     1       8.516   5.243  20.394  0.00  0.00    +0.000 N 
ATOM      6  N   UNL     1       6.311   4.977  19.678  0.00  0.00    +0.000 NA
ATOM      7  C   UNL     1       5.327   5.279  18.799  0.00  0.00    +0.000 A 
ATOM      8  H   UNL     1       9.201   5.988  20.389  0.00  0.00    +0.000 HD
ATOM      9  H   UNL     1       8.124   4.973  21.282  0.00  0.00    +0.000 HD
ENDROOT
BRANCH   7  10
ATOM     10  C   UNL     1       4.016   4.633  19.110  0.00  0.00    +0.000 A 
ATOM     11  C   UNL     1       3.650   3.421  18.500  0.00  0.00    +0.000 A 
ATOM     12  C   UNL     1       2.490   2.731  18.877  0.00  0.00    +0.000 A 
ATOM     13  C   UNL     1       1.673   3.223  19.892  0.00  0.00    +0.000 A 
ATOM     14  C   UNL     1       1.975   4.440  20.475  0.00  0.00    +0.000 A 
ATOM     15  C   UNL     1       3.099   5.148  20.043  0.00  0.00    +0.000 A 
ENDBRANCH   7  10
BRANCH   2  16
ATOM     16  O   UNL     1       7.211   7.624  16.754  0.00  0.00    +0.000 OA
ATOM     17  H   UNL     1       8.133   7.880  16.878  0.00  0.00    +0.000 HD
ENDBRANCH   2  16
BRANCH   1  18
ATOM     18  C   UNL     1       4.456   6.568  16.790  0.00  0.00    +0.000 C 
BRANCH  18  20
ATOM     19  C   UNL     1       2.601   8.349  17.956  0.00  0.00    +0.000 C 
ATOM     20  C   UNL     1       3.457   7.526  17.418  0.00  0.00    +0.000 C 
ENDBRANCH  18  20
ENDBRANCH   1  18
TORSDOF 4
ENDMDL
MODEL 5
REMARK VINA RESULT:      -6.7      2.382      3.523
REMARK  Name = 
REMARK  4 active torsions:
REMARK  status: ('A' for Active; 'I' for Inactive)
REMARK    1  A    between atoms: C_2  and  C_3
REMARK    2  A    between atoms: C_3  and  C_4
REMARK    3  A    between atoms: C_5  and  O_6
REMARK    4  A    between atoms: C_11  and  C_12
REMARK                            x       y       z     vdW  Elec       q    Type
REMARK                         _______ _______ _______ _____ _____    ______ ____
ROOT
ATOM      1  C   UNL     1       4.955   5.610  17.180  0.00  0.00    +0.000 A 
ATOM      2  C   UNL     1       5.982   6.121  16.398  0.00  0.00    +0.000 A 
ATOM      3  N   UNL     1       6.476   5.513  15.318  0.00  0.00    +0.000 NA
ATOM      4  C   UNL     1       5.926   4.358  14.978  0.00  0.00    +0.000 A 
ATOM      5  N   UNL     1       6.449   3.709  13.879  0.00  0.00    +0.000 N 
ATOM      6  N   UNL     1       4.941   3.755  15.659  0.00  0.00    +0.000 NA
ATOM      7  C   UNL     1       4.438   4.389  16.744  0.00  0.00    +0.000 A 
ATOM      8  H   UNL     1       7.388   4.045  13.707  0.00  0.00    +0.000 HD
ATOM      9  H   UNL     1       6.314   2.714  13.959  0.00  0.00    +0.000 HD
ENDROOT
BRANCH   7  10
ATOM     10  C   UNL     1       3.372   3.621  17.456  0.00  0.00    +0.000 A 
ATOM     11  C   UNL     1       3.685   2.452  18.170  0.00  0.00    +0.000 A 
ATOM     12  C   UNL     1       2.728   1.794  18.955  0.00  0.00    +0.000 A 
ATOM     13  C   UNL     1       1.434   2.299  19.065  0.00  0.00    +0.000 A 
ATOM     14  C   UNL     1       1.079   3.416  18.331  0.00  0.00    +0.000 A 
ATOM     15  C   UNL     1       2.025   4.023  17.503  0.00  0.00    +0.000 A 
ENDBRANCH   7  10
BRANCH   2  16
ATOM     16  O   UNL     1       6.630   7.290  16.665  0.00  0.00    +0.000 OA
ATOM     17  H   UNL     1       7.456   7.358  16.171  0.00  0.00    +0.000 HD
ENDBRANCH   2  16
BRANCH   1  18
ATOM     18  C   UNL     1       4.444   6.321  18.394  0.00  0.00    +0.000 C 
BRANCH  18  20
ATOM     19  C   UNL     1       2.416   8.171  17.729  0.00  0.00    +0.000 C 
ATOM     20  C   UNL     1       3.353   7.317  18.036  0.00  0.00    +0.000 C 
ENDBRANCH  18  20
ENDBRANCH   1  18
TORSDOF 4
ENDMDL
MODEL 6
REMARK VINA RESULT:      -6.6      2.763      4.477
REMARK  Name = 
REMARK  4 active torsions:
REMARK  status: ('A' for Active; 'I' for Inactive)
REMARK    1  A    between atoms: C_2  and  C_3
REMARK    2  A    between atoms: C_3  and  C_4
REMARK    3  A    between atoms: C_5  and  O_6
REMARK    4  A    between atoms: C_11  and  C_12
REMARK                            x       y       z     vdW  Elec       q    Type
REMARK                         _______ _______ _______ _____ _____    ______ ____
ROOT
ATOM      1  C   UNL     1       3.445   4.527  18.357  0.00  0.00    +0.000 A 
ATOM      2  C   UNL     1       4.484   3.606  18.363  0.00  0.00    +0.000 A 
ATOM      3  N   UNL     1       5.730   3.884  18.745  0.00  0.00    +0.000 NA
ATOM      4  C   UNL     1       5.968   5.119  19.158  0.00  0.00    +0.000 A 
ATOM      5  N   UNL     1       7.261   5.423  19.530  0.00  0.00    +0.000 N 
ATOM      6  N   UNL     1       5.055   6.101  19.185  0.00  0.00    +0.000 NA
ATOM      7  C   UNL     1       3.790   5.803  18.809  0.00  0.00    +0.000 A 
ATOM      8  H   UNL     1       7.896   4.757  19.107  0.00  0.00    +0.000 HD
ATOM      9  H   UNL     1       7.448   6.403  19.388  0.00  0.00    +0.000 HD
ENDROOT
BRANCH   7  10
ATOM     10  C   UNL     1       2.857   6.969  18.838  0.00  0.00    +0.000 A 
ATOM     11  C   UNL     1       2.127   7.277  19.999  0.00  0.00    +0.000 A 
ATOM     12  C   UNL     1       1.353   8.442  20.091  0.00  0.00    +0.000 A 
ATOM     13  C   UNL     1       1.302   9.343  19.030  0.00  0.00    +0.000 A 
ATOM     14  C   UNL     1       1.964   9.043  17.854  0.00  0.00    +0.000 A 
ATOM     15  C   UNL     1       2.679   7.848  17.754  0.00  0.00    +0.000 A 
ENDBRANCH   7  10
BRANCH   2  16
ATOM     16  O   UNL     1       4.356   2.315  17.943  0.00  0.00    +0.000 OA
ATOM     17  H   UNL     1       3.762   1.814  18.514  0.00  0.00    +0.000 HD
ENDBRANCH   2  16
BRANCH   1  18
ATOM     18  C   UNL     1       2.064   4.173  17.903  0.00  0.00    +0.000 C 
BRANCH  18  20
ATOM     19  C   UNL     1       0.552   3.025  19.994  0.00  0.00    +0.000 C 
ATOM     20  C   UNL     1       1.250   3.555  19.029  0.00  0.00    +0.000 C 
ENDBRANCH  18  20
ENDBRANCH   1  18
TORSDOF 4
ENDMDL
MODEL 7
REMARK VINA RESULT:      -6.6      3.231      5.285
REMARK  Name = 
REMARK  4 active torsions:
REMARK  status: ('A' for Active; 'I' for Inactive)
REMARK    1  A    between atoms: C_2  and  C_3
REMARK    2  A    between atoms: C_3  and  C_4
REMARK    3  A    between atoms: C_5  and  O_6
REMARK    4  A    between atoms: C_11  and  C_12
REMARK                            x       y       z     vdW  Elec       q    Type
REMARK                         _______ _______ _______ _____ _____    ______ ____
ROOT
ATOM      1  C   UNL     1       2.443   4.116  18.360  0.00  0.00    +0.000 A 
ATOM      2  C   UNL     1       3.085   3.039  17.765  0.00  0.00    +0.000 A 
ATOM      3  N   UNL     1       4.233   3.127  17.094  0.00  0.00    +0.000 NA
ATOM      4  C   UNL     1       4.789   4.325  17.016  0.00  0.00    +0.000 A 
ATOM      5  N   UNL     1       5.964   4.432  16.299  0.00  0.00    +0.000 N 
ATOM      6  N   UNL     1       4.262   5.444  17.534  0.00  0.00    +0.000 NA
ATOM      7  C   UNL     1       3.104   5.340  18.226  0.00  0.00    +0.000 A 
ATOM      8  H   UNL     1       6.038   3.649  15.661  0.00  0.00    +0.000 HD
ATOM      9  H   UNL     1       6.062   5.359  15.918  0.00  0.00    +0.000 HD
ENDROOT
BRANCH   7  10
ATOM     10  C   UNL     1       2.578   6.643  18.730  0.00  0.00    +0.000 A 
ATOM     11  C   UNL     1       2.344   7.713  17.849  0.00  0.00    +0.000 A 
ATOM     12  C   UNL     1       1.725   8.895  18.278  0.00  0.00    +0.000 A 
ATOM     13  C   UNL     1       1.302   9.033  19.598  0.00  0.00    +0.000 A 
ATOM     14  C   UNL     1       1.567   8.022  20.503  0.00  0.00    +0.000 A 
ATOM     15  C   UNL     1       2.242   6.877  20.076  0.00  0.00    +0.000 A 
ENDBRANCH   7  10
BRANCH   2  16
ATOM     16  O   UNL     1       2.594   1.767  17.770  0.00  0.00    +0.000 OA
ATOM     17  H   UNL     1       3.284   1.122  17.967  0.00  0.00    +0.000 HD
ENDBRANCH   2  16
BRANCH   1  18
ATOM     18  C   UNL     1       1.145   3.972  19.091  0.00  0.00    +0.000 C 
BRANCH  18  20
ATOM     19  C   UNL     1       1.509   2.755  21.613  0.00  0.00    +0.000 C 
ATOM     20  C   UNL     1       1.341   3.317  20.448  0.00  0.00    +0.000 C 
ENDBRANCH  18  20
ENDBRANCH   1  18
TORSDOF 4
ENDMDL
MODEL 8
REMARK VINA RESULT:      -6.5      2.385      3.374
REMARK  Name = 
REMARK  4 active torsions:
REMARK  status: ('A' for Active; 'I' for Inactive)
REMARK    1  A    between atoms: C_2  and  C_3
REMARK    2  A    between atoms: C_3  and  C_4
REMARK    3  A    between atoms: C_5  and  O_6
REMARK    4  A    between atoms: C_11  and  C_12
REMARK                            x       y       z     vdW  Elec       q    Type
REMARK                         _______ _______ _______ _____ _____    ______ ____
ROOT
ATOM      1  C   UNL     1       4.975   5.702  17.203  0.00  0.00    +0.000 A 
ATOM      2  C   UNL     1       5.973   6.170  16.359  0.00  0.00    +0.000 A 
ATOM      3  N   UNL     1       6.435   5.503  15.301  0.00  0.00    +0.000 NA
ATOM      4  C   UNL     1       5.881   4.328  15.047  0.00  0.00    +0.000 A 
ATOM      5  N   UNL     1       6.372   3.617  13.971  0.00  0.00    +0.000 N 
ATOM      6  N   UNL     1       4.923   3.761  15.795  0.00  0.00    +0.000 NA
ATOM      7  C   UNL     1       4.452   4.454  16.856  0.00  0.00    +0.000 A 
ATOM      8  H   UNL     1       7.303   3.947  13.749  0.00  0.00    +0.000 HD
ATOM      9  H   UNL     1       6.246   2.628  14.114  0.00  0.00    +0.000 HD
ENDROOT
BRANCH   7  10
ATOM     10  C   UNL     1       3.415   3.725  17.647  0.00  0.00    +0.000 A 
ATOM     11  C   UNL     1       2.065   4.111  17.589  0.00  0.00    +0.000 A 
ATOM     12  C   UNL     1       1.060   3.359  18.214  0.00  0.00    +0.000 A 
ATOM     13  C   UNL     1       1.375   2.187  18.897  0.00  0.00    +0.000 A 
ATOM     14  C   UNL     1       2.700   1.809  19.019  0.00  0.00    +0.000 A 
ATOM     15  C   UNL     1       3.696   2.603  18.447  0.00  0.00    +0.000 A 
ENDBRANCH   7  10
BRANCH   2  16
ATOM     16  O   UNL     1       6.622   7.356  16.535  0.00  0.00    +0.000 OA
ATOM     17  H   UNL     1       6.145   8.086  16.121  0.00  0.00    +0.000 HD
ENDBRANCH   2  16
BRANCH   1  18
ATOM     18  C   UNL     1       4.500   6.480  18.390  0.00  0.00    +0.000 C 
BRANCH  18  20
ATOM     19  C   UNL     1       2.395   8.232  17.699  0.00  0.00    +0.000 C 
ATOM     20  C   UNL     1       3.367   7.423  18.018  0.00  0.00    +0.000 C 
ENDBRANCH  18  20
ENDBRANCH   1  18
TORSDOF 4
ENDMDL
MODEL 9
REMARK VINA RESULT:      -6.5      3.057      5.375
REMARK  Name = 
REMARK  4 active torsions:
REMARK  status: ('A' for Active; 'I' for Inactive)
REMARK    1  A    between atoms: C_2  and  C_3
REMARK    2  A    between atoms: C_3  and  C_4
REMARK    3  A    between atoms: C_5  and  O_6
REMARK    4  A    between atoms: C_11  and  C_12
REMARK                            x       y       z     vdW  Elec       q    Type
REMARK                         _______ _______ _______ _____ _____    ______ ____
ROOT
ATOM      1  C   UNL     1       3.095   4.952  19.501  0.00  0.00    +0.000 A 
ATOM      2  C   UNL     1       2.141   3.953  19.641  0.00  0.00    +0.000 A 
ATOM      3  N   UNL     1       2.309   2.694  19.236  0.00  0.00    +0.000 NA
ATOM      4  C   UNL     1       3.473   2.394  18.682  0.00  0.00    +0.000 A 
ATOM      5  N   UNL     1       3.646   1.100  18.235  0.00  0.00    +0.000 N 
ATOM      6  N   UNL     1       4.467   3.271  18.477  0.00  0.00    +0.000 NA
ATOM      7  C   UNL     1       4.291   4.542  18.906  0.00  0.00    +0.000 A 
ATOM      8  H   UNL     1       2.740   0.673  18.090  0.00  0.00    +0.000 HD
ATOM      9  H   UNL     1       4.304   1.075  17.472  0.00  0.00    +0.000 HD
ENDROOT
BRANCH   7  10
ATOM     10  C   UNL     1       5.435   5.451  18.599  0.00  0.00    +0.000 A 
ATOM     11  C   UNL     1       6.616   5.403  19.361  0.00  0.00    +0.000 A 
ATOM     12  C   UNL     1       7.749   6.148  19.007  0.00  0.00    +0.000 A 
ATOM     13  C   UNL     1       7.741   6.949  17.867  0.00  0.00    +0.000 A 
ATOM     14  C   UNL     1       6.578   7.062  17.127  0.00  0.00    +0.000 A 
ATOM     15  C   UNL     1       5.437   6.364  17.529  0.00  0.00    +0.000 A 
ENDBRANCH   7  10
BRANCH   2  16
ATOM     16  O   UNL     1       0.905   4.154  20.180  0.00  0.00    +0.000 OA
ATOM     17  H   UNL     1       0.209   4.026  19.525  0.00  0.00    +0.000 HD
ENDBRANCH   2  16
BRANCH   1  18
ATOM     18  C   UNL     1       2.855   6.357  19.956  0.00  0.00    +0.000 C 
BRANCH  18  20
ATOM     19  C   UNL     1       2.069   8.018  17.811  0.00  0.00    +0.000 C 
ATOM     20  C   UNL     1       2.432   7.251  18.801  0.00  0.00    +0.000 C 
ENDBRANCH  18  20
ENDBRANCH   1  18
TORSDOF 4
ENDMDL
