MODEL 1
REMARK VINA RESULT:      -7.2      0.000      0.000
REMARK  Name = 
REMARK  6 active torsions:
REMARK  status: ('A' for Active; 'I' for Inactive)
REMARK    1  A    between atoms: C_2  and  C_3
REMARK    2  A    between atoms: C_3  and  C_4
REMARK    3  A    between atoms: C_4  and  N_5
REMARK    4  A    between atoms: C_6  and  C_8
REMARK    5  A    between atoms: C_19  and  O_20
REMARK    6  A    between atoms: C_21  and  O_22
REMARK                            x       y       z     vdW  Elec       q    Type
REMARK                         _______ _______ _______ _____ _____    ______ ____
ROOT
ATOM      1  O   UNL     1       3.081   1.511  18.734  0.00  0.00    +0.000 OA
ATOM      2  C   UNL     1       2.901   2.707  18.491  0.00  0.00    +0.000 C 
ATOM      3  N   UNL     1       2.554   3.530  19.528  0.00  0.00    +0.000 N 
ATOM      4  C   UNL     1       2.382   4.882  19.450  0.00  0.00    +0.000 A 
ATOM      5  N   UNL     1       2.616   5.655  18.428  0.00  0.00    +0.000 NA
ATOM      6  C   UNL     1       2.251   6.949  18.725  0.00  0.00    +0.000 A 
ATOM      7  C   UNL     1       2.325   8.028  17.823  0.00  0.00    +0.000 A 
ATOM      8  C   UNL     1       1.934   9.286  18.257  0.00  0.00    +0.000 A 
ATOM      9  C   UNL     1       1.472   9.477  19.555  0.00  0.00    +0.000 A 
ATOM     10  C   UNL     1       1.384   8.429  20.470  0.00  0.00    +0.000 A 
ATOM     11  C   UNL     1       1.781   7.157  20.026  0.00  0.00    +0.000 A 
ATOM     12  S   UNL     1       1.797   5.639  20.860  0.00  0.00    +0.000 S 
ATOM     13  H   UNL     1       2.393   3.082  20.419  0.00  0.00    +0.000 HD
ENDROOT
BRANCH   8  14
ATOM     14  O   UNL     1       1.992  10.376  17.430  0.00  0.00    +0.000 OA
ATOM     15  H   UNL     1       1.947  11.177  17.982  0.00  0.00    +0.000 HD
ENDBRANCH   8  14
BRANCH   9  16
ATOM     16  O   UNL     1       1.090  10.730  19.949  0.00  0.00    +0.000 OA
ATOM     17  H   UNL     1       0.180  10.617  20.294  0.00  0.00    +0.000 HD
ENDBRANCH   9  16
BRANCH   2  18
ATOM     18  C   UNL     1       3.099   3.266  17.090  0.00  0.00    +0.000 C 
BRANCH  18  19
ATOM     19  C   UNL     1       4.546   3.152  16.624  0.00  0.00    +0.000 C 
BRANCH  19  20
ATOM     20  N   UNL     1       5.273   4.401  16.818  0.00  0.00    +0.000 N 
ATOM     21  C   UNL     1       5.875   4.724  18.020  0.00  0.00    +0.000 C 
ATOM     22  O   UNL     1       5.823   4.016  19.019  0.00  0.00    +0.000 OA
ATOM     23  H   UNL     1       5.529   4.921  15.992  0.00  0.00    +0.000 HD
BRANCH  21  24
ATOM     24  C   UNL     1       6.668   5.988  18.032  0.00  0.00    +0.000 A 
ATOM     25  C   UNL     1       7.783   6.150  18.866  0.00  0.00    +0.000 A 
ATOM     26  C   UNL     1       8.480   7.361  18.877  0.00  0.00    +0.000 A 
ATOM     27  C   UNL     1       8.077   8.409  18.050  0.00  0.00    +0.000 A 
ATOM     28  C   UNL     1       6.985   8.244  17.194  0.00  0.00    +0.000 A 
ATOM     29  C   UNL     1       6.287   7.034  17.181  0.00  0.00    +0.000 A 
ENDBRANCH  21  24
ENDBRANCH  19  20
ENDBRANCH  18  19
ENDBRANCH   2  18
TORSDOF 6
ENDMDL
MODEL 2
REMARK VINA RESULT:      -7.2      3.169      5.457
REMARK  Name = 
REMARK  6 active torsions:
REMARK  status: ('A' for Active; 'I' for Inactive)
REMARK    1  A    between atoms: C_2  and  C_3
REMARK    2  A    between atoms: C_3  and  C_4
REMARK    3  A    between atoms: C_4  and  N_5
REMARK    4  A    between atoms: C_6  and  C_8
REMARK    5  A    between atoms: C_19  and  O_20
REMARK    6  A    between atoms: C_21  and  O_22
REMARK                            x       y       z     vdW  Elec       q    Type
REMARK                         _______ _______ _______ _____ _____    ______ ____
ROOT
ATOM      1  O   UNL     1       7.340   7.747  16.783  0.00  0.00    +0.000 OA
ATOM      2  C   UNL     1       6.776   6.959  17.547  0.00  0.00    +0.000 C 
ATOM      3  N   UNL     1       5.410   6.888  17.505  0.00  0.00    +0.000 N 
ATOM      4  C   UNL     1       4.635   6.028  18.229  0.00  0.00    +0.000 A 
ATOM      5  N   UNL     1       5.032   5.056  18.999  0.00  0.00    +0.000 NA
ATOM      6  C   UNL     1       3.946   4.465  19.607  0.00  0.00    +0.000 A 
ATOM      7  C   UNL     1       4.026   3.415  20.542  0.00  0.00    +0.000 A 
ATOM      8  C   UNL     1       2.851   2.904  21.071  0.00  0.00    +0.000 A 
ATOM      9  C   UNL     1       1.617   3.423  20.691  0.00  0.00    +0.000 A 
ATOM     10  C   UNL     1       1.505   4.464  19.770  0.00  0.00    +0.000 A 
ATOM     11  C   UNL     1       2.698   4.979  19.238  0.00  0.00    +0.000 A 
ATOM     12  S   UNL     1       2.951   6.259  18.100  0.00  0.00    +0.000 S 
ATOM     13  H   UNL     1       4.947   7.547  16.898  0.00  0.00    +0.000 HD
ENDROOT
BRANCH   8  14
ATOM     14  O   UNL     1       2.863   1.877  21.977  0.00  0.00    +0.000 OA
ATOM     15  H   UNL     1       3.201   1.082  21.527  0.00  0.00    +0.000 HD
ENDBRANCH   8  14
BRANCH   9  16
ATOM     16  O   UNL     1       0.477   2.899  21.236  0.00  0.00    +0.000 OA
ATOM     17  H   UNL     1       0.217   2.178  20.626  0.00  0.00    +0.000 HD
ENDBRANCH   9  16
BRANCH   2  18
ATOM     18  C   UNL     1       7.572   6.059  18.480  0.00  0.00    +0.000 C 
BRANCH  18  19
ATOM     19  C   UNL     1       7.730   4.648  17.924  0.00  0.00    +0.000 C 
BRANCH  19  20
ATOM     20  N   UNL     1       7.769   4.646  16.466  0.00  0.00    +0.000 N 
ATOM     21  C   UNL     1       6.746   4.117  15.702  0.00  0.00    +0.000 C 
ATOM     22  O   UNL     1       5.750   3.582  16.175  0.00  0.00    +0.000 OA
ATOM     23  H   UNL     1       8.447   5.247  16.020  0.00  0.00    +0.000 HD
BRANCH  21  24
ATOM     24  C   UNL     1       6.884   4.280  14.225  0.00  0.00    +0.000 A 
ATOM     25  C   UNL     1       7.747   5.233  13.667  0.00  0.00    +0.000 A 
ATOM     26  C   UNL     1       7.825   5.382  12.280  0.00  0.00    +0.000 A 
ATOM     27  C   UNL     1       7.051   4.575  11.446  0.00  0.00    +0.000 A 
ATOM     28  C   UNL     1       6.212   3.603  11.994  0.00  0.00    +0.000 A 
ATOM     29  C   UNL     1       6.134   3.451  13.380  0.00  0.00    +0.000 A 
ENDBRANCH  21  24
ENDBRANCH  19  20
ENDBRANCH  18  19
ENDBRANCH   2  18
TORSDOF 6
ENDMDL
MODEL 3
REMARK VINA RESULT:      -7.1      3.549      7.955
REMARK  Name = 
REMARK  6 active torsions:
REMARK  status: ('A' for Active; 'I' for Inactive)
REMARK    1  A    between atoms: C_2  and  C_3
REMARK    2  A    between atoms: C_3  and  C_4
REMARK    3  A    between atoms: C_4  and  N_5
REMARK    4  A    between atoms: C_6  and  C_8
REMARK    5  A    between atoms: C_19  and  O_20
REMARK    6  A    between atoms: C_21  and  O_22
REMARK                            x       y       z     vdW  Elec       q    Type
REMARK                         _______ _______ _______ _____ _____    ______ ____
ROOT
ATOM      1  O   UNL     1       0.412   8.137  21.861  0.00  0.00    +0.000 OA
ATOM      2  C   UNL     1       1.203   7.911  20.941  0.00  0.00    +0.000 C 
ATOM      3  N   UNL     1       1.656   6.630  20.780  0.00  0.00    +0.000 N 
ATOM      4  C   UNL     1       2.477   6.195  19.780  0.00  0.00    +0.000 A 
ATOM      5  N   UNL     1       2.894   6.866  18.745  0.00  0.00    +0.000 NA
ATOM      6  C   UNL     1       3.763   6.096  18.004  0.00  0.00    +0.000 A 
ATOM      7  C   UNL     1       4.435   6.536  16.848  0.00  0.00    +0.000 A 
ATOM      8  C   UNL     1       5.276   5.652  16.191  0.00  0.00    +0.000 A 
ATOM      9  C   UNL     1       5.458   4.357  16.667  0.00  0.00    +0.000 A 
ATOM     10  C   UNL     1       4.808   3.893  17.810  0.00  0.00    +0.000 A 
ATOM     11  C   UNL     1       3.958   4.792  18.473  0.00  0.00    +0.000 A 
ATOM     12  S   UNL     1       3.011   4.581  19.907  0.00  0.00    +0.000 S 
ATOM     13  H   UNL     1       1.366   5.963  21.480  0.00  0.00    +0.000 HD
ENDROOT
BRANCH   8  14
ATOM     14  O   UNL     1       5.951   6.018  15.056  0.00  0.00    +0.000 OA
ATOM     15  H   UNL     1       6.662   6.632  15.312  0.00  0.00    +0.000 HD
ENDBRANCH   8  14
BRANCH   9  16
ATOM     16  O   UNL     1       6.299   3.512  15.996  0.00  0.00    +0.000 OA
ATOM     17  H   UNL     1       7.183   3.681  16.382  0.00  0.00    +0.000 HD
ENDBRANCH   9  16
BRANCH   2  18
ATOM     18  C   UNL     1       1.634   9.012  19.984  0.00  0.00    +0.000 C 
BRANCH  18  19
ATOM     19  C   UNL     1       0.712  10.225  20.048  0.00  0.00    +0.000 C 
BRANCH  19  20
ATOM     20  N   UNL     1      -0.315  10.174  19.014  0.00  0.00    +0.000 N 
ATOM     21  C   UNL     1      -1.450  10.961  19.062  0.00  0.00    +0.000 C 
ATOM     22  O   UNL     1      -1.703  11.733  19.979  0.00  0.00    +0.000 OA
ATOM     23  H   UNL     1      -0.073   9.723  18.143  0.00  0.00    +0.000 HD
BRANCH  21  24
ATOM     24  C   UNL     1      -2.357  10.870  17.881  0.00  0.00    +0.000 A 
ATOM     25  C   UNL     1      -3.558  11.590  17.817  0.00  0.00    +0.000 A 
ATOM     26  C   UNL     1      -4.400  11.454  16.710  0.00  0.00    +0.000 A 
ATOM     27  C   UNL     1      -4.043  10.609  15.660  0.00  0.00    +0.000 A 
ATOM     28  C   UNL     1      -2.833   9.912  15.703  0.00  0.00    +0.000 A 
ATOM     29  C   UNL     1      -1.989  10.047  16.807  0.00  0.00    +0.000 A 
ENDBRANCH  21  24
ENDBRANCH  19  20
ENDBRANCH  18  19
ENDBRANCH   2  18
TORSDOF 6
ENDMDL
MODEL 4
REMARK VINA RESULT:      -7.0      2.803      3.831
REMARK  Name = 
REMARK  6 active torsions:
REMARK  status: ('A' for Active; 'I' for Inactive)
REMARK    1  A    between atoms: C_2  and  C_3
REMARK    2  A    between atoms: C_3  and  C_4
REMARK    3  A    between atoms: C_4  and  N_5
REMARK    4  A    between atoms: C_6  and  C_8
REMARK    5  A    between atoms: C_19  and  O_20
REMARK    6  A    between atoms: C_21  and  O_22
REMARK                            x       y       z     vdW  Elec       q    Type
REMARK                         _______ _______ _______ _____ _____    ______ ____
ROOT
ATOM      1  O   UNL     1       4.233   4.602  19.340  0.00  0.00    +0.000 OA
ATOM      2  C   UNL     1       3.602   5.626  19.063  0.00  0.00    +0.000 C 
ATOM      3  N   UNL     1       2.865   6.216  20.054  0.00  0.00    +0.000 N 
ATOM      4  C   UNL     1       2.165   7.382  19.939  0.00  0.00    +0.000 A 
ATOM      5  N   UNL     1       2.147   8.203  18.928  0.00  0.00    +0.000 NA
ATOM      6  C   UNL     1       1.263   9.230  19.172  0.00  0.00    +0.000 A 
ATOM      7  C   UNL     1       0.966  10.263  18.263  0.00  0.00    +0.000 A 
ATOM      8  C   UNL     1       0.062  11.244  18.642  0.00  0.00    +0.000 A 
ATOM      9  C   UNL     1      -0.544  11.206  19.893  0.00  0.00    +0.000 A 
ATOM     10  C   UNL     1      -0.272  10.195  20.815  0.00  0.00    +0.000 A 
ATOM     11  C   UNL     1       0.643   9.204  20.426  0.00  0.00    +0.000 A 
ATOM     12  S   UNL     1       1.208   7.809  21.283  0.00  0.00    +0.000 S 
ATOM     13  H   UNL     1       2.828   5.725  20.935  0.00  0.00    +0.000 HD
ENDROOT
BRANCH   8  14
ATOM     14  O   UNL     1      -0.261  12.278  17.804  0.00  0.00    +0.000 OA
ATOM     15  H   UNL     1      -0.835  11.929  17.099  0.00  0.00    +0.000 HD
ENDBRANCH   8  14
BRANCH   9  16
ATOM     16  O   UNL     1      -1.434  12.187  20.233  0.00  0.00    +0.000 OA
ATOM     17  H   UNL     1      -1.134  12.504  21.109  0.00  0.00    +0.000 HD
ENDBRANCH   9  16
BRANCH   2  18
ATOM     18  C   UNL     1       3.670   6.244  17.675  0.00  0.00    +0.000 C 
BRANCH  18  19
ATOM     19  C   UNL     1       5.070   6.741  17.334  0.00  0.00    +0.000 C 
BRANCH  19  20
ATOM     20  N   UNL     1       5.496   6.286  16.015  0.00  0.00    +0.000 N 
ATOM     21  C   UNL     1       6.175   5.097  15.829  0.00  0.00    +0.000 C 
ATOM     22  O   UNL     1       6.502   4.350  16.743  0.00  0.00    +0.000 OA
ATOM     23  H   UNL     1       5.082   6.740  15.213  0.00  0.00    +0.000 HD
BRANCH  21  24
ATOM     24  C   UNL     1       6.452   4.720  14.412  0.00  0.00    +0.000 A 
ATOM     25  C   UNL     1       5.678   3.765  13.739  0.00  0.00    +0.000 A 
ATOM     26  C   UNL     1       5.988   3.411  12.423  0.00  0.00    +0.000 A 
ATOM     27  C   UNL     1       7.062   4.015  11.771  0.00  0.00    +0.000 A 
ATOM     28  C   UNL     1       7.819   4.990  12.425  0.00  0.00    +0.000 A 
ATOM     29  C   UNL     1       7.510   5.346  13.739  0.00  0.00    +0.000 A 
ENDBRANCH  21  24
ENDBRANCH  19  20
ENDBRANCH  18  19
ENDBRANCH   2  18
TORSDOF 6
ENDMDL
MODEL 5
REMARK VINA RESULT:      -6.9      1.018      1.074
REMARK  Name = 
REMARK  6 active torsions:
REMARK  status: ('A' for Active; 'I' for Inactive)
REMARK    1  A    between atoms: C_2  and  C_3
REMARK    2  A    between atoms: C_3  and  C_4
REMARK    3  A    between atoms: C_4  and  N_5
REMARK    4  A    between atoms: C_6  and  C_8
REMARK    5  A    between atoms: C_19  and  O_20
REMARK    6  A    between atoms: C_21  and  O_22
REMARK                            x       y       z     vdW  Elec       q    Type
REMARK                         _______ _______ _______ _____ _____    ______ ____
ROOT
ATOM      1  O   UNL     1       3.613   1.215  18.576  0.00  0.00    +0.000 OA
ATOM      2  C   UNL     1       3.307   2.390  18.358  0.00  0.00    +0.000 C 
ATOM      3  N   UNL     1       3.043   3.197  19.431  0.00  0.00    +0.000 N 
ATOM      4  C   UNL     1       2.756   4.530  19.375  0.00  0.00    +0.000 A 
ATOM      5  N   UNL     1       2.784   5.306  18.329  0.00  0.00    +0.000 NA
ATOM      6  C   UNL     1       2.363   6.571  18.671  0.00  0.00    +0.000 A 
ATOM      7  C   UNL     1       2.226   7.641  17.766  0.00  0.00    +0.000 A 
ATOM      8  C   UNL     1       1.801   8.870  18.247  0.00  0.00    +0.000 A 
ATOM      9  C   UNL     1       1.509   9.041  19.596  0.00  0.00    +0.000 A 
ATOM     10  C   UNL     1       1.633   8.001  20.517  0.00  0.00    +0.000 A 
ATOM     11  C   UNL     1       2.063   6.759  20.024  0.00  0.00    +0.000 A 
ATOM     12  S   UNL     1       2.315   5.258  20.851  0.00  0.00    +0.000 S 
ATOM     13  H   UNL     1       3.044   2.750  20.336  0.00  0.00    +0.000 HD
ENDROOT
BRANCH   8  14
ATOM     14  O   UNL     1       1.657   9.950  17.418  0.00  0.00    +0.000 OA
ATOM     15  H   UNL     1       2.022   9.713  16.546  0.00  0.00    +0.000 HD
ENDBRANCH   8  14
BRANCH   9  16
ATOM     16  O   UNL     1       1.088  10.266  20.037  0.00  0.00    +0.000 OA
ATOM     17  H   UNL     1       1.817  10.878  19.808  0.00  0.00    +0.000 HD
ENDBRANCH   9  16
BRANCH   2  18
ATOM     18  C   UNL     1       3.264   2.944  16.942  0.00  0.00    +0.000 C 
BRANCH  18  19
ATOM     19  C   UNL     1       4.635   2.929  16.275  0.00  0.00    +0.000 C 
BRANCH  19  20
ATOM     20  N   UNL     1       5.564   3.838  16.937  0.00  0.00    +0.000 N 
ATOM     21  C   UNL     1       5.895   5.070  16.405  0.00  0.00    +0.000 C 
ATOM     22  O   UNL     1       5.469   5.484  15.333  0.00  0.00    +0.000 OA
ATOM     23  H   UNL     1       5.783   3.652  17.905  0.00  0.00    +0.000 HD
BRANCH  21  24
ATOM     24  C   UNL     1       6.779   5.928  17.247  0.00  0.00    +0.000 A 
ATOM     25  C   UNL     1       7.328   5.462  18.450  0.00  0.00    +0.000 A 
ATOM     26  C   UNL     1       8.123   6.305  19.231  0.00  0.00    +0.000 A 
ATOM     27  C   UNL     1       8.382   7.609  18.811  0.00  0.00    +0.000 A 
ATOM     28  C   UNL     1       7.863   8.070  17.599  0.00  0.00    +0.000 A 
ATOM     29  C   UNL     1       7.069   7.229  16.816  0.00  0.00    +0.000 A 
ENDBRANCH  21  24
ENDBRANCH  19  20
ENDBRANCH  18  19
ENDBRANCH   2  18
TORSDOF 6
ENDMDL
MODEL 6
REMARK VINA RESULT:      -6.8      2.851      3.892
REMARK  Name = 
REMARK  6 active torsions:
REMARK  status: ('A' for Active; 'I' for Inactive)
REMARK    1  A    between atoms: C_2  and  C_3
REMARK    2  A    between atoms: C_3  and  C_4
REMARK    3  A    between atoms: C_4  and  N_5
REMARK    4  A    between atoms: C_6  and  C_8
REMARK    5  A    between atoms: C_19  and  O_20
REMARK    6  A    between atoms: C_21  and  O_22
REMARK                            x       y       z     vdW  Elec       q    Type
REMARK                         _______ _______ _______ _____ _____    ______ ____
ROOT
ATOM      1  O   UNL     1       3.662   4.515  19.675  0.00  0.00    +0.000 OA
ATOM      2  C   UNL     1       3.172   5.602  19.360  0.00  0.00    +0.000 C 
ATOM      3  N   UNL     1       2.448   6.279  20.304  0.00  0.00    +0.000 N 
ATOM      4  C   UNL     1       1.895   7.517  20.147  0.00  0.00    +0.000 A 
ATOM      5  N   UNL     1       2.034   8.328  19.137  0.00  0.00    +0.000 NA
ATOM      6  C   UNL     1       1.261   9.452  19.327  0.00  0.00    +0.000 A 
ATOM      7  C   UNL     1       1.140  10.506  18.402  0.00  0.00    +0.000 A 
ATOM      8  C   UNL     1       0.334  11.586  18.725  0.00  0.00    +0.000 A 
ATOM      9  C   UNL     1      -0.349  11.626  19.936  0.00  0.00    +0.000 A 
ATOM     10  C   UNL     1      -0.252  10.597  20.872  0.00  0.00    +0.000 A 
ATOM     11  C   UNL     1       0.565   9.505  20.540  0.00  0.00    +0.000 A 
ATOM     12  S   UNL     1       0.912   8.060  21.430  0.00  0.00    +0.000 S 
ATOM     13  H   UNL     1       2.300   5.801  21.181  0.00  0.00    +0.000 HD
ENDROOT
BRANCH   8  14
ATOM     14  O   UNL     1       0.184  12.646  17.870  0.00  0.00    +0.000 OA
ATOM     15  H   UNL     1      -0.242  12.320  17.056  0.00  0.00    +0.000 HD
ENDBRANCH   8  14
BRANCH   9  16
ATOM     16  O   UNL     1      -1.140  12.705  20.221  0.00  0.00    +0.000 OA
ATOM     17  H   UNL     1      -1.927  12.327  20.664  0.00  0.00    +0.000 HD
ENDBRANCH   9  16
BRANCH   2  18
ATOM     18  C   UNL     1       3.396   6.199  17.979  0.00  0.00    +0.000 C 
BRANCH  18  19
ATOM     19  C   UNL     1       4.874   6.261  17.611  0.00  0.00    +0.000 C 
BRANCH  19  20
ATOM     20  N   UNL     1       5.122   5.701  16.288  0.00  0.00    +0.000 N 
ATOM     21  C   UNL     1       6.389   5.636  15.740  0.00  0.00    +0.000 C 
ATOM     22  O   UNL     1       7.393   6.066  16.296  0.00  0.00    +0.000 OA
ATOM     23  H   UNL     1       4.385   5.149  15.872  0.00  0.00    +0.000 HD
BRANCH  21  24
ATOM     24  C   UNL     1       6.495   4.945  14.422  0.00  0.00    +0.000 A 
ATOM     25  C   UNL     1       7.550   5.205  13.536  0.00  0.00    +0.000 A 
ATOM     26  C   UNL     1       7.598   4.565  12.295  0.00  0.00    +0.000 A 
ATOM     27  C   UNL     1       6.603   3.656  11.938  0.00  0.00    +0.000 A 
ATOM     28  C   UNL     1       5.565   3.368  12.828  0.00  0.00    +0.000 A 
ATOM     29  C   UNL     1       5.516   4.006  14.069  0.00  0.00    +0.000 A 
ENDBRANCH  21  24
ENDBRANCH  19  20
ENDBRANCH  18  19
ENDBRANCH   2  18
TORSDOF 6
ENDMDL
MODEL 7
REMARK VINA RESULT:      -6.7      1.070      1.426
REMARK  Name = 
REMARK  6 active torsions:
REMARK  status: ('A' for Active; 'I' for Inactive)
REMARK    1  A    between atoms: C_2  and  C_3
REMARK    2  A    between atoms: C_3  and  C_4
REMARK    3  A    between atoms: C_4  and  N_5
REMARK    4  A    between atoms: C_6  and  C_8
REMARK    5  A    between atoms: C_19  and  O_20
REMARK    6  A    between atoms: C_21  and  O_22
REMARK                            x       y       z     vdW  Elec       q    Type
REMARK                         _______ _______ _______ _____ _____    ______ ____
ROOT
ATOM      1  O   UNL     1       3.578   1.594  18.108  0.00  0.00    +0.000 OA
ATOM      2  C   UNL     1       3.265   2.782  17.985  0.00  0.00    +0.000 C 
ATOM      3  N   UNL     1       2.981   3.493  19.120  0.00  0.00    +0.000 N 
ATOM      4  C   UNL     1       2.684   4.824  19.171  0.00  0.00    +0.000 A 
ATOM      5  N   UNL     1       2.717   5.685  18.194  0.00  0.00    +0.000 NA
ATOM      6  C   UNL     1       2.281   6.914  18.636  0.00  0.00    +0.000 A 
ATOM      7  C   UNL     1       2.145   8.055  17.822  0.00  0.00    +0.000 A 
ATOM      8  C   UNL     1       1.704   9.236  18.400  0.00  0.00    +0.000 A 
ATOM      9  C   UNL     1       1.395   9.291  19.755  0.00  0.00    +0.000 A 
ATOM     10  C   UNL     1       1.517   8.179  20.586  0.00  0.00    +0.000 A 
ATOM     11  C   UNL     1       1.963   6.985  19.997  0.00  0.00    +0.000 A 
ATOM     12  S   UNL     1       2.219   5.422  20.698  0.00  0.00    +0.000 S 
ATOM     13  H   UNL     1       2.976   2.972  19.984  0.00  0.00    +0.000 HD
ENDROOT
BRANCH   8  14
ATOM     14  O   UNL     1       1.561  10.381  17.662  0.00  0.00    +0.000 OA
ATOM     15  H   UNL     1       1.637  11.141  18.266  0.00  0.00    +0.000 HD
ENDBRANCH   8  14
BRANCH   9  16
ATOM     16  O   UNL     1       0.958  10.472  20.291  0.00  0.00    +0.000 OA
ATOM     17  H   UNL     1       1.471  10.575  21.119  0.00  0.00    +0.000 HD
ENDBRANCH   9  16
BRANCH   2  18
ATOM     18  C   UNL     1       3.233   3.452  16.621  0.00  0.00    +0.000 C 
BRANCH  18  19
ATOM     19  C   UNL     1       4.624   3.583  16.011  0.00  0.00    +0.000 C 
BRANCH  19  20
ATOM     20  N   UNL     1       5.483   4.447  16.813  0.00  0.00    +0.000 N 
ATOM     21  C   UNL     1       6.343   5.367  16.243  0.00  0.00    +0.000 C 
ATOM     22  O   UNL     1       6.480   5.511  15.033  0.00  0.00    +0.000 OA
ATOM     23  H   UNL     1       5.271   4.526  17.797  0.00  0.00    +0.000 HD
BRANCH  21  24
ATOM     24  C   UNL     1       7.080   6.248  17.195  0.00  0.00    +0.000 A 
ATOM     25  C   UNL     1       7.286   7.608  16.931  0.00  0.00    +0.000 A 
ATOM     26  C   UNL     1       8.012   8.395  17.829  0.00  0.00    +0.000 A 
ATOM     27  C   UNL     1       8.525   7.831  18.997  0.00  0.00    +0.000 A 
ATOM     28  C   UNL     1       8.297   6.483  19.281  0.00  0.00    +0.000 A 
ATOM     29  C   UNL     1       7.571   5.695  18.386  0.00  0.00    +0.000 A 
ENDBRANCH  21  24
ENDBRANCH  19  20
ENDBRANCH  18  19
ENDBRANCH   2  18
TORSDOF 6
ENDMDL
MODEL 8
REMARK VINA RESULT:      -6.7      3.560      8.415
REMARK  Name = 
REMARK  6 active torsions:
REMARK  status: ('A' for Active; 'I' for Inactive)
REMARK    1  A    between atoms: C_2  and  C_3
REMARK    2  A    between atoms: C_3  and  C_4
REMARK    3  A    between atoms: C_4  and  N_5
REMARK    4  A    between atoms: C_6  and  C_8
REMARK    5  A    between atoms: C_19  and  O_20
REMARK    6  A    between atoms: C_21  and  O_22
REMARK                            x       y       z     vdW  Elec       q    Type
REMARK                         _______ _______ _______ _____ _____    ______ ____
ROOT
ATOM      1  O   UNL     1       1.600  10.521  18.388  0.00  0.00    +0.000 OA
ATOM      2  C   UNL     1       1.737   9.387  18.855  0.00  0.00    +0.000 C 
ATOM      3  N   UNL     1       2.527   8.501  18.174  0.00  0.00    +0.000 N 
ATOM      4  C   UNL     1       2.839   7.236  18.581  0.00  0.00    +0.000 A 
ATOM      5  N   UNL     1       2.547   6.671  19.718  0.00  0.00    +0.000 NA
ATOM      6  C   UNL     1       2.977   5.363  19.717  0.00  0.00    +0.000 A 
ATOM      7  C   UNL     1       2.775   4.454  20.773  0.00  0.00    +0.000 A 
ATOM      8  C   UNL     1       3.271   3.166  20.646  0.00  0.00    +0.000 A 
ATOM      9  C   UNL     1       3.949   2.777  19.495  0.00  0.00    +0.000 A 
ATOM     10  C   UNL     1       4.163   3.653  18.432  0.00  0.00    +0.000 A 
ATOM     11  C   UNL     1       3.658   4.956  18.565  0.00  0.00    +0.000 A 
ATOM     12  S   UNL     1       3.716   6.292  17.465  0.00  0.00    +0.000 S 
ATOM     13  H   UNL     1       2.888   8.817  17.286  0.00  0.00    +0.000 HD
ENDROOT
BRANCH   8  14
ATOM     14  O   UNL     1       3.115   2.239  21.642  0.00  0.00    +0.000 OA
ATOM     15  H   UNL     1       3.865   2.327  22.258  0.00  0.00    +0.000 HD
ENDBRANCH   8  14
BRANCH   9  16
ATOM     16  O   UNL     1       4.422   1.496  19.401  0.00  0.00    +0.000 OA
ATOM     17  H   UNL     1       3.921   0.995  20.076  0.00  0.00    +0.000 HD
ENDBRANCH   9  16
BRANCH   2  18
ATOM     18  C   UNL     1       1.084   8.992  20.171  0.00  0.00    +0.000 C 
BRANCH  18  19
ATOM     19  C   UNL     1      -0.091   9.897  20.525  0.00  0.00    +0.000 C 
BRANCH  19  20
ATOM     20  N   UNL     1      -1.070   9.953  19.447  0.00  0.00    +0.000 N 
ATOM     21  C   UNL     1      -1.605  11.146  18.998  0.00  0.00    +0.000 C 
ATOM     22  O   UNL     1      -1.332  12.238  19.481  0.00  0.00    +0.000 OA
ATOM     23  H   UNL     1      -1.178   9.127  18.875  0.00  0.00    +0.000 HD
BRANCH  21  24
ATOM     24  C   UNL     1      -2.517  11.049  17.820  0.00  0.00    +0.000 A 
ATOM     25  C   UNL     1      -3.799  11.616  17.834  0.00  0.00    +0.000 A 
ATOM     26  C   UNL     1      -4.639  11.475  16.726  0.00  0.00    +0.000 A 
ATOM     27  C   UNL     1      -4.201  10.781  15.599  0.00  0.00    +0.000 A 
ATOM     28  C   UNL     1      -2.913  10.240  15.567  0.00  0.00    +0.000 A 
ATOM     29  C   UNL     1      -2.071  10.380  16.672  0.00  0.00    +0.000 A 
ENDBRANCH  21  24
ENDBRANCH  19  20
ENDBRANCH  18  19
ENDBRANCH   2  18
TORSDOF 6
ENDMDL
MODEL 9
REMARK VINA RESULT:      -6.7      2.689      6.622
REMARK  Name = 
REMARK  6 active torsions:
REMARK  status: ('A' for Active; 'I' for Inactive)
REMARK    1  A    between atoms: C_2  and  C_3
REMARK    2  A    between atoms: C_3  and  C_4
REMARK    3  A    between atoms: C_4  and  N_5
REMARK    4  A    between atoms: C_6  and  C_8
REMARK    5  A    between atoms: C_19  and  O_20
REMARK    6  A    between atoms: C_21  and  O_22
REMARK                            x       y       z     vdW  Elec       q    Type
REMARK                         _______ _______ _______ _____ _____    ______ ____
ROOT
ATOM      1  O   UNL     1       0.839   3.192  20.984  0.00  0.00    +0.000 OA
ATOM      2  C   UNL     1       1.789   3.775  20.455  0.00  0.00    +0.000 C 
ATOM      3  N   UNL     1       2.302   3.253  19.299  0.00  0.00    +0.000 N 
ATOM      4  C   UNL     1       3.303   3.804  18.552  0.00  0.00    +0.000 A 
ATOM      5  N   UNL     1       3.878   4.960  18.722  0.00  0.00    +0.000 NA
ATOM      6  C   UNL     1       4.890   5.121  17.801  0.00  0.00    +0.000 A 
ATOM      7  C   UNL     1       5.745   6.237  17.740  0.00  0.00    +0.000 A 
ATOM      8  C   UNL     1       6.717   6.277  16.752  0.00  0.00    +0.000 A 
ATOM      9  C   UNL     1       6.850   5.232  15.844  0.00  0.00    +0.000 A 
ATOM     10  C   UNL     1       6.020   4.112  15.880  0.00  0.00    +0.000 A 
ATOM     11  C   UNL     1       5.038   4.076  16.883  0.00  0.00    +0.000 A 
ATOM     12  S   UNL     1       3.855   2.863  17.242  0.00  0.00    +0.000 S 
ATOM     13  H   UNL     1       1.912   2.373  18.995  0.00  0.00    +0.000 HD
ENDROOT
BRANCH   8  14
ATOM     14  O   UNL     1       7.573   7.340  16.636  0.00  0.00    +0.000 OA
ATOM     15  H   UNL     1       8.345   7.171  17.206  0.00  0.00    +0.000 HD
ENDBRANCH   8  14
BRANCH   9  16
ATOM     16  O   UNL     1       7.824   5.301  14.885  0.00  0.00    +0.000 OA
ATOM     17  H   UNL     1       8.406   4.535  15.065  0.00  0.00    +0.000 HD
ENDBRANCH   9  16
BRANCH   2  18
ATOM     18  C   UNL     1       2.351   5.061  21.042  0.00  0.00    +0.000 C 
BRANCH  18  19
ATOM     19  C   UNL     1       2.051   6.273  20.167  0.00  0.00    +0.000 C 
BRANCH  19  20
ATOM     20  N   UNL     1       1.437   7.351  20.933  0.00  0.00    +0.000 N 
ATOM     21  C   UNL     1       1.214   8.604  20.395  0.00  0.00    +0.000 C 
ATOM     22  O   UNL     1       1.537   8.922  19.257  0.00  0.00    +0.000 OA
ATOM     23  H   UNL     1       0.966   7.099  21.790  0.00  0.00    +0.000 HD
BRANCH  21  24
ATOM     24  C   UNL     1       0.485   9.569  21.270  0.00  0.00    +0.000 A 
ATOM     25  C   UNL     1      -0.007   9.196  22.528  0.00  0.00    +0.000 A 
ATOM     26  C   UNL     1      -0.715  10.116  23.305  0.00  0.00    +0.000 A 
ATOM     27  C   UNL     1      -0.924  11.413  22.837  0.00  0.00    +0.000 A 
ATOM     28  C   UNL     1      -0.410  11.801  21.597  0.00  0.00    +0.000 A 
ATOM     29  C   UNL     1       0.299  10.883  20.819  0.00  0.00    +0.000 A 
ENDBRANCH  21  24
ENDBRANCH  19  20
ENDBRANCH  18  19
ENDBRANCH   2  18
TORSDOF 6
ENDMDL
