MODEL 1
REMARK VINA RESULT:      -4.8      0.000      0.000
REMARK  Name = 
REMARK  3 active torsions:
REMARK  status: ('A' for Active; 'I' for Inactive)
REMARK    1  A    between atoms: N_1  and  C_2
REMARK    2  A    between atoms: C_6  and  C_7
REMARK    3  A    between atoms: C_7  and  O_9
REMARK                            x       y       z     vdW  Elec       q    Type
REMARK                         _______ _______ _______ _____ _____    ______ ____
ROOT
ATOM      1  C   UNL     1       3.103   1.876  18.070  0.00  0.00    +0.000 C 
ATOM      2  C   UNL     1       1.984   2.027  19.102  0.00  0.00    +0.000 C 
ATOM      3  C   UNL     1       1.136   3.090  18.423  0.00  0.00    +0.000 C 
ATOM      4  C   UNL     1       2.150   4.097  17.847  0.00  0.00    +0.000 C 
ATOM      5  C   UNL     1       3.498   3.336  17.773  0.00  0.00    +0.000 C 
ENDROOT
BRANCH   1   6
ATOM      6  N   UNL     1       4.210   1.022  18.502  0.00  0.00    +0.000 NA
ATOM      7  H   UNL     1       4.003   0.670  19.465  0.00  0.00    +0.000 HD
ATOM      8  H   UNL     1       5.098   1.571  18.552  0.00  0.00    +0.000 HD
ENDBRANCH   1   6
BRANCH   5   9
ATOM      9  C   UNL     1       4.491   3.916  18.779  0.00  0.00    +0.000 C 
ATOM     10  O   UNL     1       4.152   4.788  19.565  0.00  0.00    +0.000 OA
BRANCH   9  11
ATOM     11  O   UNL     1       5.770   3.486  18.806  0.00  0.00    +0.000 OA
ATOM     12  H   UNL     1       6.003   2.577  19.033  0.00  0.00    +0.000 HD
ENDBRANCH   9  11
ENDBRANCH   5   9
TORSDOF 3
ENDMDL
MODEL 2
REMARK VINA RESULT:      -4.8      2.224      2.802
REMARK  Name = 
REMARK  3 active torsions:
REMARK  status: ('A' for Active; 'I' for Inactive)
REMARK    1  A    between atoms: N_1  and  C_2
REMARK    2  A    between atoms: C_6  and  C_7
REMARK    3  A    between atoms: C_7  and  O_9
REMARK                            x       y       z     vdW  Elec       q    Type
REMARK                         _______ _______ _______ _____ _____    ______ ____
ROOT
ATOM      1  C   UNL     1       3.956   2.976  19.167  0.00  0.00    +0.000 C 
ATOM      2  C   UNL     1       3.097   2.288  18.105  0.00  0.00    +0.000 C 
ATOM      3  C   UNL     1       2.298   3.477  17.597  0.00  0.00    +0.000 C 
ATOM      4  C   UNL     1       1.930   4.277  18.861  0.00  0.00    +0.000 C 
ATOM      5  C   UNL     1       2.929   3.815  19.952  0.00  0.00    +0.000 C 
ENDROOT
BRANCH   1   6
ATOM      6  N   UNL     1       4.748   2.058  19.988  0.00  0.00    +0.000 NA
ATOM      7  H   UNL     1       5.759   2.191  19.755  0.00  0.00    +0.000 HD
ATOM      8  H   UNL     1       4.501   1.067  19.768  0.00  0.00    +0.000 HD
ENDBRANCH   1   6
BRANCH   5   9
ATOM      9  C   UNL     1       2.200   3.025  21.039  0.00  0.00    +0.000 C 
ATOM     10  O   UNL     1       2.813   2.528  21.971  0.00  0.00    +0.000 OA
BRANCH   9  11
ATOM     11  O   UNL     1       0.863   2.848  20.978  0.00  0.00    +0.000 OA
ATOM     12  H   UNL     1       0.240   3.557  21.184  0.00  0.00    +0.000 HD
ENDBRANCH   9  11
ENDBRANCH   5   9
TORSDOF 3
ENDMDL
MODEL 3
REMARK VINA RESULT:      -4.8      4.197      5.145
REMARK  Name = 
REMARK  3 active torsions:
REMARK  status: ('A' for Active; 'I' for Inactive)
REMARK    1  A    between atoms: N_1  and  C_2
REMARK    2  A    between atoms: C_6  and  C_7
REMARK    3  A    between atoms: C_7  and  O_9
REMARK                            x       y       z     vdW  Elec       q    Type
REMARK                         _______ _______ _______ _____ _____    ______ ____
ROOT
ATOM      1  C   UNL     1       6.356   5.303  18.727  0.00  0.00    +0.000 C 
ATOM      2  C   UNL     1       7.822   5.570  19.074  0.00  0.00    +0.000 C 
ATOM      3  C   UNL     1       7.978   6.973  18.511  0.00  0.00    +0.000 C 
ATOM      4  C   UNL     1       7.224   6.949  17.169  0.00  0.00    +0.000 C 
ATOM      5  C   UNL     1       6.267   5.733  17.250  0.00  0.00    +0.000 C 
ENDROOT
BRANCH   1   6
ATOM      6  N   UNL     1       5.915   3.933  18.991  0.00  0.00    +0.000 NA
ATOM      7  H   UNL     1       6.562   3.503  19.691  0.00  0.00    +0.000 HD
ATOM      8  H   UNL     1       5.968   3.358  18.119  0.00  0.00    +0.000 HD
ENDBRANCH   1   6
BRANCH   5   9
ATOM      9  C   UNL     1       6.706   4.644  16.270  0.00  0.00    +0.000 C 
ATOM     10  O   UNL     1       7.680   4.804  15.550  0.00  0.00    +0.000 OA
BRANCH   9  11
ATOM     11  O   UNL     1       6.013   3.491  16.171  0.00  0.00    +0.000 OA
ATOM     12  H   UNL     1       5.105   3.463  15.843  0.00  0.00    +0.000 HD
ENDBRANCH   9  11
ENDBRANCH   5   9
TORSDOF 3
ENDMDL
MODEL 4
REMARK VINA RESULT:      -4.8      4.709      5.194
REMARK  Name = 
REMARK  3 active torsions:
REMARK  status: ('A' for Active; 'I' for Inactive)
REMARK    1  A    between atoms: N_1  and  C_2
REMARK    2  A    between atoms: C_6  and  C_7
REMARK    3  A    between atoms: C_7  and  O_9
REMARK                            x       y       z     vdW  Elec       q    Type
REMARK                         _______ _______ _______ _____ _____    ______ ____
ROOT
ATOM      1  C   UNL     1       6.884   4.965  17.485  0.00  0.00    +0.000 C 
ATOM      2  C   UNL     1       7.178   6.464  17.413  0.00  0.00    +0.000 C 
ATOM      3  C   UNL     1       5.775   7.001  17.185  0.00  0.00    +0.000 C 
ATOM      4  C   UNL     1       5.136   6.027  16.178  0.00  0.00    +0.000 C 
ATOM      5  C   UNL     1       5.982   4.731  16.257  0.00  0.00    +0.000 C 
ENDROOT
BRANCH   1   6
ATOM      6  N   UNL     1       8.077   4.119  17.534  0.00  0.00    +0.000 NA
ATOM      7  H   UNL     1       8.474   4.046  16.569  0.00  0.00    +0.000 HD
ATOM      8  H   UNL     1       7.827   3.153  17.845  0.00  0.00    +0.000 HD
ENDBRANCH   1   6
BRANCH   5   9
ATOM      9  C   UNL     1       6.762   4.526  14.958  0.00  0.00    +0.000 C 
ATOM     10  O   UNL     1       7.678   5.274  14.651  0.00  0.00    +0.000 OA
BRANCH   9  11
ATOM     11  O   UNL     1       6.439   3.523  14.115  0.00  0.00    +0.000 OA
ATOM     12  H   UNL     1       5.950   2.743  14.407  0.00  0.00    +0.000 HD
ENDBRANCH   9  11
ENDBRANCH   5   9
TORSDOF 3
ENDMDL
MODEL 5
REMARK VINA RESULT:      -4.8      2.112      2.472
REMARK  Name = 
REMARK  3 active torsions:
REMARK  status: ('A' for Active; 'I' for Inactive)
REMARK    1  A    between atoms: N_1  and  C_2
REMARK    2  A    between atoms: C_6  and  C_7
REMARK    3  A    between atoms: C_7  and  O_9
REMARK                            x       y       z     vdW  Elec       q    Type
REMARK                         _______ _______ _______ _____ _____    ______ ____
ROOT
ATOM      1  C   UNL     1       2.054   2.865  20.614  0.00  0.00    +0.000 C 
ATOM      2  C   UNL     1       1.971   4.336  20.202  0.00  0.00    +0.000 C 
ATOM      3  C   UNL     1       1.652   4.181  18.724  0.00  0.00    +0.000 C 
ATOM      4  C   UNL     1       2.549   3.025  18.243  0.00  0.00    +0.000 C 
ATOM      5  C   UNL     1       2.954   2.251  19.523  0.00  0.00    +0.000 C 
ENDROOT
BRANCH   1   6
ATOM      6  N   UNL     1       2.523   2.649  21.983  0.00  0.00    +0.000 NA
ATOM      7  H   UNL     1       1.778   2.144  22.515  0.00  0.00    +0.000 HD
ATOM      8  H   UNL     1       2.687   3.563  22.462  0.00  0.00    +0.000 HD
ENDBRANCH   1   6
BRANCH   5   9
ATOM      9  C   UNL     1       4.448   2.422  19.797  0.00  0.00    +0.000 C 
ATOM     10  O   UNL     1       5.001   1.782  20.678  0.00  0.00    +0.000 OA
BRANCH   9  11
ATOM     11  O   UNL     1       5.180   3.301  19.081  0.00  0.00    +0.000 OA
ATOM     12  H   UNL     1       4.858   4.185  18.865  0.00  0.00    +0.000 HD
ENDBRANCH   9  11
ENDBRANCH   5   9
TORSDOF 3
ENDMDL
MODEL 6
REMARK VINA RESULT:      -4.7      2.204      2.638
REMARK  Name = 
REMARK  3 active torsions:
REMARK  status: ('A' for Active; 'I' for Inactive)
REMARK    1  A    between atoms: N_1  and  C_2
REMARK    2  A    between atoms: C_6  and  C_7
REMARK    3  A    between atoms: C_7  and  O_9
REMARK                            x       y       z     vdW  Elec       q    Type
REMARK                         _______ _______ _______ _____ _____    ______ ____
ROOT
ATOM      1  C   UNL     1       4.091   2.893  19.076  0.00  0.00    +0.000 C 
ATOM      2  C   UNL     1       3.308   2.159  17.986  0.00  0.00    +0.000 C 
ATOM      3  C   UNL     1       2.517   3.316  17.400  0.00  0.00    +0.000 C 
ATOM      4  C   UNL     1       2.061   4.142  18.618  0.00  0.00    +0.000 C 
ATOM      5  C   UNL     1       3.004   3.731  19.777  0.00  0.00    +0.000 C 
ENDROOT
BRANCH   1   6
ATOM      6  N   UNL     1       4.852   2.015  19.966  0.00  0.00    +0.000 NA
ATOM      7  H   UNL     1       4.234   1.225  20.263  0.00  0.00    +0.000 HD
ATOM      8  H   UNL     1       5.141   2.530  20.828  0.00  0.00    +0.000 HD
ENDBRANCH   1   6
BRANCH   5   9
ATOM      9  C   UNL     1       2.229   2.955  20.842  0.00  0.00    +0.000 C 
ATOM     10  O   UNL     1       1.040   2.714  20.702  0.00  0.00    +0.000 OA
BRANCH   9  11
ATOM     11  O   UNL     1       2.844   2.538  21.969  0.00  0.00    +0.000 OA
ATOM     12  H   UNL     1       3.751   2.788  22.184  0.00  0.00    +0.000 HD
ENDBRANCH   9  11
ENDBRANCH   5   9
TORSDOF 3
ENDMDL
MODEL 7
REMARK VINA RESULT:      -4.7      3.916      4.211
REMARK  Name = 
REMARK  3 active torsions:
REMARK  status: ('A' for Active; 'I' for Inactive)
REMARK    1  A    between atoms: N_1  and  C_2
REMARK    2  A    between atoms: C_6  and  C_7
REMARK    3  A    between atoms: C_7  and  O_9
REMARK                            x       y       z     vdW  Elec       q    Type
REMARK                         _______ _______ _______ _____ _____    ______ ____
ROOT
ATOM      1  C   UNL     1       7.237   4.956  16.858  0.00  0.00    +0.000 C 
ATOM      2  C   UNL     1       6.023   4.245  16.257  0.00  0.00    +0.000 C 
ATOM      3  C   UNL     1       5.216   5.444  15.789  0.00  0.00    +0.000 C 
ATOM      4  C   UNL     1       5.348   6.478  16.923  0.00  0.00    +0.000 C 
ATOM      5  C   UNL     1       6.597   6.050  17.735  0.00  0.00    +0.000 C 
ENDROOT
BRANCH   1   6
ATOM      6  N   UNL     1       8.162   4.071  17.568  0.00  0.00    +0.000 NA
ATOM      7  H   UNL     1       7.747   3.112  17.602  0.00  0.00    +0.000 HD
ATOM      8  H   UNL     1       8.292   4.393  18.554  0.00  0.00    +0.000 HD
ENDBRANCH   1   6
BRANCH   5   9
ATOM      9  C   UNL     1       6.185   5.557  19.122  0.00  0.00    +0.000 C 
ATOM     10  O   UNL     1       5.009   5.390  19.405  0.00  0.00    +0.000 OA
BRANCH   9  11
ATOM     11  O   UNL     1       7.117   5.315  20.068  0.00  0.00    +0.000 OA
ATOM     12  H   UNL     1       7.749   5.988  20.352  0.00  0.00    +0.000 HD
ENDBRANCH   9  11
ENDBRANCH   5   9
TORSDOF 3
ENDMDL
MODEL 8
REMARK VINA RESULT:      -4.6      4.833      5.310
REMARK  Name = 
REMARK  3 active torsions:
REMARK  status: ('A' for Active; 'I' for Inactive)
REMARK    1  A    between atoms: N_1  and  C_2
REMARK    2  A    between atoms: C_6  and  C_7
REMARK    3  A    between atoms: C_7  and  O_9
REMARK                            x       y       z     vdW  Elec       q    Type
REMARK                         _______ _______ _______ _____ _____    ______ ____
ROOT
ATOM      1  C   UNL     1       6.865   4.972  17.261  0.00  0.00    +0.000 C 
ATOM      2  C   UNL     1       7.160   6.472  17.267  0.00  0.00    +0.000 C 
ATOM      3  C   UNL     1       5.756   7.021  17.068  0.00  0.00    +0.000 C 
ATOM      4  C   UNL     1       5.116   6.100  16.012  0.00  0.00    +0.000 C 
ATOM      5  C   UNL     1       5.962   4.802  16.023  0.00  0.00    +0.000 C 
ENDROOT
BRANCH   1   6
ATOM      6  N   UNL     1       8.058   4.123  17.265  0.00  0.00    +0.000 NA
ATOM      7  H   UNL     1       8.084   3.581  16.371  0.00  0.00    +0.000 HD
ATOM      8  H   UNL     1       8.013   3.434  18.050  0.00  0.00    +0.000 HD
ENDBRANCH   1   6
BRANCH   5   9
ATOM      9  C   UNL     1       6.740   4.664  14.715  0.00  0.00    +0.000 C 
ATOM     10  O   UNL     1       6.430   3.822  13.886  0.00  0.00    +0.000 OA
BRANCH   9  11
ATOM     11  O   UNL     1       7.800   5.461  14.460  0.00  0.00    +0.000 OA
ATOM     12  H   UNL     1       7.826   6.386  14.734  0.00  0.00    +0.000 HD
ENDBRANCH   9  11
ENDBRANCH   5   9
TORSDOF 3
ENDMDL
MODEL 9
REMARK VINA RESULT:      -4.6      3.838      4.281
REMARK  Name = 
REMARK  3 active torsions:
REMARK  status: ('A' for Active; 'I' for Inactive)
REMARK    1  A    between atoms: N_1  and  C_2
REMARK    2  A    between atoms: C_6  and  C_7
REMARK    3  A    between atoms: C_7  and  O_9
REMARK                            x       y       z     vdW  Elec       q    Type
REMARK                         _______ _______ _______ _____ _____    ______ ____
ROOT
ATOM      1  C   UNL     1       7.214   4.950  16.925  0.00  0.00    +0.000 C 
ATOM      2  C   UNL     1       5.922   4.298  16.431  0.00  0.00    +0.000 C 
ATOM      3  C   UNL     1       5.127   5.536  16.049  0.00  0.00    +0.000 C 
ATOM      4  C   UNL     1       5.406   6.549  17.176  0.00  0.00    +0.000 C 
ATOM      5  C   UNL     1       6.703   6.058  17.866  0.00  0.00    +0.000 C 
ENDROOT
BRANCH   1   6
ATOM      6  N   UNL     1       8.162   4.018  17.539  0.00  0.00    +0.000 NA
ATOM      7  H   UNL     1       7.773   3.704  18.458  0.00  0.00    +0.000 HD
ATOM      8  H   UNL     1       9.072   4.496  17.730  0.00  0.00    +0.000 HD
ENDBRANCH   1   6
BRANCH   5   9
ATOM      9  C   UNL     1       6.399   5.565  19.281  0.00  0.00    +0.000 C 
ATOM     10  O   UNL     1       7.300   5.355  20.079  0.00  0.00    +0.000 OA
BRANCH   9  11
ATOM     11  O   UNL     1       5.127   5.335  19.668  0.00  0.00    +0.000 OA
ATOM     12  H   UNL     1       4.701   4.477  19.552  0.00  0.00    +0.000 HD
ENDBRANCH   9  11
ENDBRANCH   5   9
TORSDOF 3
ENDMDL
