MODEL 1
REMARK VINA RESULT:      -7.4      0.000      0.000
REMARK  Name = 
REMARK  9 active torsions:
REMARK  status: ('A' for Active; 'I' for Inactive)
REMARK    1  A    between atoms: C_1  and  C_2
REMARK    2  A    between atoms: C_2  and  C_3
REMARK    3  A    between atoms: C_5  and  C_6
REMARK    4  A    between atoms: C_8  and  C_9
REMARK    5  A    between atoms: C_9  and  N_10
REMARK    6  A    between atoms: C_13  and  O_14
REMARK    7  A    between atoms: C_13  and  C_15
REMARK    8  A    between atoms: C_15  and  C_16
REMARK    9  A    between atoms: C_17  and  O_18
REMARK                            x       y       z     vdW  Elec       q    Type
REMARK                         _______ _______ _______ _____ _____    ______ ____
ROOT
ATOM      1  N   UNL     1       5.007   3.914  19.262  0.00  0.00    +0.000 NA
ATOM      2  C   UNL     1       4.137   5.056  19.504  0.00  0.00    +0.000 C 
ATOM      3  C   UNL     1       2.659   5.041  19.074  0.00  0.00    +0.000 C 
ATOM      4  C   UNL     1       1.984   3.708  18.703  0.00  0.00    +0.000 C 
ATOM      5  C   UNL     1       2.995   2.576  18.385  0.00  0.00    +0.000 C 
ATOM      6  C   UNL     1       4.305   2.637  19.184  0.00  0.00    +0.000 C 
ENDROOT
BRANCH   4   7
ATOM      7  O   UNL     1       1.292   3.967  17.444  0.00  0.00    +0.000 OA
ATOM      8  H   UNL     1       1.955   4.287  16.795  0.00  0.00    +0.000 HD
ENDBRANCH   4   7
BRANCH   4   9
ATOM      9  C   UNL     1       0.823   3.303  19.665  0.00  0.00    +0.000 C 
ATOM     10  C   UNL     1       1.170   3.118  21.130  0.00  0.00    +0.000 C 
ENDBRANCH   4   9
BRANCH   5  11
ATOM     11  O   UNL     1       2.381   1.289  18.589  0.00  0.00    +0.000 OA
ATOM     12  H   UNL     1       2.447   0.776  17.766  0.00  0.00    +0.000 HD
ENDBRANCH   5  11
BRANCH   1  13
ATOM     13  C   UNL     1       6.068   4.085  18.258  0.00  0.00    +0.000 C 
BRANCH  13  19
ATOM     14  C   UNL     1       6.213   6.272  16.820  0.00  0.00    +0.000 A 
ATOM     15  N   UNL     1       6.832   7.513  16.762  0.00  0.00    +0.000 NA
ATOM     16  C   UNL     1       7.637   7.676  17.777  0.00  0.00    +0.000 A 
ATOM     17  C   UNL     1       8.415   8.933  18.002  0.00  0.00    +0.000 C 
ATOM     18  S   UNL     1       7.748   6.345  18.845  0.00  0.00    +0.000 S 
ATOM     19  C   UNL     1       6.555   5.487  17.929  0.00  0.00    +0.000 A 
BRANCH  14  21
ATOM     20  C   UNL     1       5.654   4.991  14.673  0.00  0.00    +0.000 C 
ATOM     21  C   UNL     1       5.224   5.995  15.728  0.00  0.00    +0.000 C 
ENDBRANCH  14  21
ENDBRANCH  13  19
ENDBRANCH   1  13
TORSDOF 6
ENDMDL
MODEL 2
REMARK VINA RESULT:      -7.1      1.651      2.799
REMARK  Name = 
REMARK  9 active torsions:
REMARK  status: ('A' for Active; 'I' for Inactive)
REMARK    1  A    between atoms: C_1  and  C_2
REMARK    2  A    between atoms: C_2  and  C_3
REMARK    3  A    between atoms: C_5  and  C_6
REMARK    4  A    between atoms: C_8  and  C_9
REMARK    5  A    between atoms: C_9  and  N_10
REMARK    6  A    between atoms: C_13  and  O_14
REMARK    7  A    between atoms: C_13  and  C_15
REMARK    8  A    between atoms: C_15  and  C_16
REMARK    9  A    between atoms: C_17  and  O_18
REMARK                            x       y       z     vdW  Elec       q    Type
REMARK                         _______ _______ _______ _____ _____    ______ ____
ROOT
ATOM      1  N   UNL     1       4.166   5.586  19.016  0.00  0.00    +0.000 NA
ATOM      2  C   UNL     1       2.883   5.799  19.669  0.00  0.00    +0.000 C 
ATOM      3  C   UNL     1       1.749   4.765  19.562  0.00  0.00    +0.000 C 
ATOM      4  C   UNL     1       2.057   3.340  19.065  0.00  0.00    +0.000 C 
ATOM      5  C   UNL     1       3.408   3.232  18.311  0.00  0.00    +0.000 C 
ATOM      6  C   UNL     1       4.506   4.181  18.816  0.00  0.00    +0.000 C 
ENDROOT
BRANCH   4   7
ATOM      7  O   UNL     1       1.036   3.056  18.062  0.00  0.00    +0.000 OA
ATOM      8  H   UNL     1       1.083   2.100  17.844  0.00  0.00    +0.000 HD
ENDBRANCH   4   7
BRANCH   4   9
ATOM      9  C   UNL     1       1.811   2.235  20.139  0.00  0.00    +0.000 C 
ATOM     10  C   UNL     1       1.811   2.668  21.593  0.00  0.00    +0.000 C 
ENDBRANCH   4   9
BRANCH   5  11
ATOM     11  O   UNL     1       3.898   1.879  18.361  0.00  0.00    +0.000 OA
ATOM     12  H   UNL     1       3.204   1.282  18.034  0.00  0.00    +0.000 HD
ENDBRANCH   5  11
BRANCH   1  13
ATOM     13  C   UNL     1       4.486   6.454  17.873  0.00  0.00    +0.000 C 
BRANCH  13  19
ATOM     14  C   UNL     1       6.871   6.194  16.816  0.00  0.00    +0.000 A 
ATOM     15  N   UNL     1       7.540   5.653  15.727  0.00  0.00    +0.000 NA
ATOM     16  C   UNL     1       6.704   5.051  14.923  0.00  0.00    +0.000 A 
ATOM     17  C   UNL     1       7.142   4.341  13.682  0.00  0.00    +0.000 C 
ATOM     18  S   UNL     1       5.059   5.128  15.385  0.00  0.00    +0.000 S 
ATOM     19  C   UNL     1       5.487   5.973  16.836  0.00  0.00    +0.000 A 
BRANCH  14  21
ATOM     20  C   UNL     1       7.869   8.375  17.714  0.00  0.00    +0.000 C 
ATOM     21  C   UNL     1       7.739   6.867  17.835  0.00  0.00    +0.000 C 
ENDBRANCH  14  21
ENDBRANCH  13  19
ENDBRANCH   1  13
TORSDOF 6
ENDMDL
MODEL 3
REMARK VINA RESULT:      -7.0      2.171      3.104
REMARK  Name = 
REMARK  9 active torsions:
REMARK  status: ('A' for Active; 'I' for Inactive)
REMARK    1  A    between atoms: C_1  and  C_2
REMARK    2  A    between atoms: C_2  and  C_3
REMARK    3  A    between atoms: C_5  and  C_6
REMARK    4  A    between atoms: C_8  and  C_9
REMARK    5  A    between atoms: C_9  and  N_10
REMARK    6  A    between atoms: C_13  and  O_14
REMARK    7  A    between atoms: C_13  and  C_15
REMARK    8  A    between atoms: C_15  and  C_16
REMARK    9  A    between atoms: C_17  and  O_18
REMARK                            x       y       z     vdW  Elec       q    Type
REMARK                         _______ _______ _______ _____ _____    ______ ____
ROOT
ATOM      1  N   UNL     1       4.272   4.005  17.611  0.00  0.00    +0.000 NA
ATOM      2  C   UNL     1       2.910   4.369  17.249  0.00  0.00    +0.000 C 
ATOM      3  C   UNL     1       1.699   3.719  17.940  0.00  0.00    +0.000 C 
ATOM      4  C   UNL     1       1.894   2.942  19.254  0.00  0.00    +0.000 C 
ATOM      5  C   UNL     1       3.366   2.528  19.510  0.00  0.00    +0.000 C 
ATOM      6  C   UNL     1       4.415   3.517  18.979  0.00  0.00    +0.000 C 
ENDROOT
BRANCH   4   7
ATOM      7  O   UNL     1       1.172   1.687  19.066  0.00  0.00    +0.000 OA
ATOM      8  H   UNL     1       1.425   1.080  19.796  0.00  0.00    +0.000 HD
ENDBRANCH   4   7
BRANCH   4   9
ATOM      9  C   UNL     1       1.167   3.584  20.477  0.00  0.00    +0.000 C 
ATOM     10  C   UNL     1       1.396   5.064  20.721  0.00  0.00    +0.000 C 
ENDBRANCH   4   9
BRANCH   5  11
ATOM     11  O   UNL     1       3.587   2.323  20.918  0.00  0.00    +0.000 OA
ATOM     12  H   UNL     1       3.028   1.586  21.219  0.00  0.00    +0.000 HD
ENDBRANCH   5  11
BRANCH   1  13
ATOM     13  C   UNL     1       5.048   3.250  16.615  0.00  0.00    +0.000 C 
BRANCH  13  19
ATOM     14  C   UNL     1       6.973   4.938  16.048  0.00  0.00    +0.000 A 
ATOM     15  N   UNL     1       7.678   5.488  14.987  0.00  0.00    +0.000 NA
ATOM     16  C   UNL     1       7.250   5.009  13.849  0.00  0.00    +0.000 A 
ATOM     17  C   UNL     1       7.848   5.391  12.533  0.00  0.00    +0.000 C 
ATOM     18  S   UNL     1       5.947   3.908  13.962  0.00  0.00    +0.000 S 
ATOM     19  C   UNL     1       5.994   4.001  15.691  0.00  0.00    +0.000 A 
BRANCH  14  21
ATOM     20  C   UNL     1       7.396   6.873  17.672  0.00  0.00    +0.000 C 
ATOM     21  C   UNL     1       7.415   5.377  17.411  0.00  0.00    +0.000 C 
ENDBRANCH  14  21
ENDBRANCH  13  19
ENDBRANCH   1  13
TORSDOF 6
ENDMDL
MODEL 4
REMARK VINA RESULT:      -6.9      1.351      2.573
REMARK  Name = 
REMARK  9 active torsions:
REMARK  status: ('A' for Active; 'I' for Inactive)
REMARK    1  A    between atoms: C_1  and  C_2
REMARK    2  A    between atoms: C_2  and  C_3
REMARK    3  A    between atoms: C_5  and  C_6
REMARK    4  A    between atoms: C_8  and  C_9
REMARK    5  A    between atoms: C_9  and  N_10
REMARK    6  A    between atoms: C_13  and  O_14
REMARK    7  A    between atoms: C_13  and  C_15
REMARK    8  A    between atoms: C_15  and  C_16
REMARK    9  A    between atoms: C_17  and  O_18
REMARK                            x       y       z     vdW  Elec       q    Type
REMARK                         _______ _______ _______ _____ _____    ______ ____
ROOT
ATOM      1  N   UNL     1       4.869   4.408  19.475  0.00  0.00    +0.000 NA
ATOM      2  C   UNL     1       3.779   5.331  19.194  0.00  0.00    +0.000 C 
ATOM      3  C   UNL     1       2.550   4.892  18.378  0.00  0.00    +0.000 C 
ATOM      4  C   UNL     1       2.281   3.394  18.146  0.00  0.00    +0.000 C 
ATOM      5  C   UNL     1       3.525   2.502  18.393  0.00  0.00    +0.000 C 
ATOM      6  C   UNL     1       4.470   3.004  19.495  0.00  0.00    +0.000 C 
ENDROOT
BRANCH   4   7
ATOM      7  O   UNL     1       2.002   3.273  16.718  0.00  0.00    +0.000 OA
ATOM      8  H   UNL     1       1.526   2.427  16.573  0.00  0.00    +0.000 HD
ENDBRANCH   4   7
BRANCH   4   9
ATOM      9  C   UNL     1       0.962   2.883  18.805  0.00  0.00    +0.000 C 
ATOM     10  C   UNL     1       0.735   3.234  20.264  0.00  0.00    +0.000 C 
ENDBRANCH   4   9
BRANCH   5  11
ATOM     11  O   UNL     1       3.117   1.156  18.703  0.00  0.00    +0.000 OA
ATOM     12  H   UNL     1       3.410   0.567  17.987  0.00  0.00    +0.000 HD
ENDBRANCH   5  11
BRANCH   1  13
ATOM     13  C   UNL     1       6.151   4.664  18.801  0.00  0.00    +0.000 C 
BRANCH  13  19
ATOM     14  C   UNL     1       6.236   6.076  16.594  0.00  0.00    +0.000 A 
ATOM     15  N   UNL     1       6.209   5.960  15.211  0.00  0.00    +0.000 NA
ATOM     16  C   UNL     1       6.103   4.708  14.853  0.00  0.00    +0.000 A 
ATOM     17  C   UNL     1       6.087   4.272  13.423  0.00  0.00    +0.000 C 
ATOM     18  S   UNL     1       5.982   3.587  16.139  0.00  0.00    +0.000 S 
ATOM     19  C   UNL     1       6.166   4.864  17.294  0.00  0.00    +0.000 A 
BRANCH  14  21
ATOM     20  C   UNL     1       7.790   7.824  17.639  0.00  0.00    +0.000 C 
ATOM     21  C   UNL     1       6.408   7.469  17.120  0.00  0.00    +0.000 C 
ENDBRANCH  14  21
ENDBRANCH  13  19
ENDBRANCH   1  13
TORSDOF 6
ENDMDL
MODEL 5
REMARK VINA RESULT:      -6.6      1.409      2.151
REMARK  Name = 
REMARK  9 active torsions:
REMARK  status: ('A' for Active; 'I' for Inactive)
REMARK    1  A    between atoms: C_1  and  C_2
REMARK    2  A    between atoms: C_2  and  C_3
REMARK    3  A    between atoms: C_5  and  C_6
REMARK    4  A    between atoms: C_8  and  C_9
REMARK    5  A    between atoms: C_9  and  N_10
REMARK    6  A    between atoms: C_13  and  O_14
REMARK    7  A    between atoms: C_13  and  C_15
REMARK    8  A    between atoms: C_15  and  C_16
REMARK    9  A    between atoms: C_17  and  O_18
REMARK                            x       y       z     vdW  Elec       q    Type
REMARK                         _______ _______ _______ _____ _____    ______ ____
ROOT
ATOM      1  N   UNL     1       4.459   3.940  18.174  0.00  0.00    +0.000 NA
ATOM      2  C   UNL     1       3.976   2.568  18.234  0.00  0.00    +0.000 C 
ATOM      3  C   UNL     1       3.208   2.044  19.460  0.00  0.00    +0.000 C 
ATOM      4  C   UNL     1       2.631   3.038  20.483  0.00  0.00    +0.000 C 
ATOM      5  C   UNL     1       3.266   4.450  20.393  0.00  0.00    +0.000 C 
ATOM      6  C   UNL     1       3.685   4.879  18.979  0.00  0.00    +0.000 C 
ENDROOT
BRANCH   4   7
ATOM      7  O   UNL     1       3.034   2.521  21.788  0.00  0.00    +0.000 OA
ATOM      8  H   UNL     1       3.060   1.541  21.729  0.00  0.00    +0.000 HD
ENDBRANCH   4   7
BRANCH   4   9
ATOM      9  C   UNL     1       1.072   3.021  20.566  0.00  0.00    +0.000 C 
ATOM     10  C   UNL     1       0.312   2.836  19.266  0.00  0.00    +0.000 C 
ENDBRANCH   4   9
BRANCH   5  11
ATOM     11  O   UNL     1       2.367   5.435  20.935  0.00  0.00    +0.000 OA
ATOM     12  H   UNL     1       2.163   6.088  20.244  0.00  0.00    +0.000 HD
ENDBRANCH   5  11
BRANCH   1  13
ATOM     13  C   UNL     1       5.915   4.139  18.243  0.00  0.00    +0.000 C 
BRANCH  13  19
ATOM     14  C   UNL     1       6.247   6.308  16.808  0.00  0.00    +0.000 A 
ATOM     15  N   UNL     1       6.929   7.516  16.781  0.00  0.00    +0.000 NA
ATOM     16  C   UNL     1       7.684   7.645  17.839  0.00  0.00    +0.000 A 
ATOM     17  C   UNL     1       8.509   8.864  18.102  0.00  0.00    +0.000 C 
ATOM     18  S   UNL     1       7.670   6.316  18.915  0.00  0.00    +0.000 S 
ATOM     19  C   UNL     1       6.488   5.513  17.937  0.00  0.00    +0.000 A 
BRANCH  14  21
ATOM     20  C   UNL     1       5.669   4.940  14.721  0.00  0.00    +0.000 C 
ATOM     21  C   UNL     1       5.307   6.073  15.665  0.00  0.00    +0.000 C 
ENDBRANCH  14  21
ENDBRANCH  13  19
ENDBRANCH   1  13
TORSDOF 6
ENDMDL
MODEL 6
REMARK VINA RESULT:      -6.6      2.010      3.301
REMARK  Name = 
REMARK  9 active torsions:
REMARK  status: ('A' for Active; 'I' for Inactive)
REMARK    1  A    between atoms: C_1  and  C_2
REMARK    2  A    between atoms: C_2  and  C_3
REMARK    3  A    between atoms: C_5  and  C_6
REMARK    4  A    between atoms: C_8  and  C_9
REMARK    5  A    between atoms: C_9  and  N_10
REMARK    6  A    between atoms: C_13  and  O_14
REMARK    7  A    between atoms: C_13  and  C_15
REMARK    8  A    between atoms: C_15  and  C_16
REMARK    9  A    between atoms: C_17  and  O_18
REMARK                            x       y       z     vdW  Elec       q    Type
REMARK                         _______ _______ _______ _____ _____    ______ ____
ROOT
ATOM      1  N   UNL     1       4.194   3.858  18.251  0.00  0.00    +0.000 NA
ATOM      2  C   UNL     1       3.692   2.497  18.370  0.00  0.00    +0.000 C 
ATOM      3  C   UNL     1       2.976   2.018  19.645  0.00  0.00    +0.000 C 
ATOM      4  C   UNL     1       2.468   3.048  20.670  0.00  0.00    +0.000 C 
ATOM      5  C   UNL     1       3.122   4.445  20.512  0.00  0.00    +0.000 C 
ATOM      6  C   UNL     1       3.478   4.831  19.069  0.00  0.00    +0.000 C 
ENDROOT
BRANCH   4   7
ATOM      7  O   UNL     1       2.926   2.556  21.966  0.00  0.00    +0.000 OA
ATOM      8  H   UNL     1       2.322   2.909  22.654  0.00  0.00    +0.000 HD
ENDBRANCH   4   7
BRANCH   4   9
ATOM      9  C   UNL     1       0.915   3.061  20.830  0.00  0.00    +0.000 C 
ATOM     10  C   UNL     1       0.088   3.088  19.558  0.00  0.00    +0.000 C 
ENDBRANCH   4   9
BRANCH   5  11
ATOM     11  O   UNL     1       2.268   5.460  21.072  0.00  0.00    +0.000 OA
ATOM     12  H   UNL     1       2.065   5.226  21.994  0.00  0.00    +0.000 HD
ENDBRANCH   5  11
BRANCH   1  13
ATOM     13  C   UNL     1       5.655   4.032  18.243  0.00  0.00    +0.000 C 
BRANCH  13  19
ATOM     14  C   UNL     1       7.137   5.692  16.858  0.00  0.00    +0.000 A 
ATOM     15  N   UNL     1       7.604   5.944  15.575  0.00  0.00    +0.000 NA
ATOM     16  C   UNL     1       7.160   5.047  14.736  0.00  0.00    +0.000 A 
ATOM     17  C   UNL     1       7.528   5.039  13.287  0.00  0.00    +0.000 C 
ATOM     18  S   UNL     1       6.119   3.868  15.409  0.00  0.00    +0.000 S 
ATOM     19  C   UNL     1       6.330   4.554  16.985  0.00  0.00    +0.000 A 
BRANCH  14  21
ATOM     20  C   UNL     1       7.774   8.087  17.506  0.00  0.00    +0.000 C 
ATOM     21  C   UNL     1       7.626   6.633  17.917  0.00  0.00    +0.000 C 
ENDBRANCH  14  21
ENDBRANCH  13  19
ENDBRANCH   1  13
TORSDOF 6
ENDMDL
MODEL 7
REMARK VINA RESULT:      -6.5      2.058      3.223
REMARK  Name = 
REMARK  9 active torsions:
REMARK  status: ('A' for Active; 'I' for Inactive)
REMARK    1  A    between atoms: C_1  and  C_2
REMARK    2  A    between atoms: C_2  and  C_3
REMARK    3  A    between atoms: C_5  and  C_6
REMARK    4  A    between atoms: C_8  and  C_9
REMARK    5  A    between atoms: C_9  and  N_10
REMARK    6  A    between atoms: C_13  and  O_14
REMARK    7  A    between atoms: C_13  and  C_15
REMARK    8  A    between atoms: C_15  and  C_16
REMARK    9  A    between atoms: C_17  and  O_18
REMARK                            x       y       z     vdW  Elec       q    Type
REMARK                         _______ _______ _______ _____ _____    ______ ____
ROOT
ATOM      1  N   UNL     1       3.778   5.761  18.545  0.00  0.00    +0.000 NA
ATOM      2  C   UNL     1       2.718   5.240  17.693  0.00  0.00    +0.000 C 
ATOM      3  C   UNL     1       2.549   3.729  17.460  0.00  0.00    +0.000 C 
ATOM      4  C   UNL     1       3.263   2.727  18.386  0.00  0.00    +0.000 C 
ATOM      5  C   UNL     1       4.429   3.359  19.190  0.00  0.00    +0.000 C 
ATOM      6  C   UNL     1       4.222   4.831  19.578  0.00  0.00    +0.000 C 
ENDROOT
BRANCH   4   7
ATOM      7  O   UNL     1       3.896   1.763  17.490  0.00  0.00    +0.000 OA
ATOM      8  H   UNL     1       4.617   1.318  17.986  0.00  0.00    +0.000 HD
ENDBRANCH   4   7
BRANCH   4   9
ATOM      9  C   UNL     1       2.289   1.841  19.223  0.00  0.00    +0.000 C 
ATOM     10  C   UNL     1       1.053   2.516  19.790  0.00  0.00    +0.000 C 
ENDBRANCH   4   9
BRANCH   5  11
ATOM     11  O   UNL     1       4.683   2.591  20.382  0.00  0.00    +0.000 OA
ATOM     12  H   UNL     1       4.500   3.147  21.158  0.00  0.00    +0.000 HD
ENDBRANCH   5  11
BRANCH   1  13
ATOM     13  C   UNL     1       4.866   6.495  17.882  0.00  0.00    +0.000 C 
BRANCH  13  19
ATOM     14  C   UNL     1       6.906   5.112  16.988  0.00  0.00    +0.000 A 
ATOM     15  N   UNL     1       7.453   4.580  15.829  0.00  0.00    +0.000 NA
ATOM     16  C   UNL     1       6.701   4.852  14.796  0.00  0.00    +0.000 A 
ATOM     17  C   UNL     1       7.019   4.377  13.414  0.00  0.00    +0.000 C 
ATOM     18  S   UNL     1       5.316   5.799  15.127  0.00  0.00    +0.000 S 
ATOM     19  C   UNL     1       5.692   5.790  16.818  0.00  0.00    +0.000 A 
BRANCH  14  21
ATOM     20  C   UNL     1       7.909   5.997  19.173  0.00  0.00    +0.000 C 
ATOM     21  C   UNL     1       7.660   4.817  18.249  0.00  0.00    +0.000 C 
ENDBRANCH  14  21
ENDBRANCH  13  19
ENDBRANCH   1  13
TORSDOF 6
ENDMDL
MODEL 8
REMARK VINA RESULT:      -6.4      1.767      2.968
REMARK  Name = 
REMARK  9 active torsions:
REMARK  status: ('A' for Active; 'I' for Inactive)
REMARK    1  A    between atoms: C_1  and  C_2
REMARK    2  A    between atoms: C_2  and  C_3
REMARK    3  A    between atoms: C_5  and  C_6
REMARK    4  A    between atoms: C_8  and  C_9
REMARK    5  A    between atoms: C_9  and  N_10
REMARK    6  A    between atoms: C_13  and  O_14
REMARK    7  A    between atoms: C_13  and  C_15
REMARK    8  A    between atoms: C_15  and  C_16
REMARK    9  A    between atoms: C_17  and  O_18
REMARK                            x       y       z     vdW  Elec       q    Type
REMARK                         _______ _______ _______ _____ _____    ______ ____
ROOT
ATOM      1  N   UNL     1       4.647   3.358  18.701  0.00  0.00    +0.000 NA
ATOM      2  C   UNL     1       4.249   2.776  19.974  0.00  0.00    +0.000 C 
ATOM      3  C   UNL     1       2.968   3.231  20.696  0.00  0.00    +0.000 C 
ATOM      4  C   UNL     1       1.908   4.044  19.932  0.00  0.00    +0.000 C 
ATOM      5  C   UNL     1       2.450   4.691  18.632  0.00  0.00    +0.000 C 
ATOM      6  C   UNL     1       3.536   3.877  17.911  0.00  0.00    +0.000 C 
ENDROOT
BRANCH   4   7
ATOM      7  O   UNL     1       1.582   5.165  20.809  0.00  0.00    +0.000 OA
ATOM      8  H   UNL     1       1.165   5.865  20.262  0.00  0.00    +0.000 HD
ENDBRANCH   4   7
BRANCH   4   9
ATOM      9  C   UNL     1       0.540   3.307  19.782  0.00  0.00    +0.000 C 
ATOM     10  C   UNL     1       0.528   2.030  18.964  0.00  0.00    +0.000 C 
ENDBRANCH   4   9
BRANCH   5  11
ATOM     11  O   UNL     1       1.369   4.945  17.716  0.00  0.00    +0.000 OA
ATOM     12  H   UNL     1       1.722   4.961  16.810  0.00  0.00    +0.000 HD
ENDBRANCH   5  11
BRANCH   1  13
ATOM     13  C   UNL     1       5.842   4.215  18.703  0.00  0.00    +0.000 C 
BRANCH  13  19
ATOM     14  C   UNL     1       7.170   5.841  17.133  0.00  0.00    +0.000 A 
ATOM     15  N   UNL     1       7.546   6.032  15.811  0.00  0.00    +0.000 NA
ATOM     16  C   UNL     1       7.087   5.071  15.055  0.00  0.00    +0.000 A 
ATOM     17  C   UNL     1       7.364   4.989  13.588  0.00  0.00    +0.000 C 
ATOM     18  S   UNL     1       6.136   3.898  15.859  0.00  0.00    +0.000 S 
ATOM     19  C   UNL     1       6.417   4.685  17.377  0.00  0.00    +0.000 A 
BRANCH  14  21
ATOM     20  C   UNL     1       7.872   8.267  17.562  0.00  0.00    +0.000 C 
ATOM     21  C   UNL     1       7.686   6.860  18.103  0.00  0.00    +0.000 C 
ENDBRANCH  14  21
ENDBRANCH  13  19
ENDBRANCH   1  13
TORSDOF 6
ENDMDL
MODEL 9
REMARK VINA RESULT:      -6.3      1.699      2.249
REMARK  Name = 
REMARK  9 active torsions:
REMARK  status: ('A' for Active; 'I' for Inactive)
REMARK    1  A    between atoms: C_1  and  C_2
REMARK    2  A    between atoms: C_2  and  C_3
REMARK    3  A    between atoms: C_5  and  C_6
REMARK    4  A    between atoms: C_8  and  C_9
REMARK    5  A    between atoms: C_9  and  N_10
REMARK    6  A    between atoms: C_13  and  O_14
REMARK    7  A    between atoms: C_13  and  C_15
REMARK    8  A    between atoms: C_15  and  C_16
REMARK    9  A    between atoms: C_17  and  O_18
REMARK                            x       y       z     vdW  Elec       q    Type
REMARK                         _______ _______ _______ _____ _____    ______ ____
ROOT
ATOM      1  N   UNL     1       4.007   2.846  17.957  0.00  0.00    +0.000 NA
ATOM      2  C   UNL     1       4.329   3.352  19.283  0.00  0.00    +0.000 C 
ATOM      3  C   UNL     1       3.241   3.936  20.202  0.00  0.00    +0.000 C 
ATOM      4  C   UNL     1       1.756   3.680  19.888  0.00  0.00    +0.000 C 
ATOM      5  C   UNL     1       1.508   3.222  18.427  0.00  0.00    +0.000 C 
ATOM      6  C   UNL     1       2.633   2.373  17.817  0.00  0.00    +0.000 C 
ENDROOT
BRANCH   4   7
ATOM      7  O   UNL     1       1.113   4.986  19.994  0.00  0.00    +0.000 OA
ATOM      8  H   UNL     1       0.804   5.244  19.099  0.00  0.00    +0.000 HD
ENDBRANCH   4   7
BRANCH   4   9
ATOM      9  C   UNL     1       1.021   2.838  20.977  0.00  0.00    +0.000 C 
ATOM     10  C   UNL     1       1.831   2.412  22.187  0.00  0.00    +0.000 C 
ENDBRANCH   4   9
BRANCH   5  11
ATOM     11  O   UNL     1       0.269   2.493  18.340  0.00  0.00    +0.000 OA
ATOM     12  H   UNL     1       0.466   1.540  18.342  0.00  0.00    +0.000 HD
ENDBRANCH   5  11
BRANCH   1  13
ATOM     13  C   UNL     1       4.500   3.621  16.808  0.00  0.00    +0.000 C 
BRANCH  13  19
ATOM     14  C   UNL     1       4.526   6.196  17.300  0.00  0.00    +0.000 A 
ATOM     15  N   UNL     1       5.381   7.277  17.467  0.00  0.00    +0.000 NA
ATOM     16  C   UNL     1       6.626   6.906  17.338  0.00  0.00    +0.000 A 
ATOM     17  C   UNL     1       7.775   7.849  17.504  0.00  0.00    +0.000 C 
ATOM     18  S   UNL     1       6.863   5.254  16.963  0.00  0.00    +0.000 S 
ATOM     19  C   UNL     1       5.157   4.970  17.055  0.00  0.00    +0.000 A 
BRANCH  14  21
ATOM     20  C   UNL     1       2.731   7.686  18.358  0.00  0.00    +0.000 C 
ATOM     21  C   UNL     1       3.068   6.495  17.478  0.00  0.00    +0.000 C 
ENDBRANCH  14  21
ENDBRANCH  13  19
ENDBRANCH   1  13
TORSDOF 6
ENDMDL
