MODEL 1
REMARK VINA RESULT:      -7.9      0.000      0.000
REMARK  Name = 
REMARK  8 active torsions:
REMARK  status: ('A' for Active; 'I' for Inactive)
REMARK    1  A    between atoms: C_1  and  N_2
REMARK    2  A    between atoms: N_2  and  C_3
REMARK    3  A    between atoms: N_5  and  C_6
REMARK    4  A    between atoms: C_7  and  C_8
REMARK    5  A    between atoms: N_10  and  C_11
REMARK    6  A    between atoms: C_11  and  C_12
REMARK    7  A    between atoms: N_20  and  C_21
REMARK    8  A    between atoms: C_21  and  C_22
REMARK                            x       y       z     vdW  Elec       q    Type
REMARK                         _______ _______ _______ _____ _____    ______ ____
ROOT
ATOM      1  C   UNL     1       4.772   5.541  18.072  0.00  0.00    +0.000 A 
ATOM      2  C   UNL     1       5.336   5.988  16.878  0.00  0.00    +0.000 A 
ATOM      3  N   UNL     1       4.757   7.182  16.503  0.00  0.00    +0.000 NA
ATOM      4  N   UNL     1       3.814   7.477  17.381  0.00  0.00    +0.000 NA
ATOM      5  N   UNL     1       3.825   6.515  18.330  0.00  0.00    +0.000 N 
ENDROOT
BRANCH   1  10
ATOM      6  C   UNL     1       3.740   1.007  18.492  0.00  0.00    +0.000 C 
ATOM      7  N   UNL     1       4.446   2.125  19.097  0.00  0.00    +0.000 N 
ATOM      8  C   UNL     1       4.770   2.040  20.509  0.00  0.00    +0.000 C 
ATOM      9  C   UNL     1       4.486   3.339  18.443  0.00  0.00    +0.000 C 
ATOM     10  N   UNL     1       4.947   4.463  18.894  0.00  0.00    +0.000 NA
ENDBRANCH   1  10
BRANCH   2  11
ATOM     11  C   UNL     1       6.396   5.381  16.090  0.00  0.00    +0.000 C 
ATOM     12  O   UNL     1       7.543   5.208  16.500  0.00  0.00    +0.000 OA
ATOM     13  N   UNL     1       6.008   5.067  14.805  0.00  0.00    +0.000 N 
ATOM     14  H   UNL     1       5.074   5.336  14.522  0.00  0.00    +0.000 HD
BRANCH  13  15
ATOM     15  C   UNL     1       6.947   4.618  13.810  0.00  0.00    +0.000 C 
BRANCH  15  16
ATOM     16  C   UNL     1       6.306   3.708  12.793  0.00  0.00    +0.000 A 
ATOM     17  C   UNL     1       4.936   3.816  12.504  0.00  0.00    +0.000 A 
ATOM     18  C   UNL     1       4.343   2.990  11.547  0.00  0.00    +0.000 A 
ATOM     19  C   UNL     1       5.109   2.040  10.875  0.00  0.00    +0.000 A 
ATOM     20  C   UNL     1       6.466   1.908  11.167  0.00  0.00    +0.000 A 
ATOM     21  C   UNL     1       7.062   2.733  12.125  0.00  0.00    +0.000 A 
ENDBRANCH  15  16
ENDBRANCH  13  15
ENDBRANCH   2  11
BRANCH   5  22
ATOM     22  C   UNL     1       2.838   6.560  19.392  0.00  0.00    +0.000 C 
BRANCH  22  23
ATOM     23  C   UNL     1       2.066   5.270  19.530  0.00  0.00    +0.000 A 
ATOM     24  C   UNL     1       1.502   4.640  18.408  0.00  0.00    +0.000 A 
ATOM     25  C   UNL     1       0.844   3.413  18.539  0.00  0.00    +0.000 A 
ATOM     26  C   UNL     1       0.739   2.805  19.783  0.00  0.00    +0.000 A 
ATOM     27  C   UNL     1       1.272   3.434  20.907  0.00  0.00    +0.000 A 
ATOM     28  C   UNL     1       1.925   4.659  20.784  0.00  0.00    +0.000 A 
ENDBRANCH  22  23
ENDBRANCH   5  22
TORSDOF 6
ENDMDL
MODEL 2
REMARK VINA RESULT:      -7.8      0.293      1.341
REMARK  Name = 
REMARK  8 active torsions:
REMARK  status: ('A' for Active; 'I' for Inactive)
REMARK    1  A    between atoms: C_1  and  N_2
REMARK    2  A    between atoms: N_2  and  C_3
REMARK    3  A    between atoms: N_5  and  C_6
REMARK    4  A    between atoms: C_7  and  C_8
REMARK    5  A    between atoms: N_10  and  C_11
REMARK    6  A    between atoms: C_11  and  C_12
REMARK    7  A    between atoms: N_20  and  C_21
REMARK    8  A    between atoms: C_21  and  C_22
REMARK                            x       y       z     vdW  Elec       q    Type
REMARK                         _______ _______ _______ _____ _____    ______ ____
ROOT
ATOM      1  C   UNL     1       4.864   5.522  17.913  0.00  0.00    +0.000 A 
ATOM      2  C   UNL     1       5.418   5.931  16.700  0.00  0.00    +0.000 A 
ATOM      3  N   UNL     1       4.841   7.115  16.296  0.00  0.00    +0.000 NA
ATOM      4  N   UNL     1       3.909   7.442  17.174  0.00  0.00    +0.000 NA
ATOM      5  N   UNL     1       3.925   6.508  18.151  0.00  0.00    +0.000 N 
ENDROOT
BRANCH   1  10
ATOM      6  C   UNL     1       3.693   1.048  18.556  0.00  0.00    +0.000 C 
ATOM      7  N   UNL     1       4.469   2.161  19.082  0.00  0.00    +0.000 N 
ATOM      8  C   UNL     1       4.864   2.113  20.477  0.00  0.00    +0.000 C 
ATOM      9  C   UNL     1       4.519   3.348  18.381  0.00  0.00    +0.000 C 
ATOM     10  N   UNL     1       5.043   4.469  18.765  0.00  0.00    +0.000 NA
ENDBRANCH   1  10
BRANCH   2  11
ATOM     11  C   UNL     1       6.466   5.294  15.919  0.00  0.00    +0.000 C 
ATOM     12  O   UNL     1       7.516   4.870  16.397  0.00  0.00    +0.000 OA
ATOM     13  N   UNL     1       6.195   5.263  14.567  0.00  0.00    +0.000 N 
ATOM     14  H   UNL     1       5.352   5.725  14.250  0.00  0.00    +0.000 HD
BRANCH  13  15
ATOM     15  C   UNL     1       7.173   4.834  13.601  0.00  0.00    +0.000 C 
BRANCH  15  16
ATOM     16  C   UNL     1       6.629   3.776  12.673  0.00  0.00    +0.000 A 
ATOM     17  C   UNL     1       7.501   2.917  11.987  0.00  0.00    +0.000 A 
ATOM     18  C   UNL     1       7.001   1.922  11.144  0.00  0.00    +0.000 A 
ATOM     19  C   UNL     1       5.625   1.781  10.970  0.00  0.00    +0.000 A 
ATOM     20  C   UNL     1       4.750   2.641  11.631  0.00  0.00    +0.000 A 
ATOM     21  C   UNL     1       5.248   3.638  12.474  0.00  0.00    +0.000 A 
ENDBRANCH  15  16
ENDBRANCH  13  15
ENDBRANCH   2  11
BRANCH   5  22
ATOM     22  C   UNL     1       2.950   6.591  19.223  0.00  0.00    +0.000 C 
BRANCH  22  23
ATOM     23  C   UNL     1       2.204   5.296  19.437  0.00  0.00    +0.000 A 
ATOM     24  C   UNL     1       2.082   4.734  20.719  0.00  0.00    +0.000 A 
ATOM     25  C   UNL     1       1.335   3.569  20.915  0.00  0.00    +0.000 A 
ATOM     26  C   UNL     1       0.708   2.951  19.840  0.00  0.00    +0.000 A 
ATOM     27  C   UNL     1       0.844   3.486  18.560  0.00  0.00    +0.000 A 
ATOM     28  C   UNL     1       1.591   4.645  18.357  0.00  0.00    +0.000 A 
ENDBRANCH  22  23
ENDBRANCH   5  22
TORSDOF 6
ENDMDL
MODEL 3
REMARK VINA RESULT:      -7.8      0.380      1.002
REMARK  Name = 
REMARK  8 active torsions:
REMARK  status: ('A' for Active; 'I' for Inactive)
REMARK    1  A    between atoms: C_1  and  N_2
REMARK    2  A    between atoms: N_2  and  C_3
REMARK    3  A    between atoms: N_5  and  C_6
REMARK    4  A    between atoms: C_7  and  C_8
REMARK    5  A    between atoms: N_10  and  C_11
REMARK    6  A    between atoms: C_11  and  C_12
REMARK    7  A    between atoms: N_20  and  C_21
REMARK    8  A    between atoms: C_21  and  C_22
REMARK                            x       y       z     vdW  Elec       q    Type
REMARK                         _______ _______ _______ _____ _____    ______ ____
ROOT
ATOM      1  C   UNL     1       4.609   5.688  18.271  0.00  0.00    +0.000 A 
ATOM      2  C   UNL     1       5.168   6.264  17.130  0.00  0.00    +0.000 A 
ATOM      3  N   UNL     1       4.488   7.418  16.807  0.00  0.00    +0.000 NA
ATOM      4  N   UNL     1       3.491   7.565  17.662  0.00  0.00    +0.000 NA
ATOM      5  N   UNL     1       3.564   6.548  18.549  0.00  0.00    +0.000 N 
ENDROOT
BRANCH   1  10
ATOM      6  C   UNL     1       3.882   1.079  18.443  0.00  0.00    +0.000 C 
ATOM      7  N   UNL     1       4.516   2.207  19.106  0.00  0.00    +0.000 N 
ATOM      8  C   UNL     1       4.855   2.066  20.511  0.00  0.00    +0.000 C 
ATOM      9  C   UNL     1       4.472   3.455  18.521  0.00  0.00    +0.000 C 
ATOM     10  N   UNL     1       4.861   4.580  19.031  0.00  0.00    +0.000 NA
ENDBRANCH   1  10
BRANCH   2  11
ATOM     11  C   UNL     1       6.308   5.813  16.349  0.00  0.00    +0.000 C 
ATOM     12  O   UNL     1       7.476   6.083  16.622  0.00  0.00    +0.000 OA
ATOM     13  N   UNL     1       5.950   5.094  15.228  0.00  0.00    +0.000 N 
ATOM     14  H   UNL     1       4.962   5.004  15.028  0.00  0.00    +0.000 HD
BRANCH  13  15
ATOM     15  C   UNL     1       6.913   4.704  14.231  0.00  0.00    +0.000 C 
BRANCH  15  16
ATOM     16  C   UNL     1       6.289   3.884  13.129  0.00  0.00    +0.000 A 
ATOM     17  C   UNL     1       7.078   3.027  12.346  0.00  0.00    +0.000 A 
ATOM     18  C   UNL     1       6.501   2.250  11.340  0.00  0.00    +0.000 A 
ATOM     19  C   UNL     1       5.130   2.328  11.098  0.00  0.00    +0.000 A 
ATOM     20  C   UNL     1       4.339   3.190  11.854  0.00  0.00    +0.000 A 
ATOM     21  C   UNL     1       4.915   3.970  12.862  0.00  0.00    +0.000 A 
ENDBRANCH  15  16
ENDBRANCH  13  15
ENDBRANCH   2  11
BRANCH   5  22
ATOM     22  C   UNL     1       2.541   6.430  19.572  0.00  0.00    +0.000 C 
BRANCH  22  23
ATOM     23  C   UNL     1       1.861   5.082  19.568  0.00  0.00    +0.000 A 
ATOM     24  C   UNL     1       1.387   4.514  18.374  0.00  0.00    +0.000 A 
ATOM     25  C   UNL     1       0.818   3.237  18.373  0.00  0.00    +0.000 A 
ATOM     26  C   UNL     1       0.711   2.518  19.557  0.00  0.00    +0.000 A 
ATOM     27  C   UNL     1       1.154   3.083  20.751  0.00  0.00    +0.000 A 
ATOM     28  C   UNL     1       1.719   4.357  20.760  0.00  0.00    +0.000 A 
ENDBRANCH  22  23
ENDBRANCH   5  22
TORSDOF 6
ENDMDL
MODEL 4
REMARK VINA RESULT:      -7.7      4.501      8.150
REMARK  Name = 
REMARK  8 active torsions:
REMARK  status: ('A' for Active; 'I' for Inactive)
REMARK    1  A    between atoms: C_1  and  N_2
REMARK    2  A    between atoms: N_2  and  C_3
REMARK    3  A    between atoms: N_5  and  C_6
REMARK    4  A    between atoms: C_7  and  C_8
REMARK    5  A    between atoms: N_10  and  C_11
REMARK    6  A    between atoms: C_11  and  C_12
REMARK    7  A    between atoms: N_20  and  C_21
REMARK    8  A    between atoms: C_21  and  C_22
REMARK                            x       y       z     vdW  Elec       q    Type
REMARK                         _______ _______ _______ _____ _____    ______ ____
ROOT
ATOM      1  C   UNL     1       2.546   7.158  18.779  0.00  0.00    +0.000 A 
ATOM      2  C   UNL     1       1.961   8.420  18.672  0.00  0.00    +0.000 A 
ATOM      3  N   UNL     1       2.348   9.018  17.492  0.00  0.00    +0.000 NA
ATOM      4  N   UNL     1       3.196   8.211  16.877  0.00  0.00    +0.000 NA
ATOM      5  N   UNL     1       3.308   7.092  17.628  0.00  0.00    +0.000 N 
ENDROOT
BRANCH   1  10
ATOM      6  C   UNL     1       1.166   2.734  19.349  0.00  0.00    +0.000 C 
ATOM      7  N   UNL     1       1.841   3.859  19.978  0.00  0.00    +0.000 N 
ATOM      8  C   UNL     1       1.936   3.869  21.426  0.00  0.00    +0.000 C 
ATOM      9  C   UNL     1       2.063   5.012  19.255  0.00  0.00    +0.000 C 
ATOM     10  N   UNL     1       2.521   6.142  19.693  0.00  0.00    +0.000 NA
ENDBRANCH   1  10
BRANCH   2  11
ATOM     11  C   UNL     1       1.047   9.079  19.590  0.00  0.00    +0.000 C 
ATOM     12  O   UNL     1       0.803   8.672  20.725  0.00  0.00    +0.000 OA
ATOM     13  N   UNL     1       0.428  10.183  19.044  0.00  0.00    +0.000 N 
ATOM     14  H   UNL     1       0.614  10.387  18.070  0.00  0.00    +0.000 HD
BRANCH  13  15
ATOM     15  C   UNL     1      -0.638  10.875  19.721  0.00  0.00    +0.000 C 
BRANCH  15  16
ATOM     16  C   UNL     1      -1.906  10.901  18.905  0.00  0.00    +0.000 A 
ATOM     17  C   UNL     1      -2.915  11.835  19.188  0.00  0.00    +0.000 A 
ATOM     18  C   UNL     1      -4.081  11.877  18.421  0.00  0.00    +0.000 A 
ATOM     19  C   UNL     1      -4.257  10.981  17.369  0.00  0.00    +0.000 A 
ATOM     20  C   UNL     1      -3.271  10.036  17.089  0.00  0.00    +0.000 A 
ATOM     21  C   UNL     1      -2.104   9.991  17.856  0.00  0.00    +0.000 A 
ENDBRANCH  15  16
ENDBRANCH  13  15
ENDBRANCH   2  11
BRANCH   5  22
ATOM     22  C   UNL     1       4.233   6.054  17.212  0.00  0.00    +0.000 C 
BRANCH  22  23
ATOM     23  C   UNL     1       5.595   6.194  17.848  0.00  0.00    +0.000 A 
ATOM     24  C   UNL     1       5.975   5.386  18.932  0.00  0.00    +0.000 A 
ATOM     25  C   UNL     1       7.262   5.481  19.471  0.00  0.00    +0.000 A 
ATOM     26  C   UNL     1       8.178   6.380  18.941  0.00  0.00    +0.000 A 
ATOM     27  C   UNL     1       7.803   7.205  17.882  0.00  0.00    +0.000 A 
ATOM     28  C   UNL     1       6.521   7.119  17.342  0.00  0.00    +0.000 A 
ENDBRANCH  22  23
ENDBRANCH   5  22
TORSDOF 6
ENDMDL
MODEL 5
REMARK VINA RESULT:      -7.6      4.487      8.698
REMARK  Name = 
REMARK  8 active torsions:
REMARK  status: ('A' for Active; 'I' for Inactive)
REMARK    1  A    between atoms: C_1  and  N_2
REMARK    2  A    between atoms: N_2  and  C_3
REMARK    3  A    between atoms: N_5  and  C_6
REMARK    4  A    between atoms: C_7  and  C_8
REMARK    5  A    between atoms: N_10  and  C_11
REMARK    6  A    between atoms: C_11  and  C_12
REMARK    7  A    between atoms: N_20  and  C_21
REMARK    8  A    between atoms: C_21  and  C_22
REMARK                            x       y       z     vdW  Elec       q    Type
REMARK                         _______ _______ _______ _____ _____    ______ ____
ROOT
ATOM      1  C   UNL     1       2.418   6.833  19.424  0.00  0.00    +0.000 A 
ATOM      2  C   UNL     1       1.829   8.083  19.610  0.00  0.00    +0.000 A 
ATOM      3  N   UNL     1       2.042   8.872  18.500  0.00  0.00    +0.000 NA
ATOM      4  N   UNL     1       2.787   8.192  17.647  0.00  0.00    +0.000 NA
ATOM      5  N   UNL     1       3.004   6.969  18.180  0.00  0.00    +0.000 N 
ENDROOT
BRANCH   1  10
ATOM      6  C   UNL     1       0.871   2.432  19.625  0.00  0.00    +0.000 C 
ATOM      7  N   UNL     1       1.753   3.410  20.242  0.00  0.00    +0.000 N 
ATOM      8  C   UNL     1       2.172   3.178  21.612  0.00  0.00    +0.000 C 
ATOM      9  C   UNL     1       1.893   4.658  19.670  0.00  0.00    +0.000 C 
ATOM     10  N   UNL     1       2.522   5.682  20.154  0.00  0.00    +0.000 NA
ENDBRANCH   1  10
BRANCH   2  11
ATOM     11  C   UNL     1       1.061   8.566  20.746  0.00  0.00    +0.000 C 
ATOM     12  O   UNL     1       0.426   7.836  21.505  0.00  0.00    +0.000 OA
ATOM     13  N   UNL     1       1.063   9.940  20.861  0.00  0.00    +0.000 N 
ATOM     14  H   UNL     1       1.531  10.467  20.133  0.00  0.00    +0.000 HD
BRANCH  13  15
ATOM     15  C   UNL     1       0.228  10.630  21.809  0.00  0.00    +0.000 C 
BRANCH  15  16
ATOM     16  C   UNL     1      -0.929  11.331  21.142  0.00  0.00    +0.000 A 
ATOM     17  C   UNL     1      -1.118  11.231  19.755  0.00  0.00    +0.000 A 
ATOM     18  C   UNL     1      -2.200  11.860  19.136  0.00  0.00    +0.000 A 
ATOM     19  C   UNL     1      -3.101  12.605  19.895  0.00  0.00    +0.000 A 
ATOM     20  C   UNL     1      -2.913  12.729  21.271  0.00  0.00    +0.000 A 
ATOM     21  C   UNL     1      -1.830  12.100  21.892  0.00  0.00    +0.000 A 
ENDBRANCH  15  16
ENDBRANCH  13  15
ENDBRANCH   2  11
BRANCH   5  22
ATOM     22  C   UNL     1       3.854   6.031  17.471  0.00  0.00    +0.000 C 
BRANCH  22  23
ATOM     23  C   UNL     1       5.311   6.164  17.844  0.00  0.00    +0.000 A 
ATOM     24  C   UNL     1       6.155   7.055  17.161  0.00  0.00    +0.000 A 
ATOM     25  C   UNL     1       7.486   7.217  17.557  0.00  0.00    +0.000 A 
ATOM     26  C   UNL     1       7.989   6.493  18.630  0.00  0.00    +0.000 A 
ATOM     27  C   UNL     1       7.168   5.586  19.298  0.00  0.00    +0.000 A 
ATOM     28  C   UNL     1       5.841   5.417  18.906  0.00  0.00    +0.000 A 
ENDBRANCH  22  23
ENDBRANCH   5  22
TORSDOF 6
ENDMDL
MODEL 6
REMARK VINA RESULT:      -7.6      6.321      9.282
REMARK  Name = 
REMARK  8 active torsions:
REMARK  status: ('A' for Active; 'I' for Inactive)
REMARK    1  A    between atoms: C_1  and  N_2
REMARK    2  A    between atoms: N_2  and  C_3
REMARK    3  A    between atoms: N_5  and  C_6
REMARK    4  A    between atoms: C_7  and  C_8
REMARK    5  A    between atoms: N_10  and  C_11
REMARK    6  A    between atoms: C_11  and  C_12
REMARK    7  A    between atoms: N_20  and  C_21
REMARK    8  A    between atoms: C_21  and  C_22
REMARK                            x       y       z     vdW  Elec       q    Type
REMARK                         _______ _______ _______ _____ _____    ______ ____
ROOT
ATOM      1  C   UNL     1       0.444  10.893  20.768  0.00  0.00    +0.000 A 
ATOM      2  C   UNL     1       0.704   9.524  20.694  0.00  0.00    +0.000 A 
ATOM      3  N   UNL     1       0.087   8.873  21.741  0.00  0.00    +0.000 NA
ATOM      4  N   UNL     1      -0.503   9.778  22.502  0.00  0.00    +0.000 NA
ATOM      5  N   UNL     1      -0.312  10.984  21.922  0.00  0.00    +0.000 N 
ENDROOT
BRANCH   1  10
ATOM      6  C   UNL     1       3.585  14.332  20.454  0.00  0.00    +0.000 C 
ATOM      7  N   UNL     1       2.404  13.743  19.843  0.00  0.00    +0.000 N 
ATOM      8  C   UNL     1       1.610  14.576  18.959  0.00  0.00    +0.000 C 
ATOM      9  C   UNL     1       1.883  12.574  20.357  0.00  0.00    +0.000 C 
ATOM     10  N   UNL     1       0.773  11.992  20.027  0.00  0.00    +0.000 NA
ENDBRANCH   1  10
BRANCH   2  11
ATOM     11  C   UNL     1       1.466   8.797  19.693  0.00  0.00    +0.000 C 
ATOM     12  O   UNL     1       1.506   9.104  18.503  0.00  0.00    +0.000 OA
ATOM     13  N   UNL     1       2.101   7.681  20.197  0.00  0.00    +0.000 N 
ATOM     14  H   UNL     1       1.932   7.448  21.167  0.00  0.00    +0.000 HD
BRANCH  13  15
ATOM     15  C   UNL     1       2.764   6.729  19.345  0.00  0.00    +0.000 C 
BRANCH  15  16
ATOM     16  C   UNL     1       2.124   5.365  19.412  0.00  0.00    +0.000 A 
ATOM     17  C   UNL     1       1.732   4.823  20.646  0.00  0.00    +0.000 A 
ATOM     18  C   UNL     1       1.120   3.569  20.710  0.00  0.00    +0.000 A 
ATOM     19  C   UNL     1       0.900   2.840  19.544  0.00  0.00    +0.000 A 
ATOM     20  C   UNL     1       1.303   3.358  18.314  0.00  0.00    +0.000 A 
ATOM     21  C   UNL     1       1.917   4.612  18.247  0.00  0.00    +0.000 A 
ENDBRANCH  15  16
ENDBRANCH  13  15
ENDBRANCH   2  11
BRANCH   5  22
ATOM     22  C   UNL     1      -0.808  12.174  22.588  0.00  0.00    +0.000 C 
BRANCH  22  23
ATOM     23  C   UNL     1      -2.279  12.410  22.348  0.00  0.00    +0.000 A 
ATOM     24  C   UNL     1      -3.183  12.500  23.420  0.00  0.00    +0.000 A 
ATOM     25  C   UNL     1      -4.533  12.782  23.187  0.00  0.00    +0.000 A 
ATOM     26  C   UNL     1      -4.995  12.973  21.892  0.00  0.00    +0.000 A 
ATOM     27  C   UNL     1      -4.112  12.860  20.819  0.00  0.00    +0.000 A 
ATOM     28  C   UNL     1      -2.766  12.574  21.043  0.00  0.00    +0.000 A 
ENDBRANCH  22  23
ENDBRANCH   5  22
TORSDOF 6
ENDMDL
MODEL 7
REMARK VINA RESULT:      -7.6      2.986      7.672
REMARK  Name = 
REMARK  8 active torsions:
REMARK  status: ('A' for Active; 'I' for Inactive)
REMARK    1  A    between atoms: C_1  and  N_2
REMARK    2  A    between atoms: N_2  and  C_3
REMARK    3  A    between atoms: N_5  and  C_6
REMARK    4  A    between atoms: C_7  and  C_8
REMARK    5  A    between atoms: N_10  and  C_11
REMARK    6  A    between atoms: C_11  and  C_12
REMARK    7  A    between atoms: N_20  and  C_21
REMARK    8  A    between atoms: C_21  and  C_22
REMARK                            x       y       z     vdW  Elec       q    Type
REMARK                         _______ _______ _______ _____ _____    ______ ____
ROOT
ATOM      1  C   UNL     1       4.600   5.536  17.258  0.00  0.00    +0.000 A 
ATOM      2  C   UNL     1       4.223   6.856  17.505  0.00  0.00    +0.000 A 
ATOM      3  N   UNL     1       5.184   7.716  17.020  0.00  0.00    +0.000 NA
ATOM      4  N   UNL     1       6.176   6.994  16.527  0.00  0.00    +0.000 NA
ATOM      5  N   UNL     1       5.830   5.693  16.648  0.00  0.00    +0.000 N 
ENDROOT
BRANCH   1  10
ATOM      6  C   UNL     1       4.435   2.126  20.443  0.00  0.00    +0.000 C 
ATOM      7  N   UNL     1       3.948   2.563  19.145  0.00  0.00    +0.000 N 
ATOM      8  C   UNL     1       3.425   1.554  18.241  0.00  0.00    +0.000 C 
ATOM      9  C   UNL     1       4.291   3.813  18.673  0.00  0.00    +0.000 C 
ATOM     10  N   UNL     1       4.060   4.303  17.496  0.00  0.00    +0.000 NA
ENDBRANCH   1  10
BRANCH   2  11
ATOM     11  C   UNL     1       3.014   7.352  18.140  0.00  0.00    +0.000 C 
ATOM     12  O   UNL     1       2.464   6.803  19.094  0.00  0.00    +0.000 OA
ATOM     13  N   UNL     1       2.500   8.476  17.529  0.00  0.00    +0.000 N 
ATOM     14  H   UNL     1       2.962   8.802  16.689  0.00  0.00    +0.000 HD
BRANCH  13  15
ATOM     15  C   UNL     1       1.219   9.025  17.891  0.00  0.00    +0.000 C 
BRANCH  15  16
ATOM     16  C   UNL     1       1.352  10.299  18.688  0.00  0.00    +0.000 A 
ATOM     17  C   UNL     1       0.826  10.383  19.987  0.00  0.00    +0.000 A 
ATOM     18  C   UNL     1       0.966  11.552  20.737  0.00  0.00    +0.000 A 
ATOM     19  C   UNL     1       1.624  12.654  20.194  0.00  0.00    +0.000 A 
ATOM     20  C   UNL     1       2.133  12.591  18.899  0.00  0.00    +0.000 A 
ATOM     21  C   UNL     1       1.993  11.421  18.146  0.00  0.00    +0.000 A 
ENDBRANCH  15  16
ENDBRANCH  13  15
ENDBRANCH   2  11
BRANCH   5  22
ATOM     22  C   UNL     1       6.776   4.671  16.238  0.00  0.00    +0.000 C 
BRANCH  22  23
ATOM     23  C   UNL     1       6.827   4.488  14.740  0.00  0.00    +0.000 A 
ATOM     24  C   UNL     1       5.954   3.602  14.088  0.00  0.00    +0.000 A 
ATOM     25  C   UNL     1       5.967   3.490  12.695  0.00  0.00    +0.000 A 
ATOM     26  C   UNL     1       6.850   4.252  11.940  0.00  0.00    +0.000 A 
ATOM     27  C   UNL     1       7.739   5.114  12.578  0.00  0.00    +0.000 A 
ATOM     28  C   UNL     1       7.734   5.229  13.968  0.00  0.00    +0.000 A 
ENDBRANCH  22  23
ENDBRANCH   5  22
TORSDOF 6
ENDMDL
MODEL 8
REMARK VINA RESULT:      -7.6      3.250      7.744
REMARK  Name = 
REMARK  8 active torsions:
REMARK  status: ('A' for Active; 'I' for Inactive)
REMARK    1  A    between atoms: C_1  and  N_2
REMARK    2  A    between atoms: N_2  and  C_3
REMARK    3  A    between atoms: N_5  and  C_6
REMARK    4  A    between atoms: C_7  and  C_8
REMARK    5  A    between atoms: N_10  and  C_11
REMARK    6  A    between atoms: C_11  and  C_12
REMARK    7  A    between atoms: N_20  and  C_21
REMARK    8  A    between atoms: C_21  and  C_22
REMARK                            x       y       z     vdW  Elec       q    Type
REMARK                         _______ _______ _______ _____ _____    ______ ____
ROOT
ATOM      1  C   UNL     1       4.252   5.669  17.556  0.00  0.00    +0.000 A 
ATOM      2  C   UNL     1       3.740   6.958  17.410  0.00  0.00    +0.000 A 
ATOM      3  N   UNL     1       4.291   7.558  16.298  0.00  0.00    +0.000 NA
ATOM      4  N   UNL     1       5.170   6.725  15.770  0.00  0.00    +0.000 NA
ATOM      5  N   UNL     1       5.143   5.588  16.502  0.00  0.00    +0.000 N 
ENDROOT
BRANCH   1  10
ATOM      6  C   UNL     1       1.195   2.373  18.816  0.00  0.00    +0.000 C 
ATOM      7  N   UNL     1       2.518   2.924  19.065  0.00  0.00    +0.000 N 
ATOM      8  C   UNL     1       3.144   2.635  20.342  0.00  0.00    +0.000 C 
ATOM      9  C   UNL     1       2.990   3.949  18.272  0.00  0.00    +0.000 C 
ATOM     10  N   UNL     1       4.073   4.639  18.436  0.00  0.00    +0.000 NA
ENDBRANCH   1  10
BRANCH   2  11
ATOM     11  C   UNL     1       2.752   7.642  18.228  0.00  0.00    +0.000 C 
ATOM     12  O   UNL     1       2.432   7.284  19.360  0.00  0.00    +0.000 OA
ATOM     13  N   UNL     1       2.157   8.708  17.587  0.00  0.00    +0.000 N 
ATOM     14  H   UNL     1       2.410   8.870  16.620  0.00  0.00    +0.000 HD
BRANCH  13  15
ATOM     15  C   UNL     1       1.036   9.411  18.153  0.00  0.00    +0.000 C 
BRANCH  15  16
ATOM     16  C   UNL     1       1.424  10.771  18.677  0.00  0.00    +0.000 A 
ATOM     17  C   UNL     1       0.939  11.220  19.916  0.00  0.00    +0.000 A 
ATOM     18  C   UNL     1       1.314  12.470  20.415  0.00  0.00    +0.000 A 
ATOM     19  C   UNL     1       2.168  13.288  19.679  0.00  0.00    +0.000 A 
ATOM     20  C   UNL     1       2.640  12.862  18.439  0.00  0.00    +0.000 A 
ATOM     21  C   UNL     1       2.266  11.612  17.936  0.00  0.00    +0.000 A 
ENDBRANCH  15  16
ENDBRANCH  13  15
ENDBRANCH   2  11
BRANCH   5  22
ATOM     22  C   UNL     1       6.065   4.516  16.175  0.00  0.00    +0.000 C 
BRANCH  22  23
ATOM     23  C   UNL     1       6.375   4.440  14.700  0.00  0.00    +0.000 A 
ATOM     24  C   UNL     1       7.466   5.135  14.152  0.00  0.00    +0.000 A 
ATOM     25  C   UNL     1       7.781   5.005  12.796  0.00  0.00    +0.000 A 
ATOM     26  C   UNL     1       7.014   4.189  11.974  0.00  0.00    +0.000 A 
ATOM     27  C   UNL     1       5.914   3.515  12.502  0.00  0.00    +0.000 A 
ATOM     28  C   UNL     1       5.591   3.644  13.852  0.00  0.00    +0.000 A 
ENDBRANCH  22  23
ENDBRANCH   5  22
TORSDOF 6
ENDMDL
MODEL 9
REMARK VINA RESULT:      -7.6      0.554      1.079
REMARK  Name = 
REMARK  8 active torsions:
REMARK  status: ('A' for Active; 'I' for Inactive)
REMARK    1  A    between atoms: C_1  and  N_2
REMARK    2  A    between atoms: N_2  and  C_3
REMARK    3  A    between atoms: N_5  and  C_6
REMARK    4  A    between atoms: C_7  and  C_8
REMARK    5  A    between atoms: N_10  and  C_11
REMARK    6  A    between atoms: C_11  and  C_12
REMARK    7  A    between atoms: N_20  and  C_21
REMARK    8  A    between atoms: C_21  and  C_22
REMARK                            x       y       z     vdW  Elec       q    Type
REMARK                         _______ _______ _______ _____ _____    ______ ____
ROOT
ATOM      1  C   UNL     1       4.561   5.750  18.388  0.00  0.00    +0.000 A 
ATOM      2  C   UNL     1       5.135   6.375  17.281  0.00  0.00    +0.000 A 
ATOM      3  N   UNL     1       4.437   7.524  16.978  0.00  0.00    +0.000 NA
ATOM      4  N   UNL     1       3.415   7.620  17.810  0.00  0.00    +0.000 NA
ATOM      5  N   UNL     1       3.489   6.577  18.666  0.00  0.00    +0.000 N 
ENDROOT
BRANCH   1  10
ATOM      6  C   UNL     1       3.893   1.129  18.418  0.00  0.00    +0.000 C 
ATOM      7  N   UNL     1       4.505   2.245  19.121  0.00  0.00    +0.000 N 
ATOM      8  C   UNL     1       4.830   2.068  20.525  0.00  0.00    +0.000 C 
ATOM      9  C   UNL     1       4.451   3.509  18.571  0.00  0.00    +0.000 C 
ATOM     10  N   UNL     1       4.819   4.624  19.119  0.00  0.00    +0.000 NA
ENDBRANCH   1  10
BRANCH   2  11
ATOM     11  C   UNL     1       6.306   5.976  16.518  0.00  0.00    +0.000 C 
ATOM     12  O   UNL     1       7.443   6.387  16.740  0.00  0.00    +0.000 OA
ATOM     13  N   UNL     1       6.010   5.129  15.471  0.00  0.00    +0.000 N 
ATOM     14  H   UNL     1       5.033   4.922  15.301  0.00  0.00    +0.000 HD
BRANCH  13  15
ATOM     15  C   UNL     1       6.994   4.753  14.490  0.00  0.00    +0.000 C 
BRANCH  15  16
ATOM     16  C   UNL     1       6.390   3.971  13.350  0.00  0.00    +0.000 A 
ATOM     17  C   UNL     1       4.998   3.923  13.178  0.00  0.00    +0.000 A 
ATOM     18  C   UNL     1       4.436   3.218  12.112  0.00  0.00    +0.000 A 
ATOM     19  C   UNL     1       5.258   2.544  11.211  0.00  0.00    +0.000 A 
ATOM     20  C   UNL     1       6.641   2.567  11.382  0.00  0.00    +0.000 A 
ATOM     21  C   UNL     1       7.206   3.271  12.448  0.00  0.00    +0.000 A 
ENDBRANCH  15  16
ENDBRANCH  13  15
ENDBRANCH   2  11
BRANCH   5  22
ATOM     22  C   UNL     1       2.443   6.402  19.657  0.00  0.00    +0.000 C 
BRANCH  22  23
ATOM     23  C   UNL     1       1.863   5.008  19.657  0.00  0.00    +0.000 A 
ATOM     24  C   UNL     1       1.757   4.268  20.847  0.00  0.00    +0.000 A 
ATOM     25  C   UNL     1       1.159   3.004  20.845  0.00  0.00    +0.000 A 
ATOM     26  C   UNL     1       0.668   2.465  19.663  0.00  0.00    +0.000 A 
ATOM     27  C   UNL     1       0.791   3.179  18.473  0.00  0.00    +0.000 A 
ATOM     28  C   UNL     1       1.390   4.438  18.467  0.00  0.00    +0.000 A 
ENDBRANCH  22  23
ENDBRANCH   5  22
TORSDOF 6
ENDMDL
