MODEL 1
REMARK VINA RESULT:      -7.8      0.000      0.000
REMARK  Name = 
REMARK  4 active torsions:
REMARK  status: ('A' for Active; 'I' for Inactive)
REMARK    1  A    between atoms: C_2  and  C_3
REMARK    2  A    between atoms: C_3  and  O_4
REMARK    3  A    between atoms: O_4  and  C_5
REMARK    4  A    between atoms: N_8  and  C_9
REMARK                            x       y       z     vdW  Elec       q    Type
REMARK                         _______ _______ _______ _____ _____    ______ ____
ROOT
ATOM      1  C   UNL     1       2.328   4.247  18.150  0.00  0.00    +0.000 C 
ATOM      2  C   UNL     1       2.192   5.559  18.176  0.00  0.00    +0.000 C 
ATOM      3  C   UNL     1       3.281   6.549  17.910  0.00  0.00    +0.000 C 
ATOM      4  N   UNL     1       3.219   7.846  18.068  0.00  0.00    +0.000 NA
ATOM      5  C   UNL     1       4.556   5.959  17.436  0.00  0.00    +0.000 A 
ATOM      6  C   UNL     1       5.632   6.796  17.101  0.00  0.00    +0.000 A 
ATOM      7  C   UNL     1       6.848   6.249  16.683  0.00  0.00    +0.000 A 
ATOM      8  C   UNL     1       7.000   4.871  16.597  0.00  0.00    +0.000 A 
ATOM      9  C   UNL     1       5.937   4.033  16.932  0.00  0.00    +0.000 A 
ATOM     10  C   UNL     1       4.713   4.577  17.355  0.00  0.00    +0.000 A 
ATOM     11  C   UNL     1       3.621   3.668  17.716  0.00  0.00    +0.000 C 
ATOM     12  O   UNL     1       3.792   2.440  17.627  0.00  0.00    +0.000 OA
ENDROOT
BRANCH   4  13
ATOM     13  C   UNL     1       2.101   8.477  18.621  0.00  0.00    +0.000 A 
ATOM     14  C   UNL     1       1.246   9.269  17.848  0.00  0.00    +0.000 A 
ATOM     15  C   UNL     1       0.212   9.995  18.411  0.00  0.00    +0.000 A 
ATOM     16  C   UNL     1      -0.076   9.848  19.762  0.00  0.00    +0.000 A 
ATOM     17  C   UNL     1       0.703   8.982  20.541  0.00  0.00    +0.000 A 
ATOM     18  C   UNL     1       1.794   8.318  19.981  0.00  0.00    +0.000 A 
ENDBRANCH   4  13
BRANCH   1  19
ATOM     19  O   UNL     1       1.220   3.455  18.441  0.00  0.00    +0.000 OA
BRANCH  19  20
ATOM     20  C   UNL     1       0.645   3.617  19.740  0.00  0.00    +0.000 C 
BRANCH  20  22
ATOM     21  C   UNL     1       2.494   2.647  21.640  0.00  0.00    +0.000 C 
ATOM     22  C   UNL     1       1.640   3.095  20.762  0.00  0.00    +0.000 C 
ENDBRANCH  20  22
ENDBRANCH  19  20
ENDBRANCH   1  19
TORSDOF 4
ENDMDL
MODEL 2
REMARK VINA RESULT:      -7.7      0.441      1.114
REMARK  Name = 
REMARK  4 active torsions:
REMARK  status: ('A' for Active; 'I' for Inactive)
REMARK    1  A    between atoms: C_2  and  C_3
REMARK    2  A    between atoms: C_3  and  O_4
REMARK    3  A    between atoms: O_4  and  C_5
REMARK    4  A    between atoms: N_8  and  C_9
REMARK                            x       y       z     vdW  Elec       q    Type
REMARK                         _______ _______ _______ _____ _____    ______ ____
ROOT
ATOM      1  C   UNL     1       2.107   4.110  18.176  0.00  0.00    +0.000 C 
ATOM      2  C   UNL     1       2.049   5.428  18.189  0.00  0.00    +0.000 C 
ATOM      3  C   UNL     1       3.144   6.348  17.751  0.00  0.00    +0.000 C 
ATOM      4  N   UNL     1       3.178   7.649  17.885  0.00  0.00    +0.000 NA
ATOM      5  C   UNL     1       4.304   5.677  17.116  0.00  0.00    +0.000 A 
ATOM      6  C   UNL     1       5.367   6.443  16.614  0.00  0.00    +0.000 A 
ATOM      7  C   UNL     1       6.479   5.820  16.043  0.00  0.00    +0.000 A 
ATOM      8  C   UNL     1       6.540   4.434  15.968  0.00  0.00    +0.000 A 
ATOM      9  C   UNL     1       5.489   3.665  16.468  0.00  0.00    +0.000 A 
ATOM     10  C   UNL     1       4.370   4.287  17.046  0.00  0.00    +0.000 A 
ATOM     11  C   UNL     1       3.291   3.449  17.578  0.00  0.00    +0.000 C 
ATOM     12  O   UNL     1       3.378   2.212  17.494  0.00  0.00    +0.000 OA
ENDROOT
BRANCH   4  13
ATOM     13  C   UNL     1       2.187   8.353  18.576  0.00  0.00    +0.000 A 
ATOM     14  C   UNL     1       1.960   8.154  19.941  0.00  0.00    +0.000 A 
ATOM     15  C   UNL     1       0.903   8.753  20.603  0.00  0.00    +0.000 A 
ATOM     16  C   UNL     1       0.109   9.678  19.936  0.00  0.00    +0.000 A 
ATOM     17  C   UNL     1       0.377   9.971  18.592  0.00  0.00    +0.000 A 
ATOM     18  C   UNL     1       1.393   9.301  17.912  0.00  0.00    +0.000 A 
ENDBRANCH   4  13
BRANCH   1  19
ATOM     19  O   UNL     1       1.008   3.389  18.637  0.00  0.00    +0.000 OA
BRANCH  19  20
ATOM     20  C   UNL     1       0.598   3.646  19.982  0.00  0.00    +0.000 C 
BRANCH  20  22
ATOM     21  C   UNL     1       2.555   2.572  21.711  0.00  0.00    +0.000 C 
ATOM     22  C   UNL     1       1.651   3.068  20.912  0.00  0.00    +0.000 C 
ENDBRANCH  20  22
ENDBRANCH  19  20
ENDBRANCH   1  19
TORSDOF 4
ENDMDL
MODEL 3
REMARK VINA RESULT:      -7.3      1.241      1.740
REMARK  Name = 
REMARK  4 active torsions:
REMARK  status: ('A' for Active; 'I' for Inactive)
REMARK    1  A    between atoms: C_2  and  C_3
REMARK    2  A    between atoms: C_3  and  O_4
REMARK    3  A    between atoms: O_4  and  C_5
REMARK    4  A    between atoms: N_8  and  C_9
REMARK                            x       y       z     vdW  Elec       q    Type
REMARK                         _______ _______ _______ _____ _____    ______ ____
ROOT
ATOM      1  C   UNL     1       3.205   4.805  19.921  0.00  0.00    +0.000 C 
ATOM      2  C   UNL     1       2.676   5.916  19.447  0.00  0.00    +0.000 C 
ATOM      3  C   UNL     1       3.206   6.705  18.291  0.00  0.00    +0.000 C 
ATOM      4  N   UNL     1       2.797   7.880  17.888  0.00  0.00    +0.000 NA
ATOM      5  C   UNL     1       4.324   6.061  17.559  0.00  0.00    +0.000 A 
ATOM      6  C   UNL     1       4.865   6.681  16.423  0.00  0.00    +0.000 A 
ATOM      7  C   UNL     1       5.938   6.099  15.744  0.00  0.00    +0.000 A 
ATOM      8  C   UNL     1       6.479   4.900  16.192  0.00  0.00    +0.000 A 
ATOM      9  C   UNL     1       5.949   4.279  17.323  0.00  0.00    +0.000 A 
ATOM     10  C   UNL     1       4.871   4.861  18.010  0.00  0.00    +0.000 A 
ATOM     11  C   UNL     1       4.350   4.193  19.206  0.00  0.00    +0.000 C 
ATOM     12  O   UNL     1       4.857   3.121  19.579  0.00  0.00    +0.000 OA
ENDROOT
BRANCH   4  13
ATOM     13  C   UNL     1       1.832   8.613  18.586  0.00  0.00    +0.000 A 
ATOM     14  C   UNL     1       1.711   8.530  19.977  0.00  0.00    +0.000 A 
ATOM     15  C   UNL     1       0.683   9.154  20.660  0.00  0.00    +0.000 A 
ATOM     16  C   UNL     1      -0.189   9.992  19.976  0.00  0.00    +0.000 A 
ATOM     17  C   UNL     1      -0.028  10.173  18.596  0.00  0.00    +0.000 A 
ATOM     18  C   UNL     1       0.961   9.475  17.903  0.00  0.00    +0.000 A 
ENDBRANCH   4  13
BRANCH   1  19
ATOM     19  O   UNL     1       2.605   4.196  21.021  0.00  0.00    +0.000 OA
BRANCH  19  20
ATOM     20  C   UNL     1       1.208   3.914  20.909  0.00  0.00    +0.000 C 
BRANCH  20  22
ATOM     21  C   UNL     1       0.839   2.207  18.690  0.00  0.00    +0.000 C 
ATOM     22  C   UNL     1       1.010   2.995  19.715  0.00  0.00    +0.000 C 
ENDBRANCH  20  22
ENDBRANCH  19  20
ENDBRANCH   1  19
TORSDOF 4
ENDMDL
MODEL 4
REMARK VINA RESULT:      -7.3      2.187      6.316
REMARK  Name = 
REMARK  4 active torsions:
REMARK  status: ('A' for Active; 'I' for Inactive)
REMARK    1  A    between atoms: C_2  and  C_3
REMARK    2  A    between atoms: C_3  and  O_4
REMARK    3  A    between atoms: O_4  and  C_5
REMARK    4  A    between atoms: N_8  and  C_9
REMARK                            x       y       z     vdW  Elec       q    Type
REMARK                         _______ _______ _______ _____ _____    ______ ____
ROOT
ATOM      1  C   UNL     1       3.047   6.810  18.580  0.00  0.00    +0.000 C 
ATOM      2  C   UNL     1       3.644   5.971  17.756  0.00  0.00    +0.000 C 
ATOM      3  C   UNL     1       3.682   4.484  17.909  0.00  0.00    +0.000 C 
ATOM      4  N   UNL     1       4.382   3.638  17.197  0.00  0.00    +0.000 NA
ATOM      5  C   UNL     1       2.838   3.949  19.005  0.00  0.00    +0.000 A 
ATOM      6  C   UNL     1       2.750   2.564  19.209  0.00  0.00    +0.000 A 
ATOM      7  C   UNL     1       1.983   2.052  20.257  0.00  0.00    +0.000 A 
ATOM      8  C   UNL     1       1.301   2.913  21.108  0.00  0.00    +0.000 A 
ATOM      9  C   UNL     1       1.386   4.290  20.915  0.00  0.00    +0.000 A 
ATOM     10  C   UNL     1       2.158   4.812  19.863  0.00  0.00    +0.000 A 
ATOM     11  C   UNL     1       2.241   6.266  19.699  0.00  0.00    +0.000 C 
ATOM     12  O   UNL     1       1.617   7.007  20.477  0.00  0.00    +0.000 OA
ENDROOT
BRANCH   4  13
ATOM     13  C   UNL     1       5.294   4.058  16.224  0.00  0.00    +0.000 A 
ATOM     14  C   UNL     1       4.979   4.032  14.862  0.00  0.00    +0.000 A 
ATOM     15  C   UNL     1       5.916   4.327  13.889  0.00  0.00    +0.000 A 
ATOM     16  C   UNL     1       7.174   4.786  14.261  0.00  0.00    +0.000 A 
ATOM     17  C   UNL     1       7.483   4.918  15.621  0.00  0.00    +0.000 A 
ATOM     18  C   UNL     1       6.559   4.539  16.595  0.00  0.00    +0.000 A 
ENDBRANCH   4  13
BRANCH   1  19
ATOM     19  O   UNL     1       3.118   8.175  18.312  0.00  0.00    +0.000 OA
BRANCH  19  20
ATOM     20  C   UNL     1       2.037   8.733  17.562  0.00  0.00    +0.000 C 
BRANCH  20  22
ATOM     21  C   UNL     1       0.772  10.677  19.173  0.00  0.00    +0.000 C 
ATOM     22  C   UNL     1       1.356   9.779  18.429  0.00  0.00    +0.000 C 
ENDBRANCH  20  22
ENDBRANCH  19  20
ENDBRANCH   1  19
TORSDOF 4
ENDMDL
MODEL 5
REMARK VINA RESULT:      -7.3      2.179      6.369
REMARK  Name = 
REMARK  4 active torsions:
REMARK  status: ('A' for Active; 'I' for Inactive)
REMARK    1  A    between atoms: C_2  and  C_3
REMARK    2  A    between atoms: C_3  and  O_4
REMARK    3  A    between atoms: O_4  and  C_5
REMARK    4  A    between atoms: N_8  and  C_9
REMARK                            x       y       z     vdW  Elec       q    Type
REMARK                         _______ _______ _______ _____ _____    ______ ____
ROOT
ATOM      1  C   UNL     1       3.083   6.775  18.567  0.00  0.00    +0.000 C 
ATOM      2  C   UNL     1       3.685   5.922  17.761  0.00  0.00    +0.000 C 
ATOM      3  C   UNL     1       3.708   4.436  17.932  0.00  0.00    +0.000 C 
ATOM      4  N   UNL     1       4.411   3.577  17.241  0.00  0.00    +0.000 NA
ATOM      5  C   UNL     1       2.843   3.922  19.022  0.00  0.00    +0.000 A 
ATOM      6  C   UNL     1       2.740   2.539  19.240  0.00  0.00    +0.000 A 
ATOM      7  C   UNL     1       1.953   2.046  20.282  0.00  0.00    +0.000 A 
ATOM      8  C   UNL     1       1.265   2.922  21.112  0.00  0.00    +0.000 A 
ATOM      9  C   UNL     1       1.365   4.297  20.905  0.00  0.00    +0.000 A 
ATOM     10  C   UNL     1       2.157   4.800  19.859  0.00  0.00    +0.000 A 
ATOM     11  C   UNL     1       2.255   6.251  19.679  0.00  0.00    +0.000 C 
ATOM     12  O   UNL     1       1.626   7.006  20.439  0.00  0.00    +0.000 OA
ENDROOT
BRANCH   4  13
ATOM     13  C   UNL     1       5.341   3.978  16.278  0.00  0.00    +0.000 A 
ATOM     14  C   UNL     1       6.604   4.463  16.633  0.00  0.00    +0.000 A 
ATOM     15  C   UNL     1       7.481   4.977  15.695  0.00  0.00    +0.000 A 
ATOM     16  C   UNL     1       7.165   4.903  14.344  0.00  0.00    +0.000 A 
ATOM     17  C   UNL     1       5.948   4.330  13.953  0.00  0.00    +0.000 A 
ATOM     18  C   UNL     1       5.035   3.889  14.911  0.00  0.00    +0.000 A 
ENDBRANCH   4  13
BRANCH   1  19
ATOM     19  O   UNL     1       3.169   8.136  18.284  0.00  0.00    +0.000 OA
BRANCH  19  20
ATOM     20  C   UNL     1       2.107   8.694  17.507  0.00  0.00    +0.000 C 
BRANCH  20  22
ATOM     21  C   UNL     1       0.745  10.573  19.116  0.00  0.00    +0.000 C 
ATOM     22  C   UNL     1       1.374   9.705  18.373  0.00  0.00    +0.000 C 
ENDBRANCH  20  22
ENDBRANCH  19  20
ENDBRANCH   1  19
TORSDOF 4
ENDMDL
MODEL 6
REMARK VINA RESULT:      -7.2      1.240      1.408
REMARK  Name = 
REMARK  4 active torsions:
REMARK  status: ('A' for Active; 'I' for Inactive)
REMARK    1  A    between atoms: C_2  and  C_3
REMARK    2  A    between atoms: C_3  and  O_4
REMARK    3  A    between atoms: O_4  and  C_5
REMARK    4  A    between atoms: N_8  and  C_9
REMARK                            x       y       z     vdW  Elec       q    Type
REMARK                         _______ _______ _______ _____ _____    ______ ____
ROOT
ATOM      1  C   UNL     1       3.190   4.780  19.925  0.00  0.00    +0.000 C 
ATOM      2  C   UNL     1       2.661   5.889  19.446  0.00  0.00    +0.000 C 
ATOM      3  C   UNL     1       3.196   6.678  18.293  0.00  0.00    +0.000 C 
ATOM      4  N   UNL     1       2.786   7.851  17.885  0.00  0.00    +0.000 NA
ATOM      5  C   UNL     1       4.322   6.037  17.570  0.00  0.00    +0.000 A 
ATOM      6  C   UNL     1       4.869   6.658  16.437  0.00  0.00    +0.000 A 
ATOM      7  C   UNL     1       5.950   6.078  15.768  0.00  0.00    +0.000 A 
ATOM      8  C   UNL     1       6.491   4.882  16.222  0.00  0.00    +0.000 A 
ATOM      9  C   UNL     1       5.956   4.261  17.349  0.00  0.00    +0.000 A 
ATOM     10  C   UNL     1       4.870   4.840  18.027  0.00  0.00    +0.000 A 
ATOM     11  C   UNL     1       4.342   4.171  19.220  0.00  0.00    +0.000 C 
ATOM     12  O   UNL     1       4.850   3.102  19.598  0.00  0.00    +0.000 OA
ENDROOT
BRANCH   4  13
ATOM     13  C   UNL     1       1.814   8.582  18.575  0.00  0.00    +0.000 A 
ATOM     14  C   UNL     1       0.897   9.400  17.906  0.00  0.00    +0.000 A 
ATOM     15  C   UNL     1       0.016  10.219  18.587  0.00  0.00    +0.000 A 
ATOM     16  C   UNL     1      -0.060  10.148  19.973  0.00  0.00    +0.000 A 
ATOM     17  C   UNL     1       0.778   9.263  20.663  0.00  0.00    +0.000 A 
ATOM     18  C   UNL     1       1.721   8.501  19.973  0.00  0.00    +0.000 A 
ENDBRANCH   4  13
BRANCH   1  19
ATOM     19  O   UNL     1       2.584   4.171  21.021  0.00  0.00    +0.000 OA
BRANCH  19  20
ATOM     20  C   UNL     1       1.187   3.890  20.902  0.00  0.00    +0.000 C 
BRANCH  20  22
ATOM     21  C   UNL     1       0.827   2.180  18.685  0.00  0.00    +0.000 C 
ATOM     22  C   UNL     1       0.994   2.970  19.709  0.00  0.00    +0.000 C 
ENDBRANCH  20  22
ENDBRANCH  19  20
ENDBRANCH   1  19
TORSDOF 4
ENDMDL
MODEL 7
REMARK VINA RESULT:      -7.2      1.947      4.502
REMARK  Name = 
REMARK  4 active torsions:
REMARK  status: ('A' for Active; 'I' for Inactive)
REMARK    1  A    between atoms: C_2  and  C_3
REMARK    2  A    between atoms: C_3  and  O_4
REMARK    3  A    between atoms: O_4  and  C_5
REMARK    4  A    between atoms: N_8  and  C_9
REMARK                            x       y       z     vdW  Elec       q    Type
REMARK                         _______ _______ _______ _____ _____    ______ ____
ROOT
ATOM      1  C   UNL     1       5.059   6.387  17.131  0.00  0.00    +0.000 C 
ATOM      2  C   UNL     1       4.096   6.999  17.793  0.00  0.00    +0.000 C 
ATOM      3  C   UNL     1       2.839   6.355  18.287  0.00  0.00    +0.000 C 
ATOM      4  N   UNL     1       1.804   6.955  18.815  0.00  0.00    +0.000 NA
ATOM      5  C   UNL     1       2.792   4.881  18.131  0.00  0.00    +0.000 A 
ATOM      6  C   UNL     1       1.686   4.162  18.609  0.00  0.00    +0.000 A 
ATOM      7  C   UNL     1       1.617   2.777  18.439  0.00  0.00    +0.000 A 
ATOM      8  C   UNL     1       2.645   2.102  17.792  0.00  0.00    +0.000 A 
ATOM      9  C   UNL     1       3.745   2.809  17.310  0.00  0.00    +0.000 A 
ATOM     10  C   UNL     1       3.819   4.203  17.477  0.00  0.00    +0.000 A 
ATOM     11  C   UNL     1       4.980   4.919  16.942  0.00  0.00    +0.000 C 
ATOM     12  O   UNL     1       5.882   4.284  16.370  0.00  0.00    +0.000 OA
ENDROOT
BRANCH   4  13
ATOM     13  C   UNL     1       1.710   8.348  18.893  0.00  0.00    +0.000 A 
ATOM     14  C   UNL     1       1.242   8.990  20.045  0.00  0.00    +0.000 A 
ATOM     15  C   UNL     1       1.029  10.355  20.086  0.00  0.00    +0.000 A 
ATOM     16  C   UNL     1       1.402  11.144  19.004  0.00  0.00    +0.000 A 
ATOM     17  C   UNL     1       1.967  10.537  17.875  0.00  0.00    +0.000 A 
ATOM     18  C   UNL     1       2.101   9.150  17.810  0.00  0.00    +0.000 A 
ENDBRANCH   4  13
BRANCH   1  19
ATOM     19  O   UNL     1       6.162   7.130  16.718  0.00  0.00    +0.000 OA
BRANCH  19  20
ATOM     20  C   UNL     1       7.366   6.953  17.468  0.00  0.00    +0.000 C 
BRANCH  20  22
ATOM     21  C   UNL     1       8.395   9.509  18.082  0.00  0.00    +0.000 C 
ATOM     22  C   UNL     1       7.920   8.328  17.798  0.00  0.00    +0.000 C 
ENDBRANCH  20  22
ENDBRANCH  19  20
ENDBRANCH   1  19
TORSDOF 4
ENDMDL
MODEL 8
REMARK VINA RESULT:      -7.0      1.978      4.429
REMARK  Name = 
REMARK  4 active torsions:
REMARK  status: ('A' for Active; 'I' for Inactive)
REMARK    1  A    between atoms: C_2  and  C_3
REMARK    2  A    between atoms: C_3  and  O_4
REMARK    3  A    between atoms: O_4  and  C_5
REMARK    4  A    between atoms: N_8  and  C_9
REMARK                            x       y       z     vdW  Elec       q    Type
REMARK                         _______ _______ _______ _____ _____    ______ ____
ROOT
ATOM      1  C   UNL     1       5.035   6.492  17.120  0.00  0.00    +0.000 C 
ATOM      2  C   UNL     1       4.061   7.101  17.766  0.00  0.00    +0.000 C 
ATOM      3  C   UNL     1       2.799   6.455  18.243  0.00  0.00    +0.000 C 
ATOM      4  N   UNL     1       1.754   7.053  18.755  0.00  0.00    +0.000 NA
ATOM      5  C   UNL     1       2.759   4.980  18.088  0.00  0.00    +0.000 A 
ATOM      6  C   UNL     1       1.648   4.259  18.552  0.00  0.00    +0.000 A 
ATOM      7  C   UNL     1       1.586   2.873  18.383  0.00  0.00    +0.000 A 
ATOM      8  C   UNL     1       2.625   2.200  17.752  0.00  0.00    +0.000 A 
ATOM      9  C   UNL     1       3.730   2.910  17.286  0.00  0.00    +0.000 A 
ATOM     10  C   UNL     1       3.797   4.304  17.451  0.00  0.00    +0.000 A 
ATOM     11  C   UNL     1       4.964   5.023  16.933  0.00  0.00    +0.000 C 
ATOM     12  O   UNL     1       5.876   4.390  16.374  0.00  0.00    +0.000 OA
ENDROOT
BRANCH   4  13
ATOM     13  C   UNL     1       1.655   8.446  18.829  0.00  0.00    +0.000 A 
ATOM     14  C   UNL     1       2.044   9.268  17.767  0.00  0.00    +0.000 A 
ATOM     15  C   UNL     1       2.066  10.646  17.878  0.00  0.00    +0.000 A 
ATOM     16  C   UNL     1       1.572  11.252  19.027  0.00  0.00    +0.000 A 
ATOM     17  C   UNL     1       1.081  10.453  20.068  0.00  0.00    +0.000 A 
ATOM     18  C   UNL     1       1.140   9.062  19.979  0.00  0.00    +0.000 A 
ENDBRANCH   4  13
BRANCH   1  19
ATOM     19  O   UNL     1       6.142   7.238  16.722  0.00  0.00    +0.000 OA
BRANCH  19  20
ATOM     20  C   UNL     1       7.352   7.020  17.451  0.00  0.00    +0.000 C 
BRANCH  20  22
ATOM     21  C   UNL     1       8.438   9.541  18.112  0.00  0.00    +0.000 C 
ATOM     22  C   UNL     1       7.937   8.377  17.806  0.00  0.00    +0.000 C 
ENDBRANCH  20  22
ENDBRANCH  19  20
ENDBRANCH   1  19
TORSDOF 4
ENDMDL
MODEL 9
REMARK VINA RESULT:      -6.9      1.877      5.496
REMARK  Name = 
REMARK  4 active torsions:
REMARK  status: ('A' for Active; 'I' for Inactive)
REMARK    1  A    between atoms: C_2  and  C_3
REMARK    2  A    between atoms: C_3  and  O_4
REMARK    3  A    between atoms: O_4  and  C_5
REMARK    4  A    between atoms: N_8  and  C_9
REMARK                            x       y       z     vdW  Elec       q    Type
REMARK                         _______ _______ _______ _____ _____    ______ ____
ROOT
ATOM      1  C   UNL     1       3.583   4.550  19.501  0.00  0.00    +0.000 C 
ATOM      2  C   UNL     1       4.245   4.960  18.437  0.00  0.00    +0.000 C 
ATOM      3  C   UNL     1       4.016   6.252  17.718  0.00  0.00    +0.000 C 
ATOM      4  N   UNL     1       4.548   6.625  16.583  0.00  0.00    +0.000 NA
ATOM      5  C   UNL     1       3.066   7.175  18.386  0.00  0.00    +0.000 A 
ATOM      6  C   UNL     1       2.816   8.440  17.833  0.00  0.00    +0.000 A 
ATOM      7  C   UNL     1       1.900   9.305  18.437  0.00  0.00    +0.000 A 
ATOM      8  C   UNL     1       1.229   8.917  19.589  0.00  0.00    +0.000 A 
ATOM      9  C   UNL     1       1.469   7.660  20.142  0.00  0.00    +0.000 A 
ATOM     10  C   UNL     1       2.388   6.785  19.539  0.00  0.00    +0.000 A 
ATOM     11  C   UNL     1       2.604   5.464  20.136  0.00  0.00    +0.000 C 
ATOM     12  O   UNL     1       1.987   5.149  21.167  0.00  0.00    +0.000 OA
ENDROOT
BRANCH   4  13
ATOM     13  C   UNL     1       5.359   5.774  15.826  0.00  0.00    +0.000 A 
ATOM     14  C   UNL     1       6.742   5.706  16.026  0.00  0.00    +0.000 A 
ATOM     15  C   UNL     1       7.565   4.963  15.200  0.00  0.00    +0.000 A 
ATOM     16  C   UNL     1       7.006   4.156  14.216  0.00  0.00    +0.000 A 
ATOM     17  C   UNL     1       5.614   4.128  14.059  0.00  0.00    +0.000 A 
ATOM     18  C   UNL     1       4.798   4.944  14.843  0.00  0.00    +0.000 A 
ENDBRANCH   4  13
BRANCH   1  19
ATOM     19  O   UNL     1       3.899   3.307  20.047  0.00  0.00    +0.000 OA
BRANCH  19  20
ATOM     20  C   UNL     1       3.544   2.162  19.269  0.00  0.00    +0.000 C 
BRANCH  20  22
ATOM     21  C   UNL     1       0.759   2.245  18.816  0.00  0.00    +0.000 C 
ATOM     22  C   UNL     1       2.045   2.207  19.025  0.00  0.00    +0.000 C 
ENDBRANCH  20  22
ENDBRANCH  19  20
ENDBRANCH   1  19
TORSDOF 4
ENDMDL
