MODEL 1
REMARK VINA RESULT:      -7.1      0.000      0.000
REMARK  Name = 
REMARK  4 active torsions:
REMARK  status: ('A' for Active; 'I' for Inactive)
REMARK    1  A    between atoms: C_1  and  C_2
REMARK    2  A    between atoms: N_4  and  C_5
REMARK    3  A    between atoms: C_5  and  C_6
REMARK    4  A    between atoms: C_17  and  C_18
REMARK                            x       y       z     vdW  Elec       q    Type
REMARK                         _______ _______ _______ _____ _____    ______ ____
ROOT
ATOM      1  C   UNL     1       2.844   6.764  18.896  0.00  0.00    +0.000 A 
ATOM      2  C   UNL     1       2.736   7.649  17.891  0.00  0.00    +0.000 A 
ATOM      3  C   UNL     1       2.057   8.937  18.135  0.00  0.00    +0.000 A 
ATOM      4  O   UNL     1       2.085   9.815  17.275  0.00  0.00    +0.000 OA
ATOM      5  N   UNL     1       1.456   9.044  19.364  0.00  0.00    +0.000 N 
ATOM      6  C   UNL     1       0.725  10.126  19.790  0.00  0.00    +0.000 A 
ATOM      7  C   UNL     1       0.237   9.991  21.032  0.00  0.00    +0.000 A 
ATOM      8  S   UNL     1       0.709   8.475  21.740  0.00  0.00    +0.000 S 
ATOM      9  C   UNL     1       1.583   8.031  20.283  0.00  0.00    +0.000 A 
ATOM     10  N   UNL     1       2.233   6.928  20.126  0.00  0.00    +0.000 NA
ENDROOT
BRANCH   1  11
ATOM     11  C   UNL     1       3.688   5.506  18.727  0.00  0.00    +0.000 C 
BRANCH  11  15
ATOM     12  C   UNL     1       7.836   7.011  18.147  0.00  0.00    +0.000 C 
ATOM     13  C   UNL     1       7.490   5.531  18.323  0.00  0.00    +0.000 C 
ATOM     14  C   UNL     1       6.113   5.325  18.986  0.00  0.00    +0.000 C 
ATOM     15  N   UNL     1       5.006   5.772  18.110  0.00  0.00    +0.000 NA
ATOM     16  C   UNL     1       5.123   5.050  16.823  0.00  0.00    +0.000 C 
ATOM     17  C   UNL     1       6.520   5.189  16.172  0.00  0.00    +0.000 C 
ATOM     18  C   UNL     1       6.610   4.297  14.936  0.00  0.00    +0.000 C 
ATOM     19  O   UNL     1       7.568   4.812  17.078  0.00  0.00    +0.000 OA
ENDBRANCH  11  15
ENDBRANCH   1  11
TORSDOF 2
ENDMDL
MODEL 2
REMARK VINA RESULT:      -6.6      2.471      3.554
REMARK  Name = 
REMARK  4 active torsions:
REMARK  status: ('A' for Active; 'I' for Inactive)
REMARK    1  A    between atoms: C_1  and  C_2
REMARK    2  A    between atoms: N_4  and  C_5
REMARK    3  A    between atoms: C_5  and  C_6
REMARK    4  A    between atoms: C_17  and  C_18
REMARK                            x       y       z     vdW  Elec       q    Type
REMARK                         _______ _______ _______ _____ _____    ______ ____
ROOT
ATOM      1  C   UNL     1       2.833   7.122  18.535  0.00  0.00    +0.000 A 
ATOM      2  C   UNL     1       2.675   8.148  17.683  0.00  0.00    +0.000 A 
ATOM      3  C   UNL     1       1.989   9.371  18.146  0.00  0.00    +0.000 A 
ATOM      4  O   UNL     1       1.973  10.371  17.431  0.00  0.00    +0.000 OA
ATOM      5  N   UNL     1       1.434   9.278  19.398  0.00  0.00    +0.000 N 
ATOM      6  C   UNL     1       0.707  10.268  20.012  0.00  0.00    +0.000 A 
ATOM      7  C   UNL     1       0.269   9.935  21.235  0.00  0.00    +0.000 A 
ATOM      8  S   UNL     1       0.787   8.337  21.683  0.00  0.00    +0.000 S 
ATOM      9  C   UNL     1       1.609   8.138  20.145  0.00  0.00    +0.000 A 
ATOM     10  N   UNL     1       2.267   7.084  19.797  0.00  0.00    +0.000 NA
ENDROOT
BRANCH   1  11
ATOM     11  C   UNL     1       3.685   5.921  18.143  0.00  0.00    +0.000 C 
BRANCH  11  15
ATOM     12  C   UNL     1       0.889   2.515  18.770  0.00  0.00    +0.000 C 
ATOM     13  C   UNL     1       2.198   2.401  17.986  0.00  0.00    +0.000 C 
ATOM     14  C   UNL     1       2.711   3.772  17.499  0.00  0.00    +0.000 C 
ATOM     15  N   UNL     1       3.131   4.637  18.626  0.00  0.00    +0.000 NA
ATOM     16  C   UNL     1       4.148   3.903  19.410  0.00  0.00    +0.000 C 
ATOM     17  C   UNL     1       3.679   2.496  19.853  0.00  0.00    +0.000 C 
ATOM     18  C   UNL     1       4.831   1.748  20.518  0.00  0.00    +0.000 C 
ATOM     19  O   UNL     1       3.215   1.716  18.740  0.00  0.00    +0.000 OA
ENDBRANCH  11  15
ENDBRANCH   1  11
TORSDOF 2
ENDMDL
MODEL 3
REMARK VINA RESULT:      -6.5      1.758      2.026
REMARK  Name = 
REMARK  4 active torsions:
REMARK  status: ('A' for Active; 'I' for Inactive)
REMARK    1  A    between atoms: C_1  and  C_2
REMARK    2  A    between atoms: N_4  and  C_5
REMARK    3  A    between atoms: C_5  and  C_6
REMARK    4  A    between atoms: C_17  and  C_18
REMARK                            x       y       z     vdW  Elec       q    Type
REMARK                         _______ _______ _______ _____ _____    ______ ____
ROOT
ATOM      1  C   UNL     1       2.833   6.531  18.534  0.00  0.00    +0.000 A 
ATOM      2  C   UNL     1       2.389   6.337  19.787  0.00  0.00    +0.000 A 
ATOM      3  C   UNL     1       1.605   7.400  20.447  0.00  0.00    +0.000 A 
ATOM      4  O   UNL     1       1.064   7.178  21.528  0.00  0.00    +0.000 OA
ATOM      5  N   UNL     1       1.532   8.577  19.745  0.00  0.00    +0.000 N 
ATOM      6  C   UNL     1       0.903   9.716  20.184  0.00  0.00    +0.000 A 
ATOM      7  C   UNL     1       0.971  10.737  19.317  0.00  0.00    +0.000 A 
ATOM      8  S   UNL     1       1.825  10.288  17.871  0.00  0.00    +0.000 S 
ATOM      9  C   UNL     1       2.094   8.669  18.495  0.00  0.00    +0.000 A 
ATOM     10  N   UNL     1       2.718   7.734  17.862  0.00  0.00    +0.000 NA
ENDROOT
BRANCH   1  11
ATOM     11  C   UNL     1       3.491   5.391  17.765  0.00  0.00    +0.000 C 
BRANCH  11  15
ATOM     12  C   UNL     1       7.764   6.482  18.368  0.00  0.00    +0.000 C 
ATOM     13  C   UNL     1       7.285   5.053  18.108  0.00  0.00    +0.000 C 
ATOM     14  C   UNL     1       5.787   4.869  18.428  0.00  0.00    +0.000 C 
ATOM     15  N   UNL     1       4.926   5.630  17.494  0.00  0.00    +0.000 NA
ATOM     16  C   UNL     1       5.262   5.207  16.115  0.00  0.00    +0.000 C 
ATOM     17  C   UNL     1       6.772   5.320  15.795  0.00  0.00    +0.000 C 
ATOM     18  C   UNL     1       7.059   4.724  14.419  0.00  0.00    +0.000 C 
ATOM     19  O   UNL     1       7.574   4.627  16.763  0.00  0.00    +0.000 OA
ENDBRANCH  11  15
ENDBRANCH   1  11
TORSDOF 2
ENDMDL
MODEL 4
REMARK VINA RESULT:      -6.3      3.431      6.014
REMARK  Name = 
REMARK  4 active torsions:
REMARK  status: ('A' for Active; 'I' for Inactive)
REMARK    1  A    between atoms: C_1  and  C_2
REMARK    2  A    between atoms: N_4  and  C_5
REMARK    3  A    between atoms: C_5  and  C_6
REMARK    4  A    between atoms: C_17  and  C_18
REMARK                            x       y       z     vdW  Elec       q    Type
REMARK                         _______ _______ _______ _____ _____    ______ ____
ROOT
ATOM      1  C   UNL     1       4.644   4.256  17.751  0.00  0.00    +0.000 A 
ATOM      2  C   UNL     1       4.446   5.045  16.683  0.00  0.00    +0.000 A 
ATOM      3  C   UNL     1       5.435   6.096  16.370  0.00  0.00    +0.000 A 
ATOM      4  O   UNL     1       5.349   6.722  15.315  0.00  0.00    +0.000 OA
ATOM      5  N   UNL     1       6.414   6.262  17.317  0.00  0.00    +0.000 N 
ATOM      6  C   UNL     1       7.406   7.211  17.264  0.00  0.00    +0.000 A 
ATOM      7  C   UNL     1       8.243   7.173  18.311  0.00  0.00    +0.000 A 
ATOM      8  S   UNL     1       7.823   5.898  19.416  0.00  0.00    +0.000 S 
ATOM      9  C   UNL     1       6.465   5.429  18.408  0.00  0.00    +0.000 A 
ATOM     10  N   UNL     1       5.661   4.454  18.669  0.00  0.00    +0.000 NA
ENDROOT
BRANCH   1  11
ATOM     11  C   UNL     1       3.739   3.055  18.000  0.00  0.00    +0.000 C 
BRANCH  11  15
ATOM     12  C   UNL     1       1.227   2.212  21.577  0.00  0.00    +0.000 C 
ATOM     13  C   UNL     1       2.501   3.059  21.618  0.00  0.00    +0.000 C 
ATOM     14  C   UNL     1       3.423   2.792  20.411  0.00  0.00    +0.000 C 
ATOM     15  N   UNL     1       2.818   3.253  19.140  0.00  0.00    +0.000 NA
ATOM     16  C   UNL     1       2.486   4.688  19.287  0.00  0.00    +0.000 C 
ATOM     17  C   UNL     1       1.616   4.989  20.531  0.00  0.00    +0.000 C 
ATOM     18  C   UNL     1       1.448   6.496  20.697  0.00  0.00    +0.000 C 
ATOM     19  O   UNL     1       2.205   4.464  21.731  0.00  0.00    +0.000 OA
ENDBRANCH  11  15
ENDBRANCH   1  11
TORSDOF 2
ENDMDL
MODEL 5
REMARK VINA RESULT:      -6.2      3.119      4.076
REMARK  Name = 
REMARK  4 active torsions:
REMARK  status: ('A' for Active; 'I' for Inactive)
REMARK    1  A    between atoms: C_1  and  C_2
REMARK    2  A    between atoms: N_4  and  C_5
REMARK    3  A    between atoms: C_5  and  C_6
REMARK    4  A    between atoms: C_17  and  C_18
REMARK                            x       y       z     vdW  Elec       q    Type
REMARK                         _______ _______ _______ _____ _____    ______ ____
ROOT
ATOM      1  C   UNL     1       3.147   5.390  18.110  0.00  0.00    +0.000 A 
ATOM      2  C   UNL     1       2.945   4.298  17.355  0.00  0.00    +0.000 A 
ATOM      3  C   UNL     1       2.353   3.094  17.971  0.00  0.00    +0.000 A 
ATOM      4  O   UNL     1       2.021   2.145  17.264  0.00  0.00    +0.000 OA
ATOM      5  N   UNL     1       2.199   3.165  19.333  0.00  0.00    +0.000 N 
ATOM      6  C   UNL     1       1.719   2.150  20.124  0.00  0.00    +0.000 A 
ATOM      7  C   UNL     1       1.664   2.462  21.427  0.00  0.00    +0.000 A 
ATOM      8  S   UNL     1       2.202   4.090  21.715  0.00  0.00    +0.000 S 
ATOM      9  C   UNL     1       2.512   4.323  20.002  0.00  0.00    +0.000 A 
ATOM     10  N   UNL     1       2.959   5.415  19.481  0.00  0.00    +0.000 NA
ENDROOT
BRANCH   1  11
ATOM     11  C   UNL     1       3.592   6.699  17.468  0.00  0.00    +0.000 C 
BRANCH  11  15
ATOM     12  C   UNL     1       7.952   7.558  17.721  0.00  0.00    +0.000 C 
ATOM     13  C   UNL     1       7.352   6.163  17.912  0.00  0.00    +0.000 C 
ATOM     14  C   UNL     1       5.852   6.213  18.267  0.00  0.00    +0.000 C 
ATOM     15  N   UNL     1       5.034   6.721  17.141  0.00  0.00    +0.000 NA
ATOM     16  C   UNL     1       5.304   5.869  15.961  0.00  0.00    +0.000 C 
ATOM     17  C   UNL     1       6.811   5.751  15.627  0.00  0.00    +0.000 C 
ATOM     18  C   UNL     1       7.017   4.740  14.502  0.00  0.00    +0.000 C 
ATOM     19  O   UNL     1       7.576   5.323  16.764  0.00  0.00    +0.000 OA
ENDBRANCH  11  15
ENDBRANCH   1  11
TORSDOF 2
ENDMDL
MODEL 6
REMARK VINA RESULT:      -6.2      2.424      3.315
REMARK  Name = 
REMARK  4 active torsions:
REMARK  status: ('A' for Active; 'I' for Inactive)
REMARK    1  A    between atoms: C_1  and  C_2
REMARK    2  A    between atoms: N_4  and  C_5
REMARK    3  A    between atoms: C_5  and  C_6
REMARK    4  A    between atoms: C_17  and  C_18
REMARK                            x       y       z     vdW  Elec       q    Type
REMARK                         _______ _______ _______ _____ _____    ______ ____
ROOT
ATOM      1  C   UNL     1       2.089   7.449  19.927  0.00  0.00    +0.000 A 
ATOM      2  C   UNL     1       2.248   7.941  18.688  0.00  0.00    +0.000 A 
ATOM      3  C   UNL     1       1.702   9.275  18.367  0.00  0.00    +0.000 A 
ATOM      4  O   UNL     1       1.971   9.803  17.290  0.00  0.00    +0.000 OA
ATOM      5  N   UNL     1       0.934   9.834  19.358  0.00  0.00    +0.000 N 
ATOM      6  C   UNL     1       0.284  11.040  19.263  0.00  0.00    +0.000 A 
ATOM      7  C   UNL     1      -0.405  11.368  20.366  0.00  0.00    +0.000 A 
ATOM      8  S   UNL     1      -0.239  10.159  21.604  0.00  0.00    +0.000 S 
ATOM      9  C   UNL     1       0.791   9.190  20.563  0.00  0.00    +0.000 A 
ATOM     10  N   UNL     1       1.318   8.061  20.899  0.00  0.00    +0.000 NA
ENDROOT
BRANCH   1  11
ATOM     11  C   UNL     1       2.788   6.158  20.338  0.00  0.00    +0.000 C 
BRANCH  11  15
ATOM     12  C   UNL     1       4.163   3.842  16.795  0.00  0.00    +0.000 C 
ATOM     13  C   UNL     1       4.106   3.266  18.211  0.00  0.00    +0.000 C 
ATOM     14  C   UNL     1       4.084   4.367  19.291  0.00  0.00    +0.000 C 
ATOM     15  N   UNL     1       2.828   5.152  19.254  0.00  0.00    +0.000 NA
ATOM     16  C   UNL     1       1.696   4.208  19.390  0.00  0.00    +0.000 C 
ATOM     17  C   UNL     1       1.735   3.057  18.357  0.00  0.00    +0.000 C 
ATOM     18  C   UNL     1       0.630   2.048  18.659  0.00  0.00    +0.000 C 
ATOM     19  O   UNL     1       2.994   2.367  18.378  0.00  0.00    +0.000 OA
ENDBRANCH  11  15
ENDBRANCH   1  11
TORSDOF 2
ENDMDL
MODEL 7
REMARK VINA RESULT:      -6.2      1.852      2.555
REMARK  Name = 
REMARK  4 active torsions:
REMARK  status: ('A' for Active; 'I' for Inactive)
REMARK    1  A    between atoms: C_1  and  C_2
REMARK    2  A    between atoms: N_4  and  C_5
REMARK    3  A    between atoms: C_5  and  C_6
REMARK    4  A    between atoms: C_17  and  C_18
REMARK                            x       y       z     vdW  Elec       q    Type
REMARK                         _______ _______ _______ _____ _____    ______ ____
ROOT
ATOM      1  C   UNL     1       1.907   7.623  19.891  0.00  0.00    +0.000 A 
ATOM      2  C   UNL     1       2.082   8.170  18.677  0.00  0.00    +0.000 A 
ATOM      3  C   UNL     1       1.673   9.571  18.452  0.00  0.00    +0.000 A 
ATOM      4  O   UNL     1       1.965  10.132  17.397  0.00  0.00    +0.000 OA
ATOM      5  N   UNL     1       0.998  10.147  19.499  0.00  0.00    +0.000 N 
ATOM      6  C   UNL     1       0.478  11.418  19.496  0.00  0.00    +0.000 A 
ATOM      7  C   UNL     1      -0.139  11.750  20.639  0.00  0.00    +0.000 A 
ATOM      8  S   UNL     1      -0.067  10.457  21.800  0.00  0.00    +0.000 S 
ATOM      9  C   UNL     1       0.822   9.450  20.670  0.00  0.00    +0.000 A 
ATOM     10  N   UNL     1       1.235   8.254  20.922  0.00  0.00    +0.000 NA
ENDROOT
BRANCH   1  11
ATOM     11  C   UNL     1       2.476   6.244  20.203  0.00  0.00    +0.000 C 
BRANCH  11  15
ATOM     12  C   UNL     1       5.011   5.434  16.635  0.00  0.00    +0.000 C 
ATOM     13  C   UNL     1       5.105   4.637  17.938  0.00  0.00    +0.000 C 
ATOM     14  C   UNL     1       4.510   5.402  19.138  0.00  0.00    +0.000 C 
ATOM     15  N   UNL     1       3.044   5.571  19.015  0.00  0.00    +0.000 NA
ATOM     16  C   UNL     1       2.443   4.228  18.851  0.00  0.00    +0.000 C 
ATOM     17  C   UNL     1       3.071   3.416  17.693  0.00  0.00    +0.000 C 
ATOM     18  C   UNL     1       2.510   1.997  17.688  0.00  0.00    +0.000 C 
ATOM     19  O   UNL     1       4.500   3.336  17.814  0.00  0.00    +0.000 OA
ENDBRANCH  11  15
ENDBRANCH   1  11
TORSDOF 2
ENDMDL
MODEL 8
REMARK VINA RESULT:      -6.0      2.472      6.829
REMARK  Name = 
REMARK  4 active torsions:
REMARK  status: ('A' for Active; 'I' for Inactive)
REMARK    1  A    between atoms: C_1  and  C_2
REMARK    2  A    between atoms: N_4  and  C_5
REMARK    3  A    between atoms: C_5  and  C_6
REMARK    4  A    between atoms: C_17  and  C_18
REMARK                            x       y       z     vdW  Elec       q    Type
REMARK                         _______ _______ _______ _____ _____    ______ ____
ROOT
ATOM      1  C   UNL     1       3.744   5.657  18.656  0.00  0.00    +0.000 A 
ATOM      2  C   UNL     1       4.745   5.482  19.535  0.00  0.00    +0.000 A 
ATOM      3  C   UNL     1       6.112   5.238  19.032  0.00  0.00    +0.000 A 
ATOM      4  O   UNL     1       7.059   5.230  19.815  0.00  0.00    +0.000 OA
ATOM      5  N   UNL     1       6.199   5.063  17.673  0.00  0.00    +0.000 N 
ATOM      6  C   UNL     1       7.356   4.773  16.991  0.00  0.00    +0.000 A 
ATOM      7  C   UNL     1       7.182   4.647  15.667  0.00  0.00    +0.000 A 
ATOM      8  S   UNL     1       5.526   4.919  15.213  0.00  0.00    +0.000 S 
ATOM      9  C   UNL     1       5.080   5.199  16.888  0.00  0.00    +0.000 A 
ATOM     10  N   UNL     1       3.889   5.486  17.291  0.00  0.00    +0.000 NA
ENDROOT
BRANCH   1  11
ATOM     11  C   UNL     1       2.362   6.082  19.138  0.00  0.00    +0.000 C 
BRANCH  11  15
ATOM     12  C   UNL     1       2.447  10.374  17.962  0.00  0.00    +0.000 C 
ATOM     13  C   UNL     1       1.157   9.569  18.132  0.00  0.00    +0.000 C 
ATOM     14  C   UNL     1       1.399   8.048  18.047  0.00  0.00    +0.000 C 
ATOM     15  N   UNL     1       2.196   7.551  19.193  0.00  0.00    +0.000 NA
ATOM     16  C   UNL     1       1.496   7.940  20.438  0.00  0.00    +0.000 C 
ATOM     17  C   UNL     1       1.183   9.454  20.514  0.00  0.00    +0.000 C 
ATOM     18  C   UNL     1       0.331   9.749  21.745  0.00  0.00    +0.000 C 
ATOM     19  O   UNL     1       0.472   9.908  19.352  0.00  0.00    +0.000 OA
ENDBRANCH  11  15
ENDBRANCH   1  11
TORSDOF 2
ENDMDL
MODEL 9
REMARK VINA RESULT:      -6.0      2.516      6.797
REMARK  Name = 
REMARK  4 active torsions:
REMARK  status: ('A' for Active; 'I' for Inactive)
REMARK    1  A    between atoms: C_1  and  C_2
REMARK    2  A    between atoms: N_4  and  C_5
REMARK    3  A    between atoms: C_5  and  C_6
REMARK    4  A    between atoms: C_17  and  C_18
REMARK                            x       y       z     vdW  Elec       q    Type
REMARK                         _______ _______ _______ _____ _____    ______ ____
ROOT
ATOM      1  C   UNL     1       2.649   7.906  18.204  0.00  0.00    +0.000 A 
ATOM      2  C   UNL     1       3.610   7.395  17.417  0.00  0.00    +0.000 A 
ATOM      3  C   UNL     1       4.020   5.989  17.601  0.00  0.00    +0.000 A 
ATOM      4  O   UNL     1       4.783   5.464  16.792  0.00  0.00    +0.000 OA
ATOM      5  N   UNL     1       3.463   5.367  18.690  0.00  0.00    +0.000 N 
ATOM      6  C   UNL     1       3.737   4.081  19.087  0.00  0.00    +0.000 A 
ATOM      7  C   UNL     1       3.067   3.702  20.185  0.00  0.00    +0.000 A 
ATOM      8  S   UNL     1       2.023   4.967  20.762  0.00  0.00    +0.000 S 
ATOM      9  C   UNL     1       2.539   6.029  19.463  0.00  0.00    +0.000 A 
ATOM     10  N   UNL     1       2.105   7.230  19.282  0.00  0.00    +0.000 NA
ENDROOT
BRANCH   1  11
ATOM     11  C   UNL     1       2.083   9.294  17.927  0.00  0.00    +0.000 C 
BRANCH  11  15
ATOM     12  C   UNL     1      -0.404  10.189  21.508  0.00  0.00    +0.000 C 
ATOM     13  C   UNL     1      -0.077  11.220  20.426  0.00  0.00    +0.000 C 
ATOM     14  C   UNL     1       1.161  10.827  19.595  0.00  0.00    +0.000 C 
ATOM     15  N   UNL     1       0.913   9.621  18.771  0.00  0.00    +0.000 NA
ATOM     16  C   UNL     1      -0.272   9.883  17.924  0.00  0.00    +0.000 C 
ATOM     17  C   UNL     1      -1.509  10.344  18.732  0.00  0.00    +0.000 C 
ATOM     18  C   UNL     1      -2.634  10.740  17.780  0.00  0.00    +0.000 C 
ATOM     19  O   UNL     1      -1.207  11.471  19.569  0.00  0.00    +0.000 OA
ENDBRANCH  11  15
ENDBRANCH   1  11
TORSDOF 2
ENDMDL
