MODEL 1
REMARK VINA RESULT:      -7.5      0.000      0.000
REMARK  Name = 
REMARK  3 active torsions:
REMARK  status: ('A' for Active; 'I' for Inactive)
REMARK    1  A    between atoms: C_2  and  C_16
REMARK    2  A    between atoms: N_3  and  C_4
REMARK    3  A    between atoms: C_9  and  N_10
REMARK                            x       y       z     vdW  Elec       q    Type
REMARK                         _______ _______ _______ _____ _____    ______ ____
ROOT
ATOM      1  C   UNL     1       3.790   5.972  18.124  0.00  0.00    +0.000 A 
ATOM      2  C   UNL     1       4.520   6.687  17.155  0.00  0.00    +0.000 A 
ATOM      3  C   UNL     1       5.162   6.031  16.114  0.00  0.00    +0.000 A 
ATOM      4  C   UNL     1       5.117   4.648  16.059  0.00  0.00    +0.000 A 
ATOM      5  C   UNL     1       4.390   3.934  17.019  0.00  0.00    +0.000 A 
ATOM      6  C   UNL     1       3.668   4.562  18.057  0.00  0.00    +0.000 A 
ENDROOT
BRANCH   6   7
ATOM      7  N   UNL     1       2.881   3.810  18.923  0.00  0.00    +0.000 N 
ATOM      8  C   UNL     1       1.422   3.782  18.766  0.00  0.00    +0.000 C 
ATOM      9  C   UNL     1       0.798   3.928  20.156  0.00  0.00    +0.000 C 
ATOM     10  C   UNL     1       1.324   2.869  21.127  0.00  0.00    +0.000 C 
ATOM     11  C   UNL     1       2.854   2.804  21.122  0.00  0.00    +0.000 C 
ATOM     12  C   UNL     1       3.400   2.676  19.695  0.00  0.00    +0.000 C 
ENDBRANCH   6   7
BRANCH   1  15
ATOM     13  O   UNL     1       1.873   7.964  17.600  0.00  0.00    +0.000 OA
ATOM     14  C   UNL     1       2.165   7.694  18.766  0.00  0.00    +0.000 C 
ATOM     15  N   UNL     1       3.102   6.723  19.103  0.00  0.00    +0.000 N 
ATOM     16  H   UNL     1       3.536   6.788  20.013  0.00  0.00    +0.000 HD
BRANCH  14  17
ATOM     17  C   UNL     1       1.565   8.444  19.867  0.00  0.00    +0.000 A 
ATOM     18  C   UNL     1       1.495   8.027  21.185  0.00  0.00    +0.000 A 
ATOM     19  C   UNL     1       0.892   8.993  22.036  0.00  0.00    +0.000 A 
ATOM     20  C   UNL     1       0.505  10.115  21.340  0.00  0.00    +0.000 A 
ATOM     21  S   UNL     1       0.865   9.993  19.670  0.00  0.00    +0.000 S 
ENDBRANCH  14  17
ENDBRANCH   1  15
TORSDOF 3
ENDMDL
MODEL 2
REMARK VINA RESULT:      -7.3      1.888      4.097
REMARK  Name = 
REMARK  3 active torsions:
REMARK  status: ('A' for Active; 'I' for Inactive)
REMARK    1  A    between atoms: C_2  and  C_16
REMARK    2  A    between atoms: N_3  and  C_4
REMARK    3  A    between atoms: C_9  and  N_10
REMARK                            x       y       z     vdW  Elec       q    Type
REMARK                         _______ _______ _______ _____ _____    ______ ____
ROOT
ATOM      1  C   UNL     1       2.393   4.271  18.118  0.00  0.00    +0.000 A 
ATOM      2  C   UNL     1       1.344   3.453  18.579  0.00  0.00    +0.000 A 
ATOM      3  C   UNL     1       1.525   2.087  18.755  0.00  0.00    +0.000 A 
ATOM      4  C   UNL     1       2.744   1.521  18.427  0.00  0.00    +0.000 A 
ATOM      5  C   UNL     1       3.791   2.332  17.970  0.00  0.00    +0.000 A 
ATOM      6  C   UNL     1       3.674   3.733  17.839  0.00  0.00    +0.000 A 
ENDROOT
BRANCH   6   7
ATOM      7  N   UNL     1       4.776   4.501  17.478  0.00  0.00    +0.000 N 
ATOM      8  C   UNL     1       5.974   4.527  18.326  0.00  0.00    +0.000 C 
ATOM      9  C   UNL     1       6.435   5.982  18.440  0.00  0.00    +0.000 C 
ATOM     10  C   UNL     1       6.651   6.619  17.067  0.00  0.00    +0.000 C 
ATOM     11  C   UNL     1       5.445   6.407  16.147  0.00  0.00    +0.000 C 
ATOM     12  C   UNL     1       5.035   4.930  16.099  0.00  0.00    +0.000 C 
ENDBRANCH   6   7
BRANCH   1  15
ATOM     13  O   UNL     1       2.996   6.142  20.130  0.00  0.00    +0.000 OA
ATOM     14  C   UNL     1       2.474   6.525  19.083  0.00  0.00    +0.000 C 
ATOM     15  N   UNL     1       2.147   5.661  18.043  0.00  0.00    +0.000 N 
ATOM     16  H   UNL     1       1.439   5.961  17.390  0.00  0.00    +0.000 HD
BRANCH  14  17
ATOM     17  C   UNL     1       2.116   7.931  18.909  0.00  0.00    +0.000 A 
ATOM     18  C   UNL     1       2.415   8.711  17.805  0.00  0.00    +0.000 A 
ATOM     19  C   UNL     1       1.896  10.030  17.908  0.00  0.00    +0.000 A 
ATOM     20  C   UNL     1       1.228  10.224  19.096  0.00  0.00    +0.000 A 
ATOM     21  S   UNL     1       1.237   8.821  20.076  0.00  0.00    +0.000 S 
ENDBRANCH  14  17
ENDBRANCH   1  15
TORSDOF 3
ENDMDL
MODEL 3
REMARK VINA RESULT:      -7.2      2.571      5.470
REMARK  Name = 
REMARK  3 active torsions:
REMARK  status: ('A' for Active; 'I' for Inactive)
REMARK    1  A    between atoms: C_2  and  C_16
REMARK    2  A    between atoms: N_3  and  C_4
REMARK    3  A    between atoms: C_9  and  N_10
REMARK                            x       y       z     vdW  Elec       q    Type
REMARK                         _______ _______ _______ _____ _____    ______ ____
ROOT
ATOM      1  C   UNL     1       2.739   6.142  18.631  0.00  0.00    +0.000 A 
ATOM      2  C   UNL     1       2.561   7.519  18.861  0.00  0.00    +0.000 A 
ATOM      3  C   UNL     1       1.877   7.977  19.979  0.00  0.00    +0.000 A 
ATOM      4  C   UNL     1       1.324   7.057  20.854  0.00  0.00    +0.000 A 
ATOM      5  C   UNL     1       1.501   5.686  20.630  0.00  0.00    +0.000 A 
ATOM      6  C   UNL     1       2.245   5.177  19.544  0.00  0.00    +0.000 A 
ENDROOT
BRANCH   6   7
ATOM      7  N   UNL     1       2.474   3.810  19.426  0.00  0.00    +0.000 N 
ATOM      8  C   UNL     1       3.215   3.088  20.468  0.00  0.00    +0.000 C 
ATOM      9  C   UNL     1       4.211   2.155  19.774  0.00  0.00    +0.000 C 
ATOM     10  C   UNL     1       3.517   1.230  18.772  0.00  0.00    +0.000 C 
ATOM     11  C   UNL     1       2.607   2.008  17.818  0.00  0.00    +0.000 C 
ATOM     12  C   UNL     1       1.653   2.930  18.588  0.00  0.00    +0.000 C 
ENDBRANCH   6   7
BRANCH   1  15
ATOM     13  O   UNL     1       5.436   5.345  18.714  0.00  0.00    +0.000 OA
ATOM     14  C   UNL     1       4.847   5.382  17.633  0.00  0.00    +0.000 C 
ATOM     15  N   UNL     1       3.516   5.765  17.512  0.00  0.00    +0.000 N 
ATOM     16  H   UNL     1       3.204   6.098  16.611  0.00  0.00    +0.000 HD
BRANCH  14  17
ATOM     17  C   UNL     1       5.560   5.073  16.395  0.00  0.00    +0.000 A 
ATOM     18  C   UNL     1       5.047   4.364  15.323  0.00  0.00    +0.000 A 
ATOM     19  C   UNL     1       5.965   4.262  14.242  0.00  0.00    +0.000 A 
ATOM     20  C   UNL     1       7.159   4.883  14.527  0.00  0.00    +0.000 A 
ATOM     21  S   UNL     1       7.166   5.578  16.092  0.00  0.00    +0.000 S 
ENDBRANCH  14  17
ENDBRANCH   1  15
TORSDOF 3
ENDMDL
MODEL 4
REMARK VINA RESULT:      -7.2      1.906      3.930
REMARK  Name = 
REMARK  3 active torsions:
REMARK  status: ('A' for Active; 'I' for Inactive)
REMARK    1  A    between atoms: C_2  and  C_16
REMARK    2  A    between atoms: N_3  and  C_4
REMARK    3  A    between atoms: C_9  and  N_10
REMARK                            x       y       z     vdW  Elec       q    Type
REMARK                         _______ _______ _______ _____ _____    ______ ____
ROOT
ATOM      1  C   UNL     1       2.482   4.653  18.053  0.00  0.00    +0.000 A 
ATOM      2  C   UNL     1       1.399   3.773  18.241  0.00  0.00    +0.000 A 
ATOM      3  C   UNL     1       1.596   2.401  18.323  0.00  0.00    +0.000 A 
ATOM      4  C   UNL     1       2.875   1.894  18.171  0.00  0.00    +0.000 A 
ATOM      5  C   UNL     1       3.956   2.767  17.987  0.00  0.00    +0.000 A 
ATOM      6  C   UNL     1       3.811   4.171  17.963  0.00  0.00    +0.000 A 
ENDROOT
BRANCH   6   7
ATOM      7  N   UNL     1       4.930   4.993  17.879  0.00  0.00    +0.000 N 
ATOM      8  C   UNL     1       5.193   5.766  16.659  0.00  0.00    +0.000 C 
ATOM      9  C   UNL     1       6.682   5.633  16.332  0.00  0.00    +0.000 C 
ATOM     10  C   UNL     1       7.561   6.047  17.513  0.00  0.00    +0.000 C 
ATOM     11  C   UNL     1       7.133   5.354  18.810  0.00  0.00    +0.000 C 
ATOM     12  C   UNL     1       5.628   5.518  19.057  0.00  0.00    +0.000 C 
ENDBRANCH   6   7
BRANCH   1  15
ATOM     13  O   UNL     1       2.394   6.284  20.344  0.00  0.00    +0.000 OA
ATOM     14  C   UNL     1       2.176   6.780  19.237  0.00  0.00    +0.000 C 
ATOM     15  N   UNL     1       2.202   6.038  18.061  0.00  0.00    +0.000 N 
ATOM     16  H   UNL     1       1.696   6.403  17.267  0.00  0.00    +0.000 HD
BRANCH  14  17
ATOM     17  C   UNL     1       1.816   8.191  19.121  0.00  0.00    +0.000 A 
ATOM     18  C   UNL     1       2.021   8.988  18.008  0.00  0.00    +0.000 A 
ATOM     19  C   UNL     1       1.524  10.309  18.179  0.00  0.00    +0.000 A 
ATOM     20  C   UNL     1       0.967  10.487  19.424  0.00  0.00    +0.000 A 
ATOM     21  S   UNL     1       1.052   9.066  20.377  0.00  0.00    +0.000 S 
ENDBRANCH  14  17
ENDBRANCH   1  15
TORSDOF 3
ENDMDL
MODEL 5
REMARK VINA RESULT:      -7.1      0.984      1.226
REMARK  Name = 
REMARK  3 active torsions:
REMARK  status: ('A' for Active; 'I' for Inactive)
REMARK    1  A    between atoms: C_2  and  C_16
REMARK    2  A    between atoms: N_3  and  C_4
REMARK    3  A    between atoms: C_9  and  N_10
REMARK                            x       y       z     vdW  Elec       q    Type
REMARK                         _______ _______ _______ _____ _____    ______ ____
ROOT
ATOM      1  C   UNL     1       3.727   6.213  17.844  0.00  0.00    +0.000 A 
ATOM      2  C   UNL     1       4.449   6.961  16.894  0.00  0.00    +0.000 A 
ATOM      3  C   UNL     1       5.214   6.334  15.920  0.00  0.00    +0.000 A 
ATOM      4  C   UNL     1       5.300   4.952  15.916  0.00  0.00    +0.000 A 
ATOM      5  C   UNL     1       4.581   4.204  16.858  0.00  0.00    +0.000 A 
ATOM      6  C   UNL     1       3.739   4.796  17.824  0.00  0.00    +0.000 A 
ENDROOT
BRANCH   6   7
ATOM      7  N   UNL     1       2.970   4.002  18.669  0.00  0.00    +0.000 N 
ATOM      8  C   UNL     1       2.137   2.925  18.122  0.00  0.00    +0.000 C 
ATOM      9  C   UNL     1       0.775   2.988  18.817  0.00  0.00    +0.000 C 
ATOM     10  C   UNL     1       0.912   2.934  20.340  0.00  0.00    +0.000 C 
ATOM     11  C   UNL     1       1.934   3.952  20.854  0.00  0.00    +0.000 C 
ATOM     12  C   UNL     1       3.263   3.837  20.097  0.00  0.00    +0.000 C 
ENDBRANCH   6   7
BRANCH   1  15
ATOM     13  O   UNL     1       2.326   8.580  17.254  0.00  0.00    +0.000 OA
ATOM     14  C   UNL     1       2.248   8.095  18.383  0.00  0.00    +0.000 C 
ATOM     15  N   UNL     1       2.911   6.928  18.749  0.00  0.00    +0.000 N 
ATOM     16  H   UNL     1       3.085   6.778  19.733  0.00  0.00    +0.000 HD
BRANCH  14  17
ATOM     17  C   UNL     1       1.483   8.774  19.426  0.00  0.00    +0.000 A 
ATOM     18  C   UNL     1       0.787   9.961  19.274  0.00  0.00    +0.000 A 
ATOM     19  C   UNL     1       0.102  10.352  20.457  0.00  0.00    +0.000 A 
ATOM     20  C   UNL     1       0.308   9.459  21.483  0.00  0.00    +0.000 A 
ATOM     21  S   UNL     1       1.326   8.164  21.017  0.00  0.00    +0.000 S 
ENDBRANCH  14  17
ENDBRANCH   1  15
TORSDOF 3
ENDMDL
MODEL 6
REMARK VINA RESULT:      -6.8      1.857      3.976
REMARK  Name = 
REMARK  3 active torsions:
REMARK  status: ('A' for Active; 'I' for Inactive)
REMARK    1  A    between atoms: C_2  and  C_16
REMARK    2  A    between atoms: N_3  and  C_4
REMARK    3  A    between atoms: C_9  and  N_10
REMARK                            x       y       z     vdW  Elec       q    Type
REMARK                         _______ _______ _______ _____ _____    ______ ____
ROOT
ATOM      1  C   UNL     1       2.530   4.450  18.113  0.00  0.00    +0.000 A 
ATOM      2  C   UNL     1       1.483   3.585  18.482  0.00  0.00    +0.000 A 
ATOM      3  C   UNL     1       1.681   2.213  18.560  0.00  0.00    +0.000 A 
ATOM      4  C   UNL     1       2.918   1.690  18.223  0.00  0.00    +0.000 A 
ATOM      5  C   UNL     1       3.963   2.548  17.858  0.00  0.00    +0.000 A 
ATOM      6  C   UNL     1       3.827   3.953  17.829  0.00  0.00    +0.000 A 
ENDROOT
BRANCH   6   7
ATOM      7  N   UNL     1       4.925   4.762  17.558  0.00  0.00    +0.000 N 
ATOM      8  C   UNL     1       6.231   4.468  18.159  0.00  0.00    +0.000 C 
ATOM      9  C   UNL     1       6.826   5.788  18.657  0.00  0.00    +0.000 C 
ATOM     10  C   UNL     1       6.893   6.835  17.544  0.00  0.00    +0.000 C 
ATOM     11  C   UNL     1       5.552   6.978  16.818  0.00  0.00    +0.000 C 
ATOM     12  C   UNL     1       5.016   5.613  16.367  0.00  0.00    +0.000 C 
ENDBRANCH   6   7
BRANCH   1  15
ATOM     13  O   UNL     1       2.329   6.031  20.432  0.00  0.00    +0.000 OA
ATOM     14  C   UNL     1       2.180   6.553  19.327  0.00  0.00    +0.000 C 
ATOM     15  N   UNL     1       2.265   5.838  18.137  0.00  0.00    +0.000 N 
ATOM     16  H   UNL     1       1.809   6.226  17.324  0.00  0.00    +0.000 HD
BRANCH  14  17
ATOM     17  C   UNL     1       1.841   7.971  19.222  0.00  0.00    +0.000 A 
ATOM     18  C   UNL     1       1.274   8.742  20.222  0.00  0.00    +0.000 A 
ATOM     19  C   UNL     1       1.102  10.100  19.838  0.00  0.00    +0.000 A 
ATOM     20  C   UNL     1       1.530  10.323  18.549  0.00  0.00    +0.000 A 
ATOM     21  S   UNL     1       2.128   8.898  17.813  0.00  0.00    +0.000 S 
ENDBRANCH  14  17
ENDBRANCH   1  15
TORSDOF 3
ENDMDL
MODEL 7
REMARK VINA RESULT:      -6.8      0.665      1.203
REMARK  Name = 
REMARK  3 active torsions:
REMARK  status: ('A' for Active; 'I' for Inactive)
REMARK    1  A    between atoms: C_2  and  C_16
REMARK    2  A    between atoms: N_3  and  C_4
REMARK    3  A    between atoms: C_9  and  N_10
REMARK                            x       y       z     vdW  Elec       q    Type
REMARK                         _______ _______ _______ _____ _____    ______ ____
ROOT
ATOM      1  C   UNL     1       3.803   6.350  18.046  0.00  0.00    +0.000 A 
ATOM      2  C   UNL     1       4.635   7.012  17.123  0.00  0.00    +0.000 A 
ATOM      3  C   UNL     1       5.272   6.317  16.104  0.00  0.00    +0.000 A 
ATOM      4  C   UNL     1       5.118   4.944  16.027  0.00  0.00    +0.000 A 
ATOM      5  C   UNL     1       4.289   4.281  16.941  0.00  0.00    +0.000 A 
ATOM      6  C   UNL     1       3.570   4.955  17.951  0.00  0.00    +0.000 A 
ENDROOT
BRANCH   6   7
ATOM      7  N   UNL     1       2.683   4.261  18.768  0.00  0.00    +0.000 N 
ATOM      8  C   UNL     1       2.834   4.296  20.227  0.00  0.00    +0.000 C 
ATOM      9  C   UNL     1       2.645   2.870  20.752  0.00  0.00    +0.000 C 
ATOM     10  C   UNL     1       1.315   2.269  20.294  0.00  0.00    +0.000 C 
ATOM     11  C   UNL     1       1.115   2.420  18.784  0.00  0.00    +0.000 C 
ATOM     12  C   UNL     1       1.337   3.869  18.336  0.00  0.00    +0.000 C 
ENDBRANCH   6   7
BRANCH   1  15
ATOM     13  O   UNL     1       1.654   8.082  17.503  0.00  0.00    +0.000 OA
ATOM     14  C   UNL     1       2.074   7.979  18.656  0.00  0.00    +0.000 C 
ATOM     15  N   UNL     1       3.131   7.144  19.001  0.00  0.00    +0.000 N 
ATOM     16  H   UNL     1       3.635   7.355  19.851  0.00  0.00    +0.000 HD
BRANCH  14  17
ATOM     17  C   UNL     1       1.500   8.795  19.724  0.00  0.00    +0.000 A 
ATOM     18  C   UNL     1       1.335   8.401  21.041  0.00  0.00    +0.000 A 
ATOM     19  C   UNL     1       0.789   9.430  21.856  0.00  0.00    +0.000 A 
ATOM     20  C   UNL     1       0.539  10.574  21.135  0.00  0.00    +0.000 A 
ATOM     21  S   UNL     1       0.958  10.400  19.484  0.00  0.00    +0.000 S 
ENDBRANCH  14  17
ENDBRANCH   1  15
TORSDOF 3
ENDMDL
MODEL 8
REMARK VINA RESULT:      -6.7      1.023      1.134
REMARK  Name = 
REMARK  3 active torsions:
REMARK  status: ('A' for Active; 'I' for Inactive)
REMARK    1  A    between atoms: C_2  and  C_16
REMARK    2  A    between atoms: N_3  and  C_4
REMARK    3  A    between atoms: C_9  and  N_10
REMARK                            x       y       z     vdW  Elec       q    Type
REMARK                         _______ _______ _______ _____ _____    ______ ____
ROOT
ATOM      1  C   UNL     1       4.633   5.926  17.874  0.00  0.00    +0.000 A 
ATOM      2  C   UNL     1       5.585   6.740  17.232  0.00  0.00    +0.000 A 
ATOM      3  C   UNL     1       6.495   6.204  16.330  0.00  0.00    +0.000 A 
ATOM      4  C   UNL     1       6.489   4.839  16.098  0.00  0.00    +0.000 A 
ATOM      5  C   UNL     1       5.542   4.026  16.733  0.00  0.00    +0.000 A 
ATOM      6  C   UNL     1       4.557   4.537  17.606  0.00  0.00    +0.000 A 
ENDROOT
BRANCH   6   7
ATOM      7  N   UNL     1       3.578   3.699  18.130  0.00  0.00    +0.000 N 
ATOM      8  C   UNL     1       2.341   3.443  17.382  0.00  0.00    +0.000 C 
ATOM      9  C   UNL     1       1.172   3.532  18.366  0.00  0.00    +0.000 C 
ATOM     10  C   UNL     1       1.362   2.596  19.561  0.00  0.00    +0.000 C 
ATOM     11  C   UNL     1       2.743   2.767  20.200  0.00  0.00    +0.000 C 
ATOM     12  C   UNL     1       3.857   2.682  19.149  0.00  0.00    +0.000 C 
ENDBRANCH   6   7
BRANCH   1  15
ATOM     13  O   UNL     1       2.836   7.938  17.077  0.00  0.00    +0.000 OA
ATOM     14  C   UNL     1       2.837   7.554  18.247  0.00  0.00    +0.000 C 
ATOM     15  N   UNL     1       3.695   6.565  18.715  0.00  0.00    +0.000 N 
ATOM     16  H   UNL     1       3.885   6.541  19.707  0.00  0.00    +0.000 HD
BRANCH  14  17
ATOM     17  C   UNL     1       1.953   8.180  19.228  0.00  0.00    +0.000 A 
ATOM     18  C   UNL     1       1.699   7.708  20.504  0.00  0.00    +0.000 A 
ATOM     19  C   UNL     1       0.829   8.557  21.241  0.00  0.00    +0.000 A 
ATOM     20  C   UNL     1       0.433   9.647  20.501  0.00  0.00    +0.000 A 
ATOM     21  S   UNL     1       1.105   9.635  18.926  0.00  0.00    +0.000 S 
ENDBRANCH  14  17
ENDBRANCH   1  15
TORSDOF 3
ENDMDL
MODEL 9
REMARK VINA RESULT:      -6.6      1.408      1.616
REMARK  Name = 
REMARK  3 active torsions:
REMARK  status: ('A' for Active; 'I' for Inactive)
REMARK    1  A    between atoms: C_2  and  C_16
REMARK    2  A    between atoms: N_3  and  C_4
REMARK    3  A    between atoms: C_9  and  N_10
REMARK                            x       y       z     vdW  Elec       q    Type
REMARK                         _______ _______ _______ _____ _____    ______ ____
ROOT
ATOM      1  C   UNL     1       4.340   5.480  16.893  0.00  0.00    +0.000 A 
ATOM      2  C   UNL     1       5.207   6.090  15.967  0.00  0.00    +0.000 A 
ATOM      3  C   UNL     1       6.081   5.333  15.198  0.00  0.00    +0.000 A 
ATOM      4  C   UNL     1       6.127   3.962  15.382  0.00  0.00    +0.000 A 
ATOM      5  C   UNL     1       5.264   3.351  16.301  0.00  0.00    +0.000 A 
ATOM      6  C   UNL     1       4.314   4.072  17.056  0.00  0.00    +0.000 A 
ENDROOT
BRANCH   6   7
ATOM      7  N   UNL     1       3.413   3.403  17.879  0.00  0.00    +0.000 N 
ATOM      8  C   UNL     1       2.002   3.283  17.492  0.00  0.00    +0.000 C 
ATOM      9  C   UNL     1       1.150   3.580  18.728  0.00  0.00    +0.000 C 
ATOM     10  C   UNL     1       1.534   2.687  19.910  0.00  0.00    +0.000 C 
ATOM     11  C   UNL     1       3.044   2.699  20.162  0.00  0.00    +0.000 C 
ATOM     12  C   UNL     1       3.826   2.410  18.875  0.00  0.00    +0.000 C 
ENDBRANCH   6   7
BRANCH   1  15
ATOM     13  O   UNL     1       4.268   5.881  19.677  0.00  0.00    +0.000 OA
ATOM     14  C   UNL     1       3.454   6.463  18.959  0.00  0.00    +0.000 C 
ATOM     15  N   UNL     1       3.428   6.315  17.576  0.00  0.00    +0.000 N 
ATOM     16  H   UNL     1       2.563   6.528  17.099  0.00  0.00    +0.000 HD
BRANCH  14  17
ATOM     17  C   UNL     1       2.421   7.309  19.552  0.00  0.00    +0.000 A 
ATOM     18  C   UNL     1       1.797   7.090  20.768  0.00  0.00    +0.000 A 
ATOM     19  C   UNL     1       0.865   8.110  21.099  0.00  0.00    +0.000 A 
ATOM     20  C   UNL     1       0.793   9.073  20.119  0.00  0.00    +0.000 A 
ATOM     21  S   UNL     1       1.842   8.737  18.808  0.00  0.00    +0.000 S 
ENDBRANCH  14  17
ENDBRANCH   1  15
TORSDOF 3
ENDMDL
