MODEL 1
REMARK VINA RESULT:      -6.4      0.000      0.000
REMARK  Name = 
REMARK  10 active torsions:
REMARK  status: ('A' for Active; 'I' for Inactive)
REMARK    1  A    between atoms: C_1  and  N_2
REMARK    2  A    between atoms: N_2  and  CA_3
REMARK    3  A    between atoms: CA_3  and  C_4
REMARK    4  A    between atoms: CA_3  and  C_14
REMARK    5  A    between atoms: C_4  and  C_5
REMARK    6  A    between atoms: C_6  and  C_7
REMARK    7  A    between atoms: C_9  and  O_10
REMARK    8  A    between atoms: C_12  and  C_13
REMARK    9  A    between atoms: CA_25  and  C_26
REMARK   10  A    between atoms: C_26  and  OXT_28
REMARK                            x       y       z     vdW  Elec       q    Type
REMARK                         _______ _______ _______ _____ _____    ______ ____
ROOT
ATOM      1  C   UNL     1      -0.810  11.253  22.545  0.00  0.00    +0.000 C 
ATOM      2  O   UNL     1      -0.698  10.480  23.510  0.00  0.00    +0.000 OA
ATOM      3  N   UNL     1      -0.376  10.772  21.304  0.00  0.00    +0.000 N 
ATOM      4  C   UNL     1      -0.243   9.307  21.171  0.00  0.00    +0.000 C 
ATOM      5  C   UNL     1       0.715   8.922  20.069  0.00  0.00    +0.000 A 
ATOM      6  C   UNL     1       1.655   7.902  20.225  0.00  0.00    +0.000 A 
ATOM      7  C   UNL     1       2.550   7.628  19.188  0.00  0.00    +0.000 A 
ATOM      8  C   UNL     1       2.488   8.333  17.981  0.00  0.00    +0.000 A 
ATOM      9  C   UNL     1       1.534   9.330  17.812  0.00  0.00    +0.000 A 
ATOM     10  C   UNL     1       0.662   9.627  18.855  0.00  0.00    +0.000 A 
ATOM     11  C   UNL     1      -0.316  10.756  18.763  0.00  0.00    +0.000 C 
ATOM     12  CA  UNL     1      -0.244  11.566  20.059  0.00  0.00    +0.000 C 
ENDROOT
BRANCH  12  13
ATOM     13  C   UNL     1       1.023  12.428  20.097  0.00  0.00    +0.000 C 
ATOM     14  O   UNL     1       1.787  12.465  21.051  0.00  0.00    +0.000 OA
BRANCH  13  15
ATOM     15  OXT UNL     1       1.226  13.158  18.976  0.00  0.00    +0.000 OA
ATOM     16  HXT UNL     1       1.073  12.613  18.174  0.00  0.00    +0.000 HD
ENDBRANCH  13  15
ENDBRANCH  12  13
BRANCH   1  17
ATOM     17  CA  UNL     1      -1.316  12.738  22.781  0.00  0.00    +0.000 C 
BRANCH  17  19
ATOM     18  C   UNL     1      -0.246  14.983  22.486  0.00  0.00    +0.000 C 
ATOM     19  N   UNL     1      -0.217  13.692  23.154  0.00  0.00    +0.000 NA
ATOM     20  H   UNL     1      -0.250  13.863  24.158  0.00  0.00    +0.000 HD
ENDBRANCH  17  19
BRANCH  17  21
ATOM     21  C   UNL     1      -2.422  12.998  23.834  0.00  0.00    +0.000 C 
BRANCH  21  22
ATOM     22  C   UNL     1      -3.569  14.014  23.689  0.00  0.00    +0.000 A 
ATOM     23  C   UNL     1      -4.641  13.959  22.764  0.00  0.00    +0.000 A 
ATOM     24  C   UNL     1      -4.928  12.928  21.704  0.00  0.00    +0.000 C 
ATOM     25  C   UNL     1      -5.628  14.976  22.782  0.00  0.00    +0.000 A 
ATOM     26  C   UNL     1      -5.574  16.028  23.676  0.00  0.00    +0.000 A 
ATOM     27  C   UNL     1      -4.530  16.118  24.570  0.00  0.00    +0.000 A 
ATOM     28  C   UNL     1      -3.528  15.133  24.595  0.00  0.00    +0.000 A 
ATOM     29  C   UNL     1      -2.391  15.365  25.568  0.00  0.00    +0.000 C 
BRANCH  26  30
ATOM     30  O   UNL     1      -6.530  17.003  23.690  0.00  0.00    +0.000 OA
ATOM     31  H   UNL     1      -6.109  17.833  23.968  0.00  0.00    +0.000 HD
ENDBRANCH  26  30
ENDBRANCH  21  22
ENDBRANCH  17  21
ENDBRANCH   1  17
TORSDOF 7
ENDMDL
MODEL 2
REMARK VINA RESULT:      -6.3      4.420     10.150
REMARK  Name = 
REMARK  10 active torsions:
REMARK  status: ('A' for Active; 'I' for Inactive)
REMARK    1  A    between atoms: C_1  and  N_2
REMARK    2  A    between atoms: N_2  and  CA_3
REMARK    3  A    between atoms: CA_3  and  C_4
REMARK    4  A    between atoms: CA_3  and  C_14
REMARK    5  A    between atoms: C_4  and  C_5
REMARK    6  A    between atoms: C_6  and  C_7
REMARK    7  A    between atoms: C_9  and  O_10
REMARK    8  A    between atoms: C_12  and  C_13
REMARK    9  A    between atoms: CA_25  and  C_26
REMARK   10  A    between atoms: C_26  and  OXT_28
REMARK                            x       y       z     vdW  Elec       q    Type
REMARK                         _______ _______ _______ _____ _____    ______ ____
ROOT
ATOM      1  C   UNL     1       2.246   8.209  18.407  0.00  0.00    +0.000 C 
ATOM      2  O   UNL     1       3.350   8.385  17.869  0.00  0.00    +0.000 OA
ATOM      3  N   UNL     1       1.496   9.357  18.687  0.00  0.00    +0.000 N 
ATOM      4  C   UNL     1       1.864  10.585  17.953  0.00  0.00    +0.000 C 
ATOM      5  C   UNL     1       1.422  11.833  18.679  0.00  0.00    +0.000 A 
ATOM      6  C   UNL     1       2.243  12.956  18.792  0.00  0.00    +0.000 A 
ATOM      7  C   UNL     1       1.798  14.062  19.522  0.00  0.00    +0.000 A 
ATOM      8  C   UNL     1       0.526  14.074  20.102  0.00  0.00    +0.000 A 
ATOM      9  C   UNL     1      -0.305  12.968  19.967  0.00  0.00    +0.000 A 
ATOM     10  C   UNL     1       0.147  11.853  19.268  0.00  0.00    +0.000 A 
ATOM     11  C   UNL     1      -0.667  10.600  19.178  0.00  0.00    +0.000 C 
ATOM     12  CA  UNL     1       0.244   9.408  19.481  0.00  0.00    +0.000 C 
ENDROOT
BRANCH  12  13
ATOM     13  C   UNL     1       0.547   9.318  20.980  0.00  0.00    +0.000 C 
ATOM     14  O   UNL     1       1.533   9.821  21.502  0.00  0.00    +0.000 OA
BRANCH  13  15
ATOM     15  OXT UNL     1      -0.372   8.622  21.688  0.00  0.00    +0.000 OA
ATOM     16  HXT UNL     1      -0.546   7.752  21.268  0.00  0.00    +0.000 HD
ENDBRANCH  13  15
ENDBRANCH  12  13
BRANCH   1  17
ATOM     17  CA  UNL     1       1.806   6.747  18.840  0.00  0.00    +0.000 C 
BRANCH  17  19
ATOM     18  C   UNL     1       1.836   5.745  21.135  0.00  0.00    +0.000 C 
ATOM     19  N   UNL     1       2.605   6.198  19.987  0.00  0.00    +0.000 NA
ATOM     20  H   UNL     1       3.162   5.410  19.660  0.00  0.00    +0.000 HD
ENDBRANCH  17  19
BRANCH  17  21
ATOM     21  C   UNL     1       1.821   5.613  17.785  0.00  0.00    +0.000 C 
BRANCH  21  22
ATOM     22  C   UNL     1       2.405   4.205  17.999  0.00  0.00    +0.000 A 
ATOM     23  C   UNL     1       1.761   3.104  18.616  0.00  0.00    +0.000 A 
ATOM     24  C   UNL     1       0.382   3.025  19.215  0.00  0.00    +0.000 C 
ATOM     25  C   UNL     1       2.442   1.865  18.712  0.00  0.00    +0.000 A 
ATOM     26  C   UNL     1       3.724   1.699  18.224  0.00  0.00    +0.000 A 
ATOM     27  C   UNL     1       4.381   2.759  17.640  0.00  0.00    +0.000 A 
ATOM     28  C   UNL     1       3.748   4.008  17.518  0.00  0.00    +0.000 A 
ATOM     29  C   UNL     1       4.584   5.123  16.925  0.00  0.00    +0.000 C 
BRANCH  26  30
ATOM     30  O   UNL     1       4.374   0.501  18.316  0.00  0.00    +0.000 OA
ATOM     31  H   UNL     1       3.963  -0.114  17.687  0.00  0.00    +0.000 HD
ENDBRANCH  26  30
ENDBRANCH  21  22
ENDBRANCH  17  21
ENDBRANCH   1  17
TORSDOF 7
ENDMDL
MODEL 3
REMARK VINA RESULT:      -6.2      3.421      9.585
REMARK  Name = 
REMARK  10 active torsions:
REMARK  status: ('A' for Active; 'I' for Inactive)
REMARK    1  A    between atoms: C_1  and  N_2
REMARK    2  A    between atoms: N_2  and  CA_3
REMARK    3  A    between atoms: CA_3  and  C_4
REMARK    4  A    between atoms: CA_3  and  C_14
REMARK    5  A    between atoms: C_4  and  C_5
REMARK    6  A    between atoms: C_6  and  C_7
REMARK    7  A    between atoms: C_9  and  O_10
REMARK    8  A    between atoms: C_12  and  C_13
REMARK    9  A    between atoms: CA_25  and  C_26
REMARK   10  A    between atoms: C_26  and  OXT_28
REMARK                            x       y       z     vdW  Elec       q    Type
REMARK                         _______ _______ _______ _____ _____    ______ ____
ROOT
ATOM      1  C   UNL     1       1.311   8.119  20.792  0.00  0.00    +0.000 C 
ATOM      2  O   UNL     1       0.930   7.239  21.579  0.00  0.00    +0.000 OA
ATOM      3  N   UNL     1       0.897   9.428  21.067  0.00  0.00    +0.000 N 
ATOM      4  C   UNL     1       0.438   9.702  22.444  0.00  0.00    +0.000 C 
ATOM      5  C   UNL     1      -0.474  10.903  22.510  0.00  0.00    +0.000 A 
ATOM      6  C   UNL     1      -1.637  10.911  23.281  0.00  0.00    +0.000 A 
ATOM      7  C   UNL     1      -2.469  12.034  23.260  0.00  0.00    +0.000 A 
ATOM      8  C   UNL     1      -2.129  13.164  22.509  0.00  0.00    +0.000 A 
ATOM      9  C   UNL     1      -0.957  13.170  21.762  0.00  0.00    +0.000 A 
ATOM     10  C   UNL     1      -0.142  12.041  21.756  0.00  0.00    +0.000 A 
ATOM     11  C   UNL     1       1.076  11.958  20.892  0.00  0.00    +0.000 C 
ATOM     12  CA  UNL     1       1.073  10.603  20.180  0.00  0.00    +0.000 C 
ENDROOT
BRANCH  12  13
ATOM     13  C   UNL     1       0.045  10.585  19.044  0.00  0.00    +0.000 C 
ATOM     14  O   UNL     1      -1.008   9.964  19.094  0.00  0.00    +0.000 OA
BRANCH  13  15
ATOM     15  OXT UNL     1       0.405  11.315  17.963  0.00  0.00    +0.000 OA
ATOM     16  HXT UNL     1       0.110  10.878  17.135  0.00  0.00    +0.000 HD
ENDBRANCH  13  15
ENDBRANCH  12  13
BRANCH   1  17
ATOM     17  CA  UNL     1       2.126   7.713  19.491  0.00  0.00    +0.000 C 
BRANCH  17  19
ATOM     18  C   UNL     1       2.897   8.616  17.285  0.00  0.00    +0.000 C 
ATOM     19  N   UNL     1       1.877   8.623  18.322  0.00  0.00    +0.000 NA
ATOM     20  H   UNL     1       0.992   8.371  17.885  0.00  0.00    +0.000 HD
ENDBRANCH  17  19
BRANCH  17  21
ATOM     21  C   UNL     1       1.955   6.288  18.911  0.00  0.00    +0.000 C 
BRANCH  21  22
ATOM     22  C   UNL     1       2.908   5.105  19.159  0.00  0.00    +0.000 A 
ATOM     23  C   UNL     1       4.255   4.995  18.732  0.00  0.00    +0.000 A 
ATOM     24  C   UNL     1       5.081   5.972  17.938  0.00  0.00    +0.000 C 
ATOM     25  C   UNL     1       4.999   3.837  19.067  0.00  0.00    +0.000 A 
ATOM     26  C   UNL     1       4.446   2.803  19.799  0.00  0.00    +0.000 A 
ATOM     27  C   UNL     1       3.133   2.874  20.208  0.00  0.00    +0.000 A 
ATOM     28  C   UNL     1       2.354   4.003  19.903  0.00  0.00    +0.000 A 
ATOM     29  C   UNL     1       0.904   3.949  20.338  0.00  0.00    +0.000 C 
BRANCH  26  30
ATOM     30  O   UNL     1       5.170   1.690  20.122  0.00  0.00    +0.000 OA
ATOM     31  H   UNL     1       4.572   0.926  20.098  0.00  0.00    +0.000 HD
ENDBRANCH  26  30
ENDBRANCH  21  22
ENDBRANCH  17  21
ENDBRANCH   1  17
TORSDOF 7
ENDMDL
MODEL 4
REMARK VINA RESULT:      -6.2      4.421     10.230
REMARK  Name = 
REMARK  10 active torsions:
REMARK  status: ('A' for Active; 'I' for Inactive)
REMARK    1  A    between atoms: C_1  and  N_2
REMARK    2  A    between atoms: N_2  and  CA_3
REMARK    3  A    between atoms: CA_3  and  C_4
REMARK    4  A    between atoms: CA_3  and  C_14
REMARK    5  A    between atoms: C_4  and  C_5
REMARK    6  A    between atoms: C_6  and  C_7
REMARK    7  A    between atoms: C_9  and  O_10
REMARK    8  A    between atoms: C_12  and  C_13
REMARK    9  A    between atoms: CA_25  and  C_26
REMARK   10  A    between atoms: C_26  and  OXT_28
REMARK                            x       y       z     vdW  Elec       q    Type
REMARK                         _______ _______ _______ _____ _____    ______ ____
ROOT
ATOM      1  C   UNL     1       2.232   8.075  18.475  0.00  0.00    +0.000 C 
ATOM      2  O   UNL     1       3.312   8.219  17.883  0.00  0.00    +0.000 OA
ATOM      3  N   UNL     1       1.518   9.242  18.771  0.00  0.00    +0.000 N 
ATOM      4  C   UNL     1       1.876  10.450  18.000  0.00  0.00    +0.000 C 
ATOM      5  C   UNL     1       1.494  11.719  18.723  0.00  0.00    +0.000 A 
ATOM      6  C   UNL     1       2.341  12.826  18.779  0.00  0.00    +0.000 A 
ATOM      7  C   UNL     1       1.954  13.953  19.509  0.00  0.00    +0.000 A 
ATOM      8  C   UNL     1       0.710  14.001  20.149  0.00  0.00    +0.000 A 
ATOM      9  C   UNL     1      -0.148  12.910  20.072  0.00  0.00    +0.000 A 
ATOM     10  C   UNL     1       0.249  11.775  19.371  0.00  0.00    +0.000 A 
ATOM     11  C   UNL     1      -0.594  10.538  19.341  0.00  0.00    +0.000 C 
ATOM     12  CA  UNL     1       0.307   9.332  19.621  0.00  0.00    +0.000 C 
ENDROOT
BRANCH  12  13
ATOM     13  C   UNL     1       0.679   9.260  21.106  0.00  0.00    +0.000 C 
ATOM     14  O   UNL     1       1.809   9.022  21.509  0.00  0.00    +0.000 OA
BRANCH  13  15
ATOM     15  OXT UNL     1      -0.359   9.477  21.946  0.00  0.00    +0.000 OA
ATOM     16  HXT UNL     1      -0.105  10.104  22.657  0.00  0.00    +0.000 HD
ENDBRANCH  13  15
ENDBRANCH  12  13
BRANCH   1  17
ATOM     17  CA  UNL     1       1.783   6.629  18.953  0.00  0.00    +0.000 C 
BRANCH  17  19
ATOM     18  C   UNL     1       1.928   5.501  21.185  0.00  0.00    +0.000 C 
ATOM     19  N   UNL     1       2.641   6.071  20.053  0.00  0.00    +0.000 NA
ATOM     20  H   UNL     1       3.243   5.344  19.671  0.00  0.00    +0.000 HD
ENDBRANCH  17  19
BRANCH  17  21
ATOM     21  C   UNL     1       1.701   5.485  17.913  0.00  0.00    +0.000 C 
BRANCH  21  22
ATOM     22  C   UNL     1       2.517   4.181  17.957  0.00  0.00    +0.000 A 
ATOM     23  C   UNL     1       3.831   3.984  17.465  0.00  0.00    +0.000 A 
ATOM     24  C   UNL     1       4.745   4.966  16.781  0.00  0.00    +0.000 C 
ATOM     25  C   UNL     1       4.445   2.715  17.607  0.00  0.00    +0.000 A 
ATOM     26  C   UNL     1       3.795   1.655  18.211  0.00  0.00    +0.000 A 
ATOM     27  C   UNL     1       2.509   1.813  18.678  0.00  0.00    +0.000 A 
ATOM     28  C   UNL     1       1.858   3.053  18.563  0.00  0.00    +0.000 A 
ATOM     29  C   UNL     1       0.422   3.098  19.045  0.00  0.00    +0.000 C 
BRANCH  26  30
ATOM     30  O   UNL     1       4.394   0.435  18.348  0.00  0.00    +0.000 OA
ATOM     31  H   UNL     1       4.611   0.106  17.461  0.00  0.00    +0.000 HD
ENDBRANCH  26  30
ENDBRANCH  21  22
ENDBRANCH  17  21
ENDBRANCH   1  17
TORSDOF 7
ENDMDL
MODEL 5
REMARK VINA RESULT:      -6.2      1.704      1.838
REMARK  Name = 
REMARK  10 active torsions:
REMARK  status: ('A' for Active; 'I' for Inactive)
REMARK    1  A    between atoms: C_1  and  N_2
REMARK    2  A    between atoms: N_2  and  CA_3
REMARK    3  A    between atoms: CA_3  and  C_4
REMARK    4  A    between atoms: CA_3  and  C_14
REMARK    5  A    between atoms: C_4  and  C_5
REMARK    6  A    between atoms: C_6  and  C_7
REMARK    7  A    between atoms: C_9  and  O_10
REMARK    8  A    between atoms: C_12  and  C_13
REMARK    9  A    between atoms: CA_25  and  C_26
REMARK   10  A    between atoms: C_26  and  OXT_28
REMARK                            x       y       z     vdW  Elec       q    Type
REMARK                         _______ _______ _______ _____ _____    ______ ____
ROOT
ATOM      1  C   UNL     1      -0.519  11.082  22.326  0.00  0.00    +0.000 C 
ATOM      2  O   UNL     1      -0.297  10.413  23.347  0.00  0.00    +0.000 OA
ATOM      3  N   UNL     1      -0.134  10.511  21.107  0.00  0.00    +0.000 N 
ATOM      4  C   UNL     1       0.084   9.050  21.100  0.00  0.00    +0.000 C 
ATOM      5  C   UNL     1       0.994   8.618  19.975  0.00  0.00    +0.000 A 
ATOM      6  C   UNL     1       2.006   7.675  20.159  0.00  0.00    +0.000 A 
ATOM      7  C   UNL     1       2.850   7.355  19.092  0.00  0.00    +0.000 A 
ATOM      8  C   UNL     1       2.666   7.936  17.833  0.00  0.00    +0.000 A 
ATOM      9  C   UNL     1       1.642   8.855  17.639  0.00  0.00    +0.000 A 
ATOM     10  C   UNL     1       0.819   9.199  18.708  0.00  0.00    +0.000 A 
ATOM     11  C   UNL     1      -0.233  10.255  18.580  0.00  0.00    +0.000 C 
ATOM     12  CA  UNL     1      -0.132  11.188  19.788  0.00  0.00    +0.000 C 
ENDROOT
BRANCH  12  13
ATOM     13  C   UNL     1       1.076  12.122  19.659  0.00  0.00    +0.000 C 
ATOM     14  O   UNL     1       1.775  12.458  20.605  0.00  0.00    +0.000 OA
BRANCH  13  15
ATOM     15  OXT UNL     1       1.305  12.556  18.398  0.00  0.00    +0.000 OA
ATOM     16  HXT UNL     1       2.261  12.727  18.259  0.00  0.00    +0.000 HD
ENDBRANCH  13  15
ENDBRANCH  12  13
BRANCH   1  17
ATOM     17  CA  UNL     1      -1.105  12.551  22.458  0.00  0.00    +0.000 C 
BRANCH  17  19
ATOM     18  C   UNL     1      -0.217  14.893  22.436  0.00  0.00    +0.000 C 
ATOM     19  N   UNL     1      -0.107  13.547  22.976  0.00  0.00    +0.000 NA
ATOM     20  H   UNL     1      -0.196  13.613  23.989  0.00  0.00    +0.000 HD
ENDBRANCH  17  19
BRANCH  17  21
ATOM     21  C   UNL     1      -2.365  12.783  23.328  0.00  0.00    +0.000 C 
BRANCH  21  22
ATOM     22  C   UNL     1      -3.815  12.789  22.813  0.00  0.00    +0.000 A 
ATOM     23  C   UNL     1      -4.236  12.863  21.461  0.00  0.00    +0.000 A 
ATOM     24  C   UNL     1      -3.401  12.961  20.212  0.00  0.00    +0.000 C 
ATOM     25  C   UNL     1      -5.620  12.836  21.162  0.00  0.00    +0.000 A 
ATOM     26  C   UNL     1      -6.578  12.744  22.153  0.00  0.00    +0.000 A 
ATOM     27  C   UNL     1      -6.198  12.694  23.475  0.00  0.00    +0.000 A 
ATOM     28  C   UNL     1      -4.837  12.714  23.825  0.00  0.00    +0.000 A 
ATOM     29  C   UNL     1      -4.530  12.725  25.308  0.00  0.00    +0.000 C 
BRANCH  26  30
ATOM     30  O   UNL     1      -7.912  12.715  21.857  0.00  0.00    +0.000 OA
ATOM     31  H   UNL     1      -8.313  11.983  22.352  0.00  0.00    +0.000 HD
ENDBRANCH  26  30
ENDBRANCH  21  22
ENDBRANCH  17  21
ENDBRANCH   1  17
TORSDOF 7
ENDMDL
MODEL 6
REMARK VINA RESULT:      -6.2      1.402      2.376
REMARK  Name = 
REMARK  10 active torsions:
REMARK  status: ('A' for Active; 'I' for Inactive)
REMARK    1  A    between atoms: C_1  and  N_2
REMARK    2  A    between atoms: N_2  and  CA_3
REMARK    3  A    between atoms: CA_3  and  C_4
REMARK    4  A    between atoms: CA_3  and  C_14
REMARK    5  A    between atoms: C_4  and  C_5
REMARK    6  A    between atoms: C_6  and  C_7
REMARK    7  A    between atoms: C_9  and  O_10
REMARK    8  A    between atoms: C_12  and  C_13
REMARK    9  A    between atoms: CA_25  and  C_26
REMARK   10  A    between atoms: C_26  and  OXT_28
REMARK                            x       y       z     vdW  Elec       q    Type
REMARK                         _______ _______ _______ _____ _____    ______ ____
ROOT
ATOM      1  C   UNL     1      -0.729  12.251  22.316  0.00  0.00    +0.000 C 
ATOM      2  O   UNL     1      -0.892  11.628  23.376  0.00  0.00    +0.000 OA
ATOM      3  N   UNL     1      -0.286  11.509  21.215  0.00  0.00    +0.000 N 
ATOM      4  C   UNL     1      -0.469  10.045  21.287  0.00  0.00    +0.000 C 
ATOM      5  C   UNL     1       0.489   9.309  20.380  0.00  0.00    +0.000 A 
ATOM      6  C   UNL     1       1.158   8.154  20.788  0.00  0.00    +0.000 A 
ATOM      7  C   UNL     1       2.073   7.548  19.922  0.00  0.00    +0.000 A 
ATOM      8  C   UNL     1       2.293   8.058  18.639  0.00  0.00    +0.000 A 
ATOM      9  C   UNL     1       1.608   9.192  18.220  0.00  0.00    +0.000 A 
ATOM     10  C   UNL     1       0.720   9.817  19.091  0.00  0.00    +0.000 A 
ATOM     11  C   UNL     1       0.032  11.095  18.727  0.00  0.00    +0.000 C 
ATOM     12  CA  UNL     1       0.147  12.061  19.909  0.00  0.00    +0.000 C 
ENDROOT
BRANCH  12  13
ATOM     13  C   UNL     1       1.562  12.639  20.007  0.00  0.00    +0.000 C 
ATOM     14  O   UNL     1       2.178  12.747  21.059  0.00  0.00    +0.000 OA
BRANCH  13  15
ATOM     15  OXT UNL     1       2.080  13.034  18.820  0.00  0.00    +0.000 OA
ATOM     16  HXT UNL     1       1.389  13.451  18.263  0.00  0.00    +0.000 HD
ENDBRANCH  13  15
ENDBRANCH  12  13
BRANCH   1  17
ATOM     17  CA  UNL     1      -0.915  13.827  22.293  0.00  0.00    +0.000 C 
BRANCH  17  19
ATOM     18  C   UNL     1      -0.524  15.904  23.638  0.00  0.00    +0.000 C 
ATOM     19  N   UNL     1      -0.751  14.467  23.642  0.00  0.00    +0.000 NA
ATOM     20  H   UNL     1      -1.585  14.289  24.200  0.00  0.00    +0.000 HD
ENDBRANCH  17  19
BRANCH  17  21
ATOM     21  C   UNL     1      -2.235  14.421  21.744  0.00  0.00    +0.000 C 
BRANCH  21  22
ATOM     22  C   UNL     1      -3.648  13.902  22.068  0.00  0.00    +0.000 A 
ATOM     23  C   UNL     1      -4.423  14.206  23.215  0.00  0.00    +0.000 A 
ATOM     24  C   UNL     1      -4.076  15.084  24.388  0.00  0.00    +0.000 C 
ATOM     25  C   UNL     1      -5.721  13.653  23.344  0.00  0.00    +0.000 A 
ATOM     26  C   UNL     1      -6.255  12.817  22.383  0.00  0.00    +0.000 A 
ATOM     27  C   UNL     1      -5.515  12.487  21.270  0.00  0.00    +0.000 A 
ATOM     28  C   UNL     1      -4.223  13.011  21.093  0.00  0.00    +0.000 A 
ATOM     29  C   UNL     1      -3.470  12.529  19.871  0.00  0.00    +0.000 C 
BRANCH  26  30
ATOM     30  O   UNL     1      -7.509  12.290  22.512  0.00  0.00    +0.000 OA
ATOM     31  H   UNL     1      -8.139  13.026  22.578  0.00  0.00    +0.000 HD
ENDBRANCH  26  30
ENDBRANCH  21  22
ENDBRANCH  17  21
ENDBRANCH   1  17
TORSDOF 7
ENDMDL
MODEL 7
REMARK VINA RESULT:      -6.2      1.775      1.967
REMARK  Name = 
REMARK  10 active torsions:
REMARK  status: ('A' for Active; 'I' for Inactive)
REMARK    1  A    between atoms: C_1  and  N_2
REMARK    2  A    between atoms: N_2  and  CA_3
REMARK    3  A    between atoms: CA_3  and  C_4
REMARK    4  A    between atoms: CA_3  and  C_14
REMARK    5  A    between atoms: C_4  and  C_5
REMARK    6  A    between atoms: C_6  and  C_7
REMARK    7  A    between atoms: C_9  and  O_10
REMARK    8  A    between atoms: C_12  and  C_13
REMARK    9  A    between atoms: CA_25  and  C_26
REMARK   10  A    between atoms: C_26  and  OXT_28
REMARK                            x       y       z     vdW  Elec       q    Type
REMARK                         _______ _______ _______ _____ _____    ______ ____
ROOT
ATOM      1  C   UNL     1      -0.173  12.432  21.310  0.00  0.00    +0.000 C 
ATOM      2  O   UNL     1      -0.208  12.041  22.487  0.00  0.00    +0.000 OA
ATOM      3  N   UNL     1       0.166  11.479  20.343  0.00  0.00    +0.000 N 
ATOM      4  C   UNL     1       0.025  10.061  20.733  0.00  0.00    +0.000 C 
ATOM      5  C   UNL     1       0.897   9.154  19.898  0.00  0.00    +0.000 A 
ATOM      6  C   UNL     1       1.631   8.108  20.458  0.00  0.00    +0.000 A 
ATOM      7  C   UNL     1       2.462   7.336  19.641  0.00  0.00    +0.000 A 
ATOM      8  C   UNL     1       2.533   7.571  18.264  0.00  0.00    +0.000 A 
ATOM      9  C   UNL     1       1.781   8.594  17.698  0.00  0.00    +0.000 A 
ATOM     10  C   UNL     1       0.977   9.385  18.514  0.00  0.00    +0.000 A 
ATOM     11  C   UNL     1       0.226  10.561  17.973  0.00  0.00    +0.000 C 
ATOM     12  CA  UNL     1       0.445  11.749  18.912  0.00  0.00    +0.000 C 
ENDROOT
BRANCH  12  13
ATOM     13  C   UNL     1       1.849  12.336  18.734  0.00  0.00    +0.000 C 
ATOM     14  O   UNL     1       2.510  12.799  19.653  0.00  0.00    +0.000 OA
BRANCH  13  15
ATOM     15  OXT UNL     1       2.302  12.305  17.459  0.00  0.00    +0.000 OA
ATOM     16  HXT UNL     1       1.649  12.711  16.850  0.00  0.00    +0.000 HD
ENDBRANCH  13  15
ENDBRANCH  12  13
BRANCH   1  17
ATOM     17  CA  UNL     1      -0.396  13.970  20.984  0.00  0.00    +0.000 C 
BRANCH  17  19
ATOM     18  C   UNL     1       1.028  15.938  20.374  0.00  0.00    +0.000 C 
ATOM     19  N   UNL     1       0.805  14.822  21.279  0.00  0.00    +0.000 NA
ATOM     20  H   UNL     1       0.722  15.203  22.221  0.00  0.00    +0.000 HD
ENDBRANCH  17  19
BRANCH  17  21
ATOM     21  C   UNL     1      -1.572  14.719  21.657  0.00  0.00    +0.000 C 
BRANCH  21  22
ATOM     22  C   UNL     1      -2.757  14.051  22.379  0.00  0.00    +0.000 A 
ATOM     23  C   UNL     1      -3.847  13.375  21.777  0.00  0.00    +0.000 A 
ATOM     24  C   UNL     1      -4.130  13.146  20.316  0.00  0.00    +0.000 C 
ATOM     25  C   UNL     1      -4.846  12.798  22.598  0.00  0.00    +0.000 A 
ATOM     26  C   UNL     1      -4.793  12.878  23.976  0.00  0.00    +0.000 A 
ATOM     27  C   UNL     1      -3.757  13.549  24.587  0.00  0.00    +0.000 A 
ATOM     28  C   UNL     1      -2.739  14.137  23.817  0.00  0.00    +0.000 A 
ATOM     29  C   UNL     1      -1.685  14.909  24.583  0.00  0.00    +0.000 C 
BRANCH  26  30
ATOM     30  O   UNL     1      -5.759  12.316  24.763  0.00  0.00    +0.000 OA
ATOM     31  H   UNL     1      -6.576  12.827  24.645  0.00  0.00    +0.000 HD
ENDBRANCH  26  30
ENDBRANCH  21  22
ENDBRANCH  17  21
ENDBRANCH   1  17
TORSDOF 7
ENDMDL
MODEL 8
REMARK VINA RESULT:      -6.1      0.355      1.702
REMARK  Name = 
REMARK  10 active torsions:
REMARK  status: ('A' for Active; 'I' for Inactive)
REMARK    1  A    between atoms: C_1  and  N_2
REMARK    2  A    between atoms: N_2  and  CA_3
REMARK    3  A    between atoms: CA_3  and  C_4
REMARK    4  A    between atoms: CA_3  and  C_14
REMARK    5  A    between atoms: C_4  and  C_5
REMARK    6  A    between atoms: C_6  and  C_7
REMARK    7  A    between atoms: C_9  and  O_10
REMARK    8  A    between atoms: C_12  and  C_13
REMARK    9  A    between atoms: CA_25  and  C_26
REMARK   10  A    between atoms: C_26  and  OXT_28
REMARK                            x       y       z     vdW  Elec       q    Type
REMARK                         _______ _______ _______ _____ _____    ______ ____
ROOT
ATOM      1  C   UNL     1      -0.758  11.199  22.603  0.00  0.00    +0.000 C 
ATOM      2  O   UNL     1      -0.455  10.499  23.582  0.00  0.00    +0.000 OA
ATOM      3  N   UNL     1      -0.419  10.693  21.343  0.00  0.00    +0.000 N 
ATOM      4  C   UNL     1      -0.146   9.243  21.262  0.00  0.00    +0.000 C 
ATOM      5  C   UNL     1       0.716   8.893  20.073  0.00  0.00    +0.000 A 
ATOM      6  C   UNL     1       1.771   7.985  20.162  0.00  0.00    +0.000 A 
ATOM      7  C   UNL     1       2.566   7.742  19.039  0.00  0.00    +0.000 A 
ATOM      8  C   UNL     1       2.292   8.366  17.818  0.00  0.00    +0.000 A 
ATOM      9  C   UNL     1       1.225   9.250  17.718  0.00  0.00    +0.000 A 
ATOM     10  C   UNL     1       0.450   9.518  18.843  0.00  0.00    +0.000 A 
ATOM     11  C   UNL     1      -0.647  10.536  18.816  0.00  0.00    +0.000 C 
ATOM     12  CA  UNL     1      -0.515  11.423  20.056  0.00  0.00    +0.000 C 
ENDROOT
BRANCH  12  13
ATOM     13  C   UNL     1       0.648  12.408  19.902  0.00  0.00    +0.000 C 
ATOM     14  O   UNL     1       1.722  12.281  20.475  0.00  0.00    +0.000 OA
BRANCH  13  15
ATOM     15  OXT UNL     1       0.386  13.447  19.076  0.00  0.00    +0.000 OA
ATOM     16  HXT UNL     1       1.217  13.890  18.801  0.00  0.00    +0.000 HD
ENDBRANCH  13  15
ENDBRANCH  12  13
BRANCH   1  17
ATOM     17  CA  UNL     1      -1.390  12.637  22.829  0.00  0.00    +0.000 C 
BRANCH  17  19
ATOM     18  C   UNL     1      -0.144  14.774  22.432  0.00  0.00    +0.000 C 
ATOM     19  N   UNL     1      -0.400  13.653  23.323  0.00  0.00    +0.000 NA
ATOM     20  H   UNL     1      -0.727  14.034  24.210  0.00  0.00    +0.000 HD
ENDBRANCH  17  19
BRANCH  17  21
ATOM     21  C   UNL     1      -2.600  12.785  23.784  0.00  0.00    +0.000 C 
BRANCH  21  22
ATOM     22  C   UNL     1      -3.486  14.037  23.912  0.00  0.00    +0.000 A 
ATOM     23  C   UNL     1      -3.273  15.144  24.771  0.00  0.00    +0.000 A 
ATOM     24  C   UNL     1      -2.164  15.376  25.763  0.00  0.00    +0.000 C 
ATOM     25  C   UNL     1      -4.184  16.229  24.745  0.00  0.00    +0.000 A 
ATOM     26  C   UNL     1      -5.281  16.240  23.906  0.00  0.00    +0.000 A 
ATOM     27  C   UNL     1      -5.524  15.167  23.077  0.00  0.00    +0.000 A 
ATOM     28  C   UNL     1      -4.649  14.067  23.063  0.00  0.00    +0.000 A 
ATOM     29  C   UNL     1      -5.046  12.912  22.167  0.00  0.00    +0.000 C 
BRANCH  26  30
ATOM     30  O   UNL     1      -6.154  17.291  23.884  0.00  0.00    +0.000 OA
ATOM     31  H   UNL     1      -7.001  16.986  24.246  0.00  0.00    +0.000 HD
ENDBRANCH  26  30
ENDBRANCH  21  22
ENDBRANCH  17  21
ENDBRANCH   1  17
TORSDOF 7
ENDMDL
MODEL 9
REMARK VINA RESULT:      -6.1      1.516      1.750
REMARK  Name = 
REMARK  10 active torsions:
REMARK  status: ('A' for Active; 'I' for Inactive)
REMARK    1  A    between atoms: C_1  and  N_2
REMARK    2  A    between atoms: N_2  and  CA_3
REMARK    3  A    between atoms: CA_3  and  C_4
REMARK    4  A    between atoms: CA_3  and  C_14
REMARK    5  A    between atoms: C_4  and  C_5
REMARK    6  A    between atoms: C_6  and  C_7
REMARK    7  A    between atoms: C_9  and  O_10
REMARK    8  A    between atoms: C_12  and  C_13
REMARK    9  A    between atoms: CA_25  and  C_26
REMARK   10  A    between atoms: C_26  and  OXT_28
REMARK                            x       y       z     vdW  Elec       q    Type
REMARK                         _______ _______ _______ _____ _____    ______ ____
ROOT
ATOM      1  C   UNL     1      -0.414  12.524  21.972  0.00  0.00    +0.000 C 
ATOM      2  O   UNL     1      -0.451  12.009  23.100  0.00  0.00    +0.000 OA
ATOM      3  N   UNL     1      -0.094  11.674  20.907  0.00  0.00    +0.000 N 
ATOM      4  C   UNL     1      -0.256  10.225  21.143  0.00  0.00    +0.000 C 
ATOM      5  C   UNL     1       0.599   9.399  20.211  0.00  0.00    +0.000 A 
ATOM      6  C   UNL     1       1.318   8.288  20.652  0.00  0.00    +0.000 A 
ATOM      7  C   UNL     1       2.134   7.596  19.753  0.00  0.00    +0.000 A 
ATOM      8  C   UNL     1       2.203   7.976  18.409  0.00  0.00    +0.000 A 
ATOM      9  C   UNL     1       1.466   9.065  17.960  0.00  0.00    +0.000 A 
ATOM     10  C   UNL     1       0.678   9.776  18.860  0.00  0.00    +0.000 A 
ATOM     11  C   UNL     1      -0.057  11.014  18.452  0.00  0.00    +0.000 C 
ATOM     12  CA  UNL     1       0.185  12.092  19.512  0.00  0.00    +0.000 C 
ENDROOT
BRANCH  12  13
ATOM     13  C   UNL     1       1.597  12.672  19.390  0.00  0.00    +0.000 C 
ATOM     14  O   UNL     1       2.279  12.999  20.351  0.00  0.00    +0.000 OA
BRANCH  13  15
ATOM     15  OXT UNL     1       2.032  12.803  18.115  0.00  0.00    +0.000 OA
ATOM     16  HXT UNL     1       2.997  12.977  18.095  0.00  0.00    +0.000 HD
ENDBRANCH  13  15
ENDBRANCH  12  13
BRANCH   1  17
ATOM     17  CA  UNL     1      -0.614  14.090  21.814  0.00  0.00    +0.000 C 
BRANCH  17  19
ATOM     18  C   UNL     1       0.048  16.072  23.195  0.00  0.00    +0.000 C 
ATOM     19  N   UNL     1       0.479  14.899  22.453  0.00  0.00    +0.000 NA
ATOM     20  H   UNL     1       1.004  14.305  23.093  0.00  0.00    +0.000 HD
ENDBRANCH  17  19
BRANCH  17  21
ATOM     21  C   UNL     1      -1.922  14.738  22.331  0.00  0.00    +0.000 C 
BRANCH  21  22
ATOM     22  C   UNL     1      -3.255  14.001  22.548  0.00  0.00    +0.000 A 
ATOM     23  C   UNL     1      -3.987  13.267  21.581  0.00  0.00    +0.000 A 
ATOM     24  C   UNL     1      -3.667  13.029  20.129  0.00  0.00    +0.000 C 
ATOM     25  C   UNL     1      -5.195  12.630  21.960  0.00  0.00    +0.000 A 
ATOM     26  C   UNL     1      -5.686  12.707  23.248  0.00  0.00    +0.000 A 
ATOM     27  C   UNL     1      -5.007  13.433  24.202  0.00  0.00    +0.000 A 
ATOM     28  C   UNL     1      -3.803  14.081  23.878  0.00  0.00    +0.000 A 
ATOM     29  C   UNL     1      -3.174  14.908  24.980  0.00  0.00    +0.000 C 
BRANCH  26  30
ATOM     30  O   UNL     1      -6.850  12.088  23.608  0.00  0.00    +0.000 OA
ATOM     31  H   UNL     1      -6.817  11.917  24.563  0.00  0.00    +0.000 HD
ENDBRANCH  26  30
ENDBRANCH  21  22
ENDBRANCH  17  21
ENDBRANCH   1  17
TORSDOF 7
ENDMDL
