MODEL 1
REMARK VINA RESULT:      -7.4      0.000      0.000
REMARK  Name = 
REMARK  8 active torsions:
REMARK  status: ('A' for Active; 'I' for Inactive)
REMARK    1  A    between atoms: C_2  and  C_3
REMARK    2  A    between atoms: C_2  and  C_24
REMARK    3  A    between atoms: C_4  and  O_5
REMARK    4  A    between atoms: N_8  and  C_9
REMARK    5  A    between atoms: C_9  and  C_10
REMARK    6  A    between atoms: C_10  and  C_11
REMARK    7  A    between atoms: C_11  and  N_12
REMARK    8  A    between atoms: C_17  and  C_18
REMARK                            x       y       z     vdW  Elec       q    Type
REMARK                         _______ _______ _______ _____ _____    ______ ____
ROOT
ATOM      1  C   UNL     1       4.057   6.190  18.734  0.00  0.00    +0.000 C 
ATOM      2  C   UNL     1       3.807   7.108  17.792  0.00  0.00    +0.000 C 
ATOM      3  C   UNL     1       2.594   7.846  18.223  0.00  0.00    +0.000 C 
ATOM      4  O   UNL     1       2.118   8.824  17.679  0.00  0.00    +0.000 OA
ATOM      5  N   UNL     1       2.131   7.222  19.369  0.00  0.00    +0.000 N 
ATOM      6  C   UNL     1       3.010   6.151  19.800  0.00  0.00    +0.000 C 
ENDROOT
BRANCH   6   7
ATOM      7  C   UNL     1       2.261   4.839  19.940  0.00  0.00    +0.000 A 
ATOM      8  C   UNL     1       2.138   4.167  21.169  0.00  0.00    +0.000 A 
ATOM      9  C   UNL     1       1.511   2.922  21.242  0.00  0.00    +0.000 A 
ATOM     10  C   UNL     1       1.024   2.317  20.088  0.00  0.00    +0.000 A 
ATOM     11  C   UNL     1       1.135   2.967  18.862  0.00  0.00    +0.000 A 
ATOM     12  C   UNL     1       1.733   4.225  18.791  0.00  0.00    +0.000 A 
ENDBRANCH   6   7
BRANCH   1  14
ATOM     13  O   UNL     1       5.762   4.941  19.687  0.00  0.00    +0.000 OA
ATOM     14  C   UNL     1       5.203   5.254  18.634  0.00  0.00    +0.000 C 
BRANCH  14  15
ATOM     15  C   UNL     1       5.600   4.756  17.324  0.00  0.00    +0.000 A 
ATOM     16  C   UNL     1       4.908   3.963  16.428  0.00  0.00    +0.000 A 
ATOM     17  C   UNL     1       5.637   3.723  15.230  0.00  0.00    +0.000 A 
ATOM     18  C   UNL     1       6.892   4.287  15.269  0.00  0.00    +0.000 A 
ATOM     19  S   UNL     1       7.170   5.124  16.735  0.00  0.00    +0.000 S 
ENDBRANCH  14  15
ENDBRANCH   1  14
BRANCH   2  20
ATOM     20  O   UNL     1       4.496   7.363  16.639  0.00  0.00    +0.000 OA
ATOM     21  H   UNL     1       4.726   8.317  16.633  0.00  0.00    +0.000 HD
ENDBRANCH   2  20
BRANCH   5  22
ATOM     22  C   UNL     1       1.039   7.749  20.174  0.00  0.00    +0.000 C 
BRANCH  22  23
ATOM     23  C   UNL     1       1.506   8.820  21.158  0.00  0.00    +0.000 C 
BRANCH  23  24
ATOM     24  C   UNL     1       1.040  10.208  20.722  0.00  0.00    +0.000 C 
BRANCH  24  25
ATOM     25  N   UNL     1       0.115  10.787  21.675  0.00  0.00    +0.000 N 
ATOM     26  C   UNL     1      -0.307  12.086  21.705  0.00  0.00    +0.000 A 
ATOM     27  C   UNL     1      -1.136  12.163  22.799  0.00  0.00    +0.000 A 
ATOM     28  N   UNL     1      -1.239  10.944  23.418  0.00  0.00    +0.000 NA
ATOM     29  C   UNL     1      -0.483  10.133  22.713  0.00  0.00    +0.000 A 
ENDBRANCH  24  25
ENDBRANCH  23  24
ENDBRANCH  22  23
ENDBRANCH   5  22
TORSDOF 8
ENDMDL
MODEL 2
REMARK VINA RESULT:      -7.4      1.134      1.756
REMARK  Name = 
REMARK  8 active torsions:
REMARK  status: ('A' for Active; 'I' for Inactive)
REMARK    1  A    between atoms: C_2  and  C_3
REMARK    2  A    between atoms: C_2  and  C_24
REMARK    3  A    between atoms: C_4  and  O_5
REMARK    4  A    between atoms: N_8  and  C_9
REMARK    5  A    between atoms: C_9  and  C_10
REMARK    6  A    between atoms: C_10  and  C_11
REMARK    7  A    between atoms: C_11  and  N_12
REMARK    8  A    between atoms: C_17  and  C_18
REMARK                            x       y       z     vdW  Elec       q    Type
REMARK                         _______ _______ _______ _____ _____    ______ ____
ROOT
ATOM      1  C   UNL     1       4.133   6.064  18.642  0.00  0.00    +0.000 C 
ATOM      2  C   UNL     1       3.847   7.075  17.812  0.00  0.00    +0.000 C 
ATOM      3  C   UNL     1       2.644   7.752  18.356  0.00  0.00    +0.000 C 
ATOM      4  O   UNL     1       2.145   8.777  17.935  0.00  0.00    +0.000 OA
ATOM      5  N   UNL     1       2.222   7.004  19.443  0.00  0.00    +0.000 N 
ATOM      6  C   UNL     1       3.121   5.902  19.730  0.00  0.00    +0.000 C 
ENDROOT
BRANCH   6   7
ATOM      7  C   UNL     1       2.385   4.575  19.752  0.00  0.00    +0.000 A 
ATOM      8  C   UNL     1       1.843   3.991  18.594  0.00  0.00    +0.000 A 
ATOM      9  C   UNL     1       1.103   2.811  18.669  0.00  0.00    +0.000 A 
ATOM     10  C   UNL     1       0.867   2.211  19.903  0.00  0.00    +0.000 A 
ATOM     11  C   UNL     1       1.397   2.773  21.061  0.00  0.00    +0.000 A 
ATOM     12  C   UNL     1       2.164   3.936  20.985  0.00  0.00    +0.000 A 
ENDBRANCH   6   7
BRANCH   1  14
ATOM     13  O   UNL     1       5.885   4.751  19.403  0.00  0.00    +0.000 OA
ATOM     14  C   UNL     1       5.281   5.156  18.408  0.00  0.00    +0.000 C 
BRANCH  14  15
ATOM     15  C   UNL     1       5.627   4.788  17.042  0.00  0.00    +0.000 A 
ATOM     16  C   UNL     1       4.897   4.090  16.098  0.00  0.00    +0.000 A 
ATOM     17  C   UNL     1       5.582   3.966  14.855  0.00  0.00    +0.000 A 
ATOM     18  C   UNL     1       6.840   4.520  14.905  0.00  0.00    +0.000 A 
ATOM     19  S   UNL     1       7.177   5.207  16.434  0.00  0.00    +0.000 S 
ENDBRANCH  14  15
ENDBRANCH   1  14
BRANCH   2  20
ATOM     20  O   UNL     1       4.498   7.458  16.672  0.00  0.00    +0.000 OA
ATOM     21  H   UNL     1       3.901   7.284  15.913  0.00  0.00    +0.000 HD
ENDBRANCH   2  20
BRANCH   5  22
ATOM     22  C   UNL     1       1.153   7.432  20.333  0.00  0.00    +0.000 C 
BRANCH  22  23
ATOM     23  C   UNL     1       1.592   8.553  21.273  0.00  0.00    +0.000 C 
BRANCH  23  24
ATOM     24  C   UNL     1       0.459   9.552  21.505  0.00  0.00    +0.000 C 
BRANCH  24  25
ATOM     25  N   UNL     1       0.263  10.416  20.358  0.00  0.00    +0.000 N 
ATOM     26  C   UNL     1       1.055  11.468  19.995  0.00  0.00    +0.000 A 
ATOM     27  C   UNL     1       0.449  11.997  18.879  0.00  0.00    +0.000 A 
ATOM     28  N   UNL     1      -0.674  11.282  18.551  0.00  0.00    +0.000 NA
ATOM     29  C   UNL     1      -0.755  10.330  19.453  0.00  0.00    +0.000 A 
ENDBRANCH  24  25
ENDBRANCH  23  24
ENDBRANCH  22  23
ENDBRANCH   5  22
TORSDOF 8
ENDMDL
MODEL 3
REMARK VINA RESULT:      -7.3      0.664      1.241
REMARK  Name = 
REMARK  8 active torsions:
REMARK  status: ('A' for Active; 'I' for Inactive)
REMARK    1  A    between atoms: C_2  and  C_3
REMARK    2  A    between atoms: C_2  and  C_24
REMARK    3  A    between atoms: C_4  and  O_5
REMARK    4  A    between atoms: N_8  and  C_9
REMARK    5  A    between atoms: C_9  and  C_10
REMARK    6  A    between atoms: C_10  and  C_11
REMARK    7  A    between atoms: C_11  and  N_12
REMARK    8  A    between atoms: C_17  and  C_18
REMARK                            x       y       z     vdW  Elec       q    Type
REMARK                         _______ _______ _______ _____ _____    ______ ____
ROOT
ATOM      1  C   UNL     1       4.231   6.117  18.493  0.00  0.00    +0.000 C 
ATOM      2  C   UNL     1       4.002   7.065  17.575  0.00  0.00    +0.000 C 
ATOM      3  C   UNL     1       2.786   7.797  18.008  0.00  0.00    +0.000 C 
ATOM      4  O   UNL     1       2.324   8.794  17.487  0.00  0.00    +0.000 OA
ATOM      5  N   UNL     1       2.300   7.142  19.127  0.00  0.00    +0.000 N 
ATOM      6  C   UNL     1       3.166   6.052  19.540  0.00  0.00    +0.000 C 
ENDROOT
BRANCH   6   7
ATOM      7  C   UNL     1       2.408   4.741  19.628  0.00  0.00    +0.000 A 
ATOM      8  C   UNL     1       1.855   4.111  18.499  0.00  0.00    +0.000 A 
ATOM      9  C   UNL     1       1.094   2.948  18.633  0.00  0.00    +0.000 A 
ATOM     10  C   UNL     1       0.850   2.414  19.895  0.00  0.00    +0.000 A 
ATOM     11  C   UNL     1       1.391   3.023  21.024  0.00  0.00    +0.000 A 
ATOM     12  C   UNL     1       2.177   4.168  20.891  0.00  0.00    +0.000 A 
ENDBRANCH   6   7
BRANCH   1  14
ATOM     13  O   UNL     1       5.836   4.738  19.437  0.00  0.00    +0.000 OA
ATOM     14  C   UNL     1       5.373   5.178  18.383  0.00  0.00    +0.000 C 
BRANCH  14  15
ATOM     15  C   UNL     1       5.877   4.825  17.064  0.00  0.00    +0.000 A 
ATOM     16  C   UNL     1       7.057   5.183  16.439  0.00  0.00    +0.000 A 
ATOM     17  C   UNL     1       7.197   4.595  15.150  0.00  0.00    +0.000 A 
ATOM     18  C   UNL     1       6.091   3.853  14.800  0.00  0.00    +0.000 A 
ATOM     19  S   UNL     1       4.909   3.848  16.036  0.00  0.00    +0.000 S 
ENDBRANCH  14  15
ENDBRANCH   1  14
BRANCH   2  20
ATOM     20  O   UNL     1       4.711   7.351  16.442  0.00  0.00    +0.000 OA
ATOM     21  H   UNL     1       4.843   6.511  15.951  0.00  0.00    +0.000 HD
ENDBRANCH   2  20
BRANCH   5  22
ATOM     22  C   UNL     1       1.198   7.651  19.929  0.00  0.00    +0.000 C 
BRANCH  22  23
ATOM     23  C   UNL     1       1.631   8.781  20.862  0.00  0.00    +0.000 C 
BRANCH  23  24
ATOM     24  C   UNL     1       0.957  10.098  20.478  0.00  0.00    +0.000 C 
BRANCH  24  25
ATOM     25  N   UNL     1       0.099  10.590  21.537  0.00  0.00    +0.000 N 
ATOM     26  C   UNL     1      -0.468  11.831  21.605  0.00  0.00    +0.000 A 
ATOM     27  C   UNL     1      -1.154  11.839  22.797  0.00  0.00    +0.000 A 
ATOM     28  N   UNL     1      -1.030  10.634  23.439  0.00  0.00    +0.000 NA
ATOM     29  C   UNL     1      -0.278   9.898  22.651  0.00  0.00    +0.000 A 
ENDBRANCH  24  25
ENDBRANCH  23  24
ENDBRANCH  22  23
ENDBRANCH   5  22
TORSDOF 8
ENDMDL
MODEL 4
REMARK VINA RESULT:      -7.2      3.282      4.442
REMARK  Name = 
REMARK  8 active torsions:
REMARK  status: ('A' for Active; 'I' for Inactive)
REMARK    1  A    between atoms: C_2  and  C_3
REMARK    2  A    between atoms: C_2  and  C_24
REMARK    3  A    between atoms: C_4  and  O_5
REMARK    4  A    between atoms: N_8  and  C_9
REMARK    5  A    between atoms: C_9  and  C_10
REMARK    6  A    between atoms: C_10  and  C_11
REMARK    7  A    between atoms: C_11  and  N_12
REMARK    8  A    between atoms: C_17  and  C_18
REMARK                            x       y       z     vdW  Elec       q    Type
REMARK                         _______ _______ _______ _____ _____    ______ ____
ROOT
ATOM      1  C   UNL     1       5.701   5.593  16.700  0.00  0.00    +0.000 C 
ATOM      2  C   UNL     1       5.059   6.591  16.080  0.00  0.00    +0.000 C 
ATOM      3  C   UNL     1       4.097   7.158  17.058  0.00  0.00    +0.000 C 
ATOM      4  O   UNL     1       3.407   8.146  16.898  0.00  0.00    +0.000 OA
ATOM      5  N   UNL     1       4.160   6.360  18.189  0.00  0.00    +0.000 N 
ATOM      6  C   UNL     1       5.176   5.330  18.074  0.00  0.00    +0.000 C 
ENDROOT
BRANCH   6   7
ATOM      7  C   UNL     1       4.595   3.947  18.304  0.00  0.00    +0.000 A 
ATOM      8  C   UNL     1       5.003   3.124  19.369  0.00  0.00    +0.000 A 
ATOM      9  C   UNL     1       4.505   1.827  19.499  0.00  0.00    +0.000 A 
ATOM     10  C   UNL     1       3.615   1.323  18.555  0.00  0.00    +0.000 A 
ATOM     11  C   UNL     1       3.198   2.123  17.495  0.00  0.00    +0.000 A 
ATOM     12  C   UNL     1       3.671   3.431  17.380  0.00  0.00    +0.000 A 
ENDBRANCH   6   7
BRANCH   1  14
ATOM     13  O   UNL     1       7.743   4.497  16.678  0.00  0.00    +0.000 OA
ATOM     14  C   UNL     1       6.742   4.787  16.019  0.00  0.00    +0.000 C 
BRANCH  14  15
ATOM     15  C   UNL     1       6.532   4.379  14.637  0.00  0.00    +0.000 A 
ATOM     16  C   UNL     1       5.538   3.593  14.084  0.00  0.00    +0.000 A 
ATOM     17  C   UNL     1       5.668   3.456  12.673  0.00  0.00    +0.000 A 
ATOM     18  C   UNL     1       6.793   4.089  12.196  0.00  0.00    +0.000 A 
ATOM     19  S   UNL     1       7.666   4.866  13.444  0.00  0.00    +0.000 S 
ENDBRANCH  14  15
ENDBRANCH   1  14
BRANCH   2  20
ATOM     20  O   UNL     1       5.214   7.046  14.800  0.00  0.00    +0.000 OA
ATOM     21  H   UNL     1       4.659   6.488  14.215  0.00  0.00    +0.000 HD
ENDBRANCH   2  20
BRANCH   5  22
ATOM     22  C   UNL     1       3.468   6.683  19.427  0.00  0.00    +0.000 C 
BRANCH  22  23
ATOM     23  C   UNL     1       1.980   6.342  19.369  0.00  0.00    +0.000 C 
BRANCH  23  24
ATOM     24  C   UNL     1       1.459   5.922  20.743  0.00  0.00    +0.000 C 
BRANCH  24  25
ATOM     25  N   UNL     1       1.524   4.486  20.926  0.00  0.00    +0.000 N 
ATOM     26  C   UNL     1       0.851   3.547  20.198  0.00  0.00    +0.000 A 
ATOM     27  C   UNL     1       1.201   2.344  20.763  0.00  0.00    +0.000 A 
ATOM     28  N   UNL     1       2.080   2.530  21.799  0.00  0.00    +0.000 NA
ATOM     29  C   UNL     1       2.264   3.830  21.867  0.00  0.00    +0.000 A 
ENDBRANCH  24  25
ENDBRANCH  23  24
ENDBRANCH  22  23
ENDBRANCH   5  22
TORSDOF 8
ENDMDL
MODEL 5
REMARK VINA RESULT:      -7.2      4.122      6.557
REMARK  Name = 
REMARK  8 active torsions:
REMARK  status: ('A' for Active; 'I' for Inactive)
REMARK    1  A    between atoms: C_2  and  C_3
REMARK    2  A    between atoms: C_2  and  C_24
REMARK    3  A    between atoms: C_4  and  O_5
REMARK    4  A    between atoms: N_8  and  C_9
REMARK    5  A    between atoms: C_9  and  C_10
REMARK    6  A    between atoms: C_10  and  C_11
REMARK    7  A    between atoms: C_11  and  N_12
REMARK    8  A    between atoms: C_17  and  C_18
REMARK                            x       y       z     vdW  Elec       q    Type
REMARK                         _______ _______ _______ _____ _____    ______ ____
ROOT
ATOM      1  C   UNL     1       4.728   3.901  17.818  0.00  0.00    +0.000 C 
ATOM      2  C   UNL     1       5.618   3.663  16.846  0.00  0.00    +0.000 C 
ATOM      3  C   UNL     1       6.725   4.634  17.029  0.00  0.00    +0.000 C 
ATOM      4  O   UNL     1       7.767   4.663  16.403  0.00  0.00    +0.000 OA
ATOM      5  N   UNL     1       6.350   5.479  18.061  0.00  0.00    +0.000 N 
ATOM      6  C   UNL     1       5.086   5.085  18.657  0.00  0.00    +0.000 C 
ENDROOT
BRANCH   6   7
ATOM      7  C   UNL     1       4.087   6.227  18.646  0.00  0.00    +0.000 A 
ATOM      8  C   UNL     1       3.167   6.436  19.689  0.00  0.00    +0.000 A 
ATOM      9  C   UNL     1       2.210   7.447  19.603  0.00  0.00    +0.000 A 
ATOM     10  C   UNL     1       2.138   8.247  18.466  0.00  0.00    +0.000 A 
ATOM     11  C   UNL     1       3.041   8.057  17.425  0.00  0.00    +0.000 A 
ATOM     12  C   UNL     1       4.019   7.066  17.520  0.00  0.00    +0.000 A 
ENDBRANCH   6   7
BRANCH   1  14
ATOM     13  O   UNL     1       3.016   2.628  16.911  0.00  0.00    +0.000 OA
ATOM     14  C   UNL     1       3.476   3.117  17.946  0.00  0.00    +0.000 C 
BRANCH  14  15
ATOM     15  C   UNL     1       2.868   2.960  19.259  0.00  0.00    +0.000 A 
ATOM     16  C   UNL     1       3.444   2.627  20.471  0.00  0.00    +0.000 A 
ATOM     17  C   UNL     1       2.505   2.611  21.540  0.00  0.00    +0.000 A 
ATOM     18  C   UNL     1       1.225   2.871  21.105  0.00  0.00    +0.000 A 
ATOM     19  S   UNL     1       1.170   3.160  19.420  0.00  0.00    +0.000 S 
ENDBRANCH  14  15
ENDBRANCH   1  14
BRANCH   2  20
ATOM     20  O   UNL     1       5.571   2.726  15.852  0.00  0.00    +0.000 OA
ATOM     21  H   UNL     1       5.537   3.201  14.994  0.00  0.00    +0.000 HD
ENDBRANCH   2  20
BRANCH   5  22
ATOM     22  C   UNL     1       7.242   6.475  18.635  0.00  0.00    +0.000 C 
BRANCH  22  23
ATOM     23  C   UNL     1       7.859   7.384  17.574  0.00  0.00    +0.000 C 
BRANCH  23  24
ATOM     24  C   UNL     1       7.253   8.785  17.632  0.00  0.00    +0.000 C 
BRANCH  24  25
ATOM     25  N   UNL     1       8.203   9.760  18.130  0.00  0.00    +0.000 N 
ATOM     26  C   UNL     1       8.338  11.049  17.699  0.00  0.00    +0.000 A 
ATOM     27  C   UNL     1       9.382  11.559  18.435  0.00  0.00    +0.000 A 
ATOM     28  N   UNL     1       9.867  10.620  19.308  0.00  0.00    +0.000 NA
ATOM     29  C   UNL     1       9.130   9.550  19.109  0.00  0.00    +0.000 A 
ENDBRANCH  24  25
ENDBRANCH  23  24
ENDBRANCH  22  23
ENDBRANCH   5  22
TORSDOF 8
ENDMDL
MODEL 6
REMARK VINA RESULT:      -7.1      1.623      1.967
REMARK  Name = 
REMARK  8 active torsions:
REMARK  status: ('A' for Active; 'I' for Inactive)
REMARK    1  A    between atoms: C_2  and  C_3
REMARK    2  A    between atoms: C_2  and  C_24
REMARK    3  A    between atoms: C_4  and  O_5
REMARK    4  A    between atoms: N_8  and  C_9
REMARK    5  A    between atoms: C_9  and  C_10
REMARK    6  A    between atoms: C_10  and  C_11
REMARK    7  A    between atoms: C_11  and  N_12
REMARK    8  A    between atoms: C_17  and  C_18
REMARK                            x       y       z     vdW  Elec       q    Type
REMARK                         _______ _______ _______ _____ _____    ______ ____
ROOT
ATOM      1  C   UNL     1       3.225   6.743  18.579  0.00  0.00    +0.000 C 
ATOM      2  C   UNL     1       2.611   7.813  18.060  0.00  0.00    +0.000 C 
ATOM      3  C   UNL     1       1.675   8.317  19.096  0.00  0.00    +0.000 C 
ATOM      4  O   UNL     1       1.016   9.337  19.034  0.00  0.00    +0.000 OA
ATOM      5  N   UNL     1       1.720   7.417  20.147  0.00  0.00    +0.000 N 
ATOM      6  C   UNL     1       2.702   6.370  19.928  0.00  0.00    +0.000 C 
ENDROOT
BRANCH   6   7
ATOM      7  C   UNL     1       2.079   4.991  20.036  0.00  0.00    +0.000 A 
ATOM      8  C   UNL     1       2.193   4.199  21.192  0.00  0.00    +0.000 A 
ATOM      9  C   UNL     1       1.675   2.903  21.223  0.00  0.00    +0.000 A 
ATOM     10  C   UNL     1       1.062   2.369  20.093  0.00  0.00    +0.000 A 
ATOM     11  C   UNL     1       0.937   3.139  18.940  0.00  0.00    +0.000 A 
ATOM     12  C   UNL     1       1.426   4.445  18.917  0.00  0.00    +0.000 A 
ENDBRANCH   6   7
BRANCH   1  14
ATOM     13  O   UNL     1       3.810   5.111  17.039  0.00  0.00    +0.000 OA
ATOM     14  C   UNL     1       4.234   5.970  17.816  0.00  0.00    +0.000 C 
BRANCH  14  15
ATOM     15  C   UNL     1       5.647   6.260  18.012  0.00  0.00    +0.000 A 
ATOM     16  C   UNL     1       6.466   7.166  17.363  0.00  0.00    +0.000 A 
ATOM     17  C   UNL     1       7.794   7.172  17.877  0.00  0.00    +0.000 A 
ATOM     18  C   UNL     1       7.968   6.228  18.862  0.00  0.00    +0.000 A 
ATOM     19  S   UNL     1       6.528   5.362  19.180  0.00  0.00    +0.000 S 
ENDBRANCH  14  15
ENDBRANCH   1  14
BRANCH   2  20
ATOM     20  O   UNL     1       2.771   8.379  16.825  0.00  0.00    +0.000 OA
ATOM     21  H   UNL     1       2.548   7.699  16.153  0.00  0.00    +0.000 HD
ENDBRANCH   2  20
BRANCH   5  22
ATOM     22  C   UNL     1       1.048   7.646  21.417  0.00  0.00    +0.000 C 
BRANCH  22  23
ATOM     23  C   UNL     1       1.336   9.034  21.986  0.00  0.00    +0.000 C 
BRANCH  23  24
ATOM     24  C   UNL     1       0.234   9.473  22.949  0.00  0.00    +0.000 C 
BRANCH  24  25
ATOM     25  N   UNL     1      -0.387  10.712  22.526  0.00  0.00    +0.000 N 
ATOM     26  C   UNL     1       0.010  11.499  21.484  0.00  0.00    +0.000 A 
ATOM     27  C   UNL     1      -0.853  12.570  21.501  0.00  0.00    +0.000 A 
ATOM     28  N   UNL     1      -1.769  12.440  22.513  0.00  0.00    +0.000 NA
ATOM     29  C   UNL     1      -1.470  11.306  23.107  0.00  0.00    +0.000 A 
ENDBRANCH  24  25
ENDBRANCH  23  24
ENDBRANCH  22  23
ENDBRANCH   5  22
TORSDOF 8
ENDMDL
MODEL 7
REMARK VINA RESULT:      -7.1      4.044      6.531
REMARK  Name = 
REMARK  8 active torsions:
REMARK  status: ('A' for Active; 'I' for Inactive)
REMARK    1  A    between atoms: C_2  and  C_3
REMARK    2  A    between atoms: C_2  and  C_24
REMARK    3  A    between atoms: C_4  and  O_5
REMARK    4  A    between atoms: N_8  and  C_9
REMARK    5  A    between atoms: C_9  and  C_10
REMARK    6  A    between atoms: C_10  and  C_11
REMARK    7  A    between atoms: C_11  and  N_12
REMARK    8  A    between atoms: C_17  and  C_18
REMARK                            x       y       z     vdW  Elec       q    Type
REMARK                         _______ _______ _______ _____ _____    ______ ____
ROOT
ATOM      1  C   UNL     1       4.657   3.895  17.696  0.00  0.00    +0.000 C 
ATOM      2  C   UNL     1       5.606   3.670  16.778  0.00  0.00    +0.000 C 
ATOM      3  C   UNL     1       6.731   4.586  17.089  0.00  0.00    +0.000 C 
ATOM      4  O   UNL     1       7.816   4.604  16.541  0.00  0.00    +0.000 OA
ATOM      5  N   UNL     1       6.313   5.393  18.135  0.00  0.00    +0.000 N 
ATOM      6  C   UNL     1       4.996   5.021  18.618  0.00  0.00    +0.000 C 
ENDROOT
BRANCH   6   7
ATOM      7  C   UNL     1       4.042   6.200  18.597  0.00  0.00    +0.000 A 
ATOM      8  C   UNL     1       3.143   6.465  19.645  0.00  0.00    +0.000 A 
ATOM      9  C   UNL     1       2.225   7.511  19.551  0.00  0.00    +0.000 A 
ATOM     10  C   UNL     1       2.171   8.292  18.400  0.00  0.00    +0.000 A 
ATOM     11  C   UNL     1       3.055   8.047  17.352  0.00  0.00    +0.000 A 
ATOM     12  C   UNL     1       3.994   7.021  17.456  0.00  0.00    +0.000 A 
ENDBRANCH   6   7
BRANCH   1  14
ATOM     13  O   UNL     1       3.017   2.655  16.623  0.00  0.00    +0.000 OA
ATOM     14  C   UNL     1       3.372   3.156  17.693  0.00  0.00    +0.000 C 
BRANCH  14  15
ATOM     15  C   UNL     1       2.609   3.054  18.930  0.00  0.00    +0.000 A 
ATOM     16  C   UNL     1       1.293   3.388  19.191  0.00  0.00    +0.000 A 
ATOM     17  C   UNL     1       0.910   3.101  20.532  0.00  0.00    +0.000 A 
ATOM     18  C   UNL     1       1.962   2.614  21.275  0.00  0.00    +0.000 A 
ATOM     19  S   UNL     1       3.391   2.480  20.346  0.00  0.00    +0.000 S 
ENDBRANCH  14  15
ENDBRANCH   1  14
BRANCH   2  20
ATOM     20  O   UNL     1       5.598   2.786  15.735  0.00  0.00    +0.000 OA
ATOM     21  H   UNL     1       5.699   3.300  14.906  0.00  0.00    +0.000 HD
ENDBRANCH   2  20
BRANCH   5  22
ATOM     22  C   UNL     1       7.196   6.323  18.822  0.00  0.00    +0.000 C 
BRANCH  22  23
ATOM     23  C   UNL     1       8.002   7.185  17.852  0.00  0.00    +0.000 C 
BRANCH  23  24
ATOM     24  C   UNL     1       7.351   8.555  17.665  0.00  0.00    +0.000 C 
BRANCH  24  25
ATOM     25  N   UNL     1       8.212   9.625  18.128  0.00  0.00    +0.000 N 
ATOM     26  C   UNL     1       9.155   9.535  19.112  0.00  0.00    +0.000 A 
ATOM     27  C   UNL     1       9.677  10.803  19.217  0.00  0.00    +0.000 A 
ATOM     28  N   UNL     1       9.087  11.649  18.313  0.00  0.00    +0.000 NA
ATOM     29  C   UNL     1       8.216  10.909  17.664  0.00  0.00    +0.000 A 
ENDBRANCH  24  25
ENDBRANCH  23  24
ENDBRANCH  22  23
ENDBRANCH   5  22
TORSDOF 8
ENDMDL
MODEL 8
REMARK VINA RESULT:      -7.1      4.092      6.624
REMARK  Name = 
REMARK  8 active torsions:
REMARK  status: ('A' for Active; 'I' for Inactive)
REMARK    1  A    between atoms: C_2  and  C_3
REMARK    2  A    between atoms: C_2  and  C_24
REMARK    3  A    between atoms: C_4  and  O_5
REMARK    4  A    between atoms: N_8  and  C_9
REMARK    5  A    between atoms: C_9  and  C_10
REMARK    6  A    between atoms: C_10  and  C_11
REMARK    7  A    between atoms: C_11  and  N_12
REMARK    8  A    between atoms: C_17  and  C_18
REMARK                            x       y       z     vdW  Elec       q    Type
REMARK                         _______ _______ _______ _____ _____    ______ ____
ROOT
ATOM      1  C   UNL     1       4.681   3.881  17.817  0.00  0.00    +0.000 C 
ATOM      2  C   UNL     1       5.598   3.642  16.871  0.00  0.00    +0.000 C 
ATOM      3  C   UNL     1       6.670   4.653  17.045  0.00  0.00    +0.000 C 
ATOM      4  O   UNL     1       7.723   4.695  16.439  0.00  0.00    +0.000 OA
ATOM      5  N   UNL     1       6.247   5.517  18.041  0.00  0.00    +0.000 N 
ATOM      6  C   UNL     1       4.984   5.102  18.623  0.00  0.00    +0.000 C 
ENDROOT
BRANCH   6   7
ATOM      7  C   UNL     1       3.949   6.210  18.555  0.00  0.00    +0.000 A 
ATOM      8  C   UNL     1       3.888   7.122  17.487  0.00  0.00    +0.000 A 
ATOM      9  C   UNL     1       2.974   8.177  17.501  0.00  0.00    +0.000 A 
ATOM     10  C   UNL     1       2.128   8.354  18.592  0.00  0.00    +0.000 A 
ATOM     11  C   UNL     1       2.172   7.460  19.658  0.00  0.00    +0.000 A 
ATOM     12  C   UNL     1       3.064   6.387  19.633  0.00  0.00    +0.000 A 
ENDBRANCH   6   7
BRANCH   1  14
ATOM     13  O   UNL     1       3.031   2.524  16.918  0.00  0.00    +0.000 OA
ATOM     14  C   UNL     1       3.452   3.062  17.944  0.00  0.00    +0.000 C 
BRANCH  14  15
ATOM     15  C   UNL     1       2.820   2.929  19.249  0.00  0.00    +0.000 A 
ATOM     16  C   UNL     1       3.373   2.616  20.477  0.00  0.00    +0.000 A 
ATOM     17  C   UNL     1       2.414   2.621  21.529  0.00  0.00    +0.000 A 
ATOM     18  C   UNL     1       1.144   2.877  21.066  0.00  0.00    +0.000 A 
ATOM     19  S   UNL     1       1.120   3.136  19.376  0.00  0.00    +0.000 S 
ENDBRANCH  14  15
ENDBRANCH   1  14
BRANCH   2  20
ATOM     20  O   UNL     1       5.603   2.672  15.907  0.00  0.00    +0.000 OA
ATOM     21  H   UNL     1       4.861   2.858  15.292  0.00  0.00    +0.000 HD
ENDBRANCH   2  20
BRANCH   5  22
ATOM     22  C   UNL     1       7.095   6.559  18.601  0.00  0.00    +0.000 C 
BRANCH  22  23
ATOM     23  C   UNL     1       7.758   7.412  17.521  0.00  0.00    +0.000 C 
BRANCH  23  24
ATOM     24  C   UNL     1       7.219   8.842  17.543  0.00  0.00    +0.000 C 
BRANCH  24  25
ATOM     25  N   UNL     1       8.188   9.772  18.089  0.00  0.00    +0.000 N 
ATOM     26  C   UNL     1       9.092   9.508  19.078  0.00  0.00    +0.000 A 
ATOM     27  C   UNL     1       9.755  10.697  19.276  0.00  0.00    +0.000 A 
ATOM     28  N   UNL     1       9.287  11.663  18.423  0.00  0.00    +0.000 NA
ATOM     29  C   UNL     1       8.350  11.074  17.713  0.00  0.00    +0.000 A 
ENDBRANCH  24  25
ENDBRANCH  23  24
ENDBRANCH  22  23
ENDBRANCH   5  22
TORSDOF 8
ENDMDL
MODEL 9
REMARK VINA RESULT:      -7.0      1.284      1.743
REMARK  Name = 
REMARK  8 active torsions:
REMARK  status: ('A' for Active; 'I' for Inactive)
REMARK    1  A    between atoms: C_2  and  C_3
REMARK    2  A    between atoms: C_2  and  C_24
REMARK    3  A    between atoms: C_4  and  O_5
REMARK    4  A    between atoms: N_8  and  C_9
REMARK    5  A    between atoms: C_9  and  C_10
REMARK    6  A    between atoms: C_10  and  C_11
REMARK    7  A    between atoms: C_11  and  N_12
REMARK    8  A    between atoms: C_17  and  C_18
REMARK                            x       y       z     vdW  Elec       q    Type
REMARK                         _______ _______ _______ _____ _____    ______ ____
ROOT
ATOM      1  C   UNL     1       4.172   6.044  18.691  0.00  0.00    +0.000 C 
ATOM      2  C   UNL     1       3.922   7.020  17.809  0.00  0.00    +0.000 C 
ATOM      3  C   UNL     1       2.702   7.722  18.279  0.00  0.00    +0.000 C 
ATOM      4  O   UNL     1       2.223   8.730  17.798  0.00  0.00    +0.000 OA
ATOM      5  N   UNL     1       2.237   7.022  19.380  0.00  0.00    +0.000 N 
ATOM      6  C   UNL     1       3.120   5.930  19.746  0.00  0.00    +0.000 C 
ENDROOT
BRANCH   6   7
ATOM      7  C   UNL     1       2.378   4.608  19.797  0.00  0.00    +0.000 A 
ATOM      8  C   UNL     1       2.320   3.818  20.959  0.00  0.00    +0.000 A 
ATOM      9  C   UNL     1       1.697   2.570  20.943  0.00  0.00    +0.000 A 
ATOM     10  C   UNL     1       1.147   2.078  19.762  0.00  0.00    +0.000 A 
ATOM     11  C   UNL     1       1.192   2.847  18.603  0.00  0.00    +0.000 A 
ATOM     12  C   UNL     1       1.788   4.108  18.623  0.00  0.00    +0.000 A 
ENDBRANCH   6   7
BRANCH   1  14
ATOM     13  O   UNL     1       5.810   4.660  19.572  0.00  0.00    +0.000 OA
ATOM     14  C   UNL     1       5.324   5.123  18.538  0.00  0.00    +0.000 C 
BRANCH  14  15
ATOM     15  C   UNL     1       5.811   4.813  17.201  0.00  0.00    +0.000 A 
ATOM     16  C   UNL     1       6.951   5.246  16.548  0.00  0.00    +0.000 A 
ATOM     17  C   UNL     1       7.088   4.679  15.249  0.00  0.00    +0.000 A 
ATOM     18  C   UNL     1       6.018   3.877  14.922  0.00  0.00    +0.000 A 
ATOM     19  S   UNL     1       4.873   3.791  16.189  0.00  0.00    +0.000 S 
ENDBRANCH  14  15
ENDBRANCH   1  14
BRANCH   2  20
ATOM     20  O   UNL     1       4.616   7.353  16.679  0.00  0.00    +0.000 OA
ATOM     21  H   UNL     1       3.977   7.386  15.935  0.00  0.00    +0.000 HD
ENDBRANCH   2  20
BRANCH   5  22
ATOM     22  C   UNL     1       1.137   7.490  20.211  0.00  0.00    +0.000 C 
BRANCH  22  23
ATOM     23  C   UNL     1       1.571   8.577  21.192  0.00  0.00    +0.000 C 
BRANCH  23  24
ATOM     24  C   UNL     1       0.430   9.555  21.469  0.00  0.00    +0.000 C 
BRANCH  24  25
ATOM     25  N   UNL     1       0.207  10.449  20.350  0.00  0.00    +0.000 N 
ATOM     26  C   UNL     1      -0.935  10.544  19.608  0.00  0.00    +0.000 A 
ATOM     27  C   UNL     1      -0.655  11.489  18.649  0.00  0.00    +0.000 A 
ATOM     28  N   UNL     1       0.616  11.978  18.803  0.00  0.00    +0.000 NA
ATOM     29  C   UNL     1       1.108  11.340  19.842  0.00  0.00    +0.000 A 
ENDBRANCH  24  25
ENDBRANCH  23  24
ENDBRANCH  22  23
ENDBRANCH   5  22
TORSDOF 8
ENDMDL
