MODEL 1
REMARK VINA RESULT:      -8.2      0.000      0.000
REMARK  Name = 
REMARK  9 active torsions:
REMARK  status: ('A' for Active; 'I' for Inactive)
REMARK    1  A    between atoms: C_1  and  N_2
REMARK    2  A    between atoms: N_2  and  C_25
REMARK    3  A    between atoms: C_3  and  C_5
REMARK    4  A    between atoms: C_5  and  O_6
REMARK    5  A    between atoms: O_6  and  C_7
REMARK    6  A    between atoms: C_7  and  C_9
REMARK    7  A    between atoms: C_11  and  N_12
REMARK    8  A    between atoms: C_17  and  S_18
REMARK    9  A    between atoms: S_18  and  C_19
REMARK                            x       y       z     vdW  Elec       q    Type
REMARK                         _______ _______ _______ _____ _____    ______ ____
ROOT
ATOM      1  C   UNL     1       3.941   5.976  17.699  0.00  0.00    +0.000 A 
ATOM      2  C   UNL     1       5.201   6.458  17.275  0.00  0.00    +0.000 A 
ATOM      3  C   UNL     1       6.054   5.645  16.519  0.00  0.00    +0.000 A 
ATOM      4  C   UNL     1       5.699   4.330  16.226  0.00  0.00    +0.000 A 
ATOM      5  C   UNL     1       4.461   3.846  16.650  0.00  0.00    +0.000 A 
ATOM      6  C   UNL     1       3.557   4.658  17.364  0.00  0.00    +0.000 A 
ENDROOT
BRANCH   3   7
ATOM      7  N   UNL     1       7.300   6.201  15.974  0.00  0.00    +0.000 N 
ATOM      8  O   UNL     1       7.771   5.665  14.961  0.00  0.00    +0.000 OA
ATOM      9  O   UNL     1       7.810   7.160  16.567  0.00  0.00    +0.000 OA
ENDBRANCH   3   7
BRANCH   1  10
ATOM     10  C   UNL     1       3.044   6.922  18.436  0.00  0.00    +0.000 C 
ATOM     11  O   UNL     1       2.612   6.773  19.562  0.00  0.00    +0.000 OA
BRANCH  10  12
ATOM     12  O   UNL     1       2.821   8.020  17.659  0.00  0.00    +0.000 OA
BRANCH  12  13
ATOM     13  C   UNL     1       1.663   8.777  17.994  0.00  0.00    +0.000 C 
BRANCH  13  16
ATOM     14  C   UNL     1       0.861  12.485  18.611  0.00  0.00    +0.000 C 
ATOM     15  N   UNL     1       0.813  11.039  18.836  0.00  0.00    +0.000 N 
ATOM     16  C   UNL     1       1.755  10.312  18.090  0.00  0.00    +0.000 C 
ATOM     17  O   UNL     1       2.715  10.864  17.548  0.00  0.00    +0.000 OA
BRANCH  15  18
ATOM     18  C   UNL     1      -0.372  10.469  19.536  0.00  0.00    +0.000 C 
ATOM     19  C   UNL     1      -1.690  11.269  19.402  0.00  0.00    +0.000 C 
ATOM     20  C   UNL     1      -1.628  12.432  20.383  0.00  0.00    +0.000 C 
ATOM     21  S   UNL     1      -0.790  11.784  21.810  0.00  0.00    +0.000 S 
ATOM     22  O   UNL     1      -1.777  11.445  22.812  0.00  0.00    +0.000 OA
ATOM     23  O   UNL     1       0.355  12.620  22.104  0.00  0.00    +0.000 OA
ATOM     24  C   UNL     1      -0.221  10.280  21.055  0.00  0.00    +0.000 C 
ENDBRANCH  15  18
ENDBRANCH  13  16
ENDBRANCH  12  13
ENDBRANCH  10  12
ENDBRANCH   1  10
BRANCH   6  25
ATOM     25  S   UNL     1       1.928   3.950  17.593  0.00  0.00    +0.000 S 
BRANCH  25  26
ATOM     26  C   UNL     1       1.992   3.295  19.245  0.00  0.00    +0.000 A 
ATOM     27  C   UNL     1       3.220   2.850  19.741  0.00  0.00    +0.000 A 
ATOM     28  C   UNL     1       3.340   2.432  21.067  0.00  0.00    +0.000 A 
ATOM     29  C   UNL     1       2.232   2.464  21.911  0.00  0.00    +0.000 A 
ATOM     30  C   UNL     1       1.004   2.917  21.431  0.00  0.00    +0.000 A 
ATOM     31  C   UNL     1       0.884   3.335  20.101  0.00  0.00    +0.000 A 
ENDBRANCH  25  26
ENDBRANCH   6  25
TORSDOF 8
ENDMDL
MODEL 2
REMARK VINA RESULT:      -8.0      3.029      5.108
REMARK  Name = 
REMARK  9 active torsions:
REMARK  status: ('A' for Active; 'I' for Inactive)
REMARK    1  A    between atoms: C_1  and  N_2
REMARK    2  A    between atoms: N_2  and  C_25
REMARK    3  A    between atoms: C_3  and  C_5
REMARK    4  A    between atoms: C_5  and  O_6
REMARK    5  A    between atoms: O_6  and  C_7
REMARK    6  A    between atoms: C_7  and  C_9
REMARK    7  A    between atoms: C_11  and  N_12
REMARK    8  A    between atoms: C_17  and  S_18
REMARK    9  A    between atoms: S_18  and  C_19
REMARK                            x       y       z     vdW  Elec       q    Type
REMARK                         _______ _______ _______ _____ _____    ______ ____
ROOT
ATOM      1  C   UNL     1       3.042   5.276  18.685  0.00  0.00    +0.000 A 
ATOM      2  C   UNL     1       2.461   4.669  19.822  0.00  0.00    +0.000 A 
ATOM      3  C   UNL     1       2.668   3.310  20.086  0.00  0.00    +0.000 A 
ATOM      4  C   UNL     1       3.399   2.523  19.198  0.00  0.00    +0.000 A 
ATOM      5  C   UNL     1       3.967   3.114  18.069  0.00  0.00    +0.000 A 
ATOM      6  C   UNL     1       3.824   4.491  17.807  0.00  0.00    +0.000 A 
ENDROOT
BRANCH   3   7
ATOM      7  N   UNL     1       2.170   2.723  21.337  0.00  0.00    +0.000 N 
ATOM      8  O   UNL     1       2.998   2.197  22.093  0.00  0.00    +0.000 OA
ATOM      9  O   UNL     1       0.952   2.778  21.553  0.00  0.00    +0.000 OA
ENDBRANCH   3   7
BRANCH   1  10
ATOM     10  C   UNL     1       2.848   6.750  18.503  0.00  0.00    +0.000 C 
ATOM     11  O   UNL     1       3.114   7.392  17.507  0.00  0.00    +0.000 OA
BRANCH  10  12
ATOM     12  O   UNL     1       2.271   7.264  19.627  0.00  0.00    +0.000 OA
BRANCH  12  13
ATOM     13  C   UNL     1       1.825   8.611  19.519  0.00  0.00    +0.000 C 
BRANCH  13  16
ATOM     14  C   UNL     1      -0.853  10.773  21.232  0.00  0.00    +0.000 C 
ATOM     15  N   UNL     1      -0.091  10.198  20.122  0.00  0.00    +0.000 N 
ATOM     16  C   UNL     1       0.757   9.142  20.496  0.00  0.00    +0.000 C 
ATOM     17  O   UNL     1       0.634   8.567  21.580  0.00  0.00    +0.000 OA
BRANCH  15  18
ATOM     18  C   UNL     1      -0.033  10.949  18.837  0.00  0.00    +0.000 C 
ATOM     19  C   UNL     1      -0.834  12.272  18.786  0.00  0.00    +0.000 C 
ATOM     20  C   UNL     1      -2.297  11.919  18.553  0.00  0.00    +0.000 C 
ATOM     21  S   UNL     1      -2.263  10.527  17.449  0.00  0.00    +0.000 S 
ATOM     22  O   UNL     1      -2.522  10.996  16.105  0.00  0.00    +0.000 OA
ATOM     23  O   UNL     1      -3.004   9.435  18.044  0.00  0.00    +0.000 OA
ATOM     24  C   UNL     1      -0.526  10.185  17.596  0.00  0.00    +0.000 C 
ENDBRANCH  15  18
ENDBRANCH  13  16
ENDBRANCH  12  13
ENDBRANCH  10  12
ENDBRANCH   1  10
BRANCH   6  25
ATOM     25  S   UNL     1       4.832   5.111  16.463  0.00  0.00    +0.000 S 
BRANCH  25  26
ATOM     26  C   UNL     1       6.225   5.839  17.294  0.00  0.00    +0.000 A 
ATOM     27  C   UNL     1       6.640   7.117  16.909  0.00  0.00    +0.000 A 
ATOM     28  C   UNL     1       7.656   7.773  17.607  0.00  0.00    +0.000 A 
ATOM     29  C   UNL     1       8.261   7.157  18.701  0.00  0.00    +0.000 A 
ATOM     30  C   UNL     1       7.848   5.887  19.100  0.00  0.00    +0.000 A 
ATOM     31  C   UNL     1       6.830   5.230  18.401  0.00  0.00    +0.000 A 
ENDBRANCH  25  26
ENDBRANCH   6  25
TORSDOF 8
ENDMDL
MODEL 3
REMARK VINA RESULT:      -7.9      0.951      1.287
REMARK  Name = 
REMARK  9 active torsions:
REMARK  status: ('A' for Active; 'I' for Inactive)
REMARK    1  A    between atoms: C_1  and  N_2
REMARK    2  A    between atoms: N_2  and  C_25
REMARK    3  A    between atoms: C_3  and  C_5
REMARK    4  A    between atoms: C_5  and  O_6
REMARK    5  A    between atoms: O_6  and  C_7
REMARK    6  A    between atoms: C_7  and  C_9
REMARK    7  A    between atoms: C_11  and  N_12
REMARK    8  A    between atoms: C_17  and  S_18
REMARK    9  A    between atoms: S_18  and  C_19
REMARK                            x       y       z     vdW  Elec       q    Type
REMARK                         _______ _______ _______ _____ _____    ______ ____
ROOT
ATOM      1  C   UNL     1       3.839   6.266  17.727  0.00  0.00    +0.000 A 
ATOM      2  C   UNL     1       5.119   6.680  17.292  0.00  0.00    +0.000 A 
ATOM      3  C   UNL     1       5.952   5.799  16.592  0.00  0.00    +0.000 A 
ATOM      4  C   UNL     1       5.554   4.482  16.367  0.00  0.00    +0.000 A 
ATOM      5  C   UNL     1       4.295   4.064  16.802  0.00  0.00    +0.000 A 
ATOM      6  C   UNL     1       3.412   4.946  17.458  0.00  0.00    +0.000 A 
ENDROOT
BRANCH   3   7
ATOM      7  N   UNL     1       7.222   6.280  16.033  0.00  0.00    +0.000 N 
ATOM      8  O   UNL     1       7.662   5.701  15.031  0.00  0.00    +0.000 OA
ATOM      9  O   UNL     1       7.781   7.225  16.606  0.00  0.00    +0.000 OA
ENDBRANCH   3   7
BRANCH   1  10
ATOM     10  C   UNL     1       2.967   7.281  18.400  0.00  0.00    +0.000 C 
ATOM     11  O   UNL     1       2.612   7.266  19.562  0.00  0.00    +0.000 OA
BRANCH  10  12
ATOM     12  O   UNL     1       2.667   8.270  17.509  0.00  0.00    +0.000 OA
BRANCH  12  13
ATOM     13  C   UNL     1       1.543   9.073  17.850  0.00  0.00    +0.000 C 
BRANCH  13  16
ATOM     14  C   UNL     1       1.009  12.675  19.082  0.00  0.00    +0.000 C 
ATOM     15  N   UNL     1       0.857  11.219  19.065  0.00  0.00    +0.000 N 
ATOM     16  C   UNL     1       1.746  10.561  18.199  0.00  0.00    +0.000 C 
ATOM     17  O   UNL     1       2.743  11.126  17.745  0.00  0.00    +0.000 OA
BRANCH  15  18
ATOM     18  C   UNL     1      -0.366  10.627  19.674  0.00  0.00    +0.000 C 
ATOM     19  C   UNL     1      -1.176  11.553  20.612  0.00  0.00    +0.000 C 
ATOM     20  C   UNL     1      -0.473  11.574  21.962  0.00  0.00    +0.000 C 
ATOM     21  S   UNL     1       0.134   9.919  22.188  0.00  0.00    +0.000 S 
ATOM     22  O   UNL     1      -0.775   9.208  23.062  0.00  0.00    +0.000 OA
ATOM     23  O   UNL     1       1.560   9.969  22.431  0.00  0.00    +0.000 OA
ATOM     24  C   UNL     1      -0.144   9.364  20.524  0.00  0.00    +0.000 C 
ENDBRANCH  15  18
ENDBRANCH  13  16
ENDBRANCH  12  13
ENDBRANCH  10  12
ENDBRANCH   1  10
BRANCH   6  25
ATOM     25  S   UNL     1       1.758   4.308  17.706  0.00  0.00    +0.000 S 
BRANCH  25  26
ATOM     26  C   UNL     1       1.799   3.688  19.372  0.00  0.00    +0.000 A 
ATOM     27  C   UNL     1       0.642   3.108  19.899  0.00  0.00    +0.000 A 
ATOM     28  C   UNL     1       0.660   2.509  21.159  0.00  0.00    +0.000 A 
ATOM     29  C   UNL     1       1.839   2.479  21.901  0.00  0.00    +0.000 A 
ATOM     30  C   UNL     1       3.002   3.045  21.381  0.00  0.00    +0.000 A 
ATOM     31  C   UNL     1       2.984   3.645  20.118  0.00  0.00    +0.000 A 
ENDBRANCH  25  26
ENDBRANCH   6  25
TORSDOF 8
ENDMDL
MODEL 4
REMARK VINA RESULT:      -7.8      0.954      1.005
REMARK  Name = 
REMARK  9 active torsions:
REMARK  status: ('A' for Active; 'I' for Inactive)
REMARK    1  A    between atoms: C_1  and  N_2
REMARK    2  A    between atoms: N_2  and  C_25
REMARK    3  A    between atoms: C_3  and  C_5
REMARK    4  A    between atoms: C_5  and  O_6
REMARK    5  A    between atoms: O_6  and  C_7
REMARK    6  A    between atoms: C_7  and  C_9
REMARK    7  A    between atoms: C_11  and  N_12
REMARK    8  A    between atoms: C_17  and  S_18
REMARK    9  A    between atoms: S_18  and  C_19
REMARK                            x       y       z     vdW  Elec       q    Type
REMARK                         _______ _______ _______ _____ _____    ______ ____
ROOT
ATOM      1  C   UNL     1       3.908   5.996  17.669  0.00  0.00    +0.000 A 
ATOM      2  C   UNL     1       5.172   6.476  17.253  0.00  0.00    +0.000 A 
ATOM      3  C   UNL     1       6.047   5.647  16.541  0.00  0.00    +0.000 A 
ATOM      4  C   UNL     1       5.710   4.318  16.287  0.00  0.00    +0.000 A 
ATOM      5  C   UNL     1       4.469   3.836  16.704  0.00  0.00    +0.000 A 
ATOM      6  C   UNL     1       3.543   4.664  17.371  0.00  0.00    +0.000 A 
ENDROOT
BRANCH   3   7
ATOM      7  N   UNL     1       7.298   6.196  16.001  0.00  0.00    +0.000 N 
ATOM      8  O   UNL     1       7.777   5.650  14.998  0.00  0.00    +0.000 OA
ATOM      9  O   UNL     1       7.804   7.160  16.590  0.00  0.00    +0.000 OA
ENDBRANCH   3   7
BRANCH   1  10
ATOM     10  C   UNL     1       2.988   6.957  18.356  0.00  0.00    +0.000 C 
ATOM     11  O   UNL     1       2.646   6.917  19.521  0.00  0.00    +0.000 OA
BRANCH  10  12
ATOM     12  O   UNL     1       2.624   7.932  17.474  0.00  0.00    +0.000 OA
BRANCH  12  13
ATOM     13  C   UNL     1       1.537   8.752  17.889  0.00  0.00    +0.000 C 
BRANCH  13  16
ATOM     14  C   UNL     1       1.030  12.469  18.725  0.00  0.00    +0.000 C 
ATOM     15  N   UNL     1       0.850  11.022  18.851  0.00  0.00    +0.000 N 
ATOM     16  C   UNL     1       1.756  10.264  18.091  0.00  0.00    +0.000 C 
ATOM     17  O   UNL     1       2.781  10.764  17.622  0.00  0.00    +0.000 OA
BRANCH  15  18
ATOM     18  C   UNL     1      -0.407  10.514  19.469  0.00  0.00    +0.000 C 
ATOM     19  C   UNL     1      -1.630  10.400  18.527  0.00  0.00    +0.000 C 
ATOM     20  C   UNL     1      -2.227  11.792  18.374  0.00  0.00    +0.000 C 
ATOM     21  S   UNL     1      -2.045  12.548  19.972  0.00  0.00    +0.000 S 
ATOM     22  O   UNL     1      -3.309  12.461  20.672  0.00  0.00    +0.000 OA
ATOM     23  O   UNL     1      -1.327  13.797  19.824  0.00  0.00    +0.000 OA
ATOM     24  C   UNL     1      -0.944  11.333  20.655  0.00  0.00    +0.000 C 
ENDBRANCH  15  18
ENDBRANCH  13  16
ENDBRANCH  12  13
ENDBRANCH  10  12
ENDBRANCH   1  10
BRANCH   6  25
ATOM     25  S   UNL     1       1.917   3.947  17.593  0.00  0.00    +0.000 S 
BRANCH  25  26
ATOM     26  C   UNL     1       1.977   3.292  19.245  0.00  0.00    +0.000 A 
ATOM     27  C   UNL     1       3.190   2.785  19.720  0.00  0.00    +0.000 A 
ATOM     28  C   UNL     1       3.312   2.364  21.045  0.00  0.00    +0.000 A 
ATOM     29  C   UNL     1       2.223   2.453  21.909  0.00  0.00    +0.000 A 
ATOM     30  C   UNL     1       1.011   2.968  21.449  0.00  0.00    +0.000 A 
ATOM     31  C   UNL     1       0.888   3.390  20.121  0.00  0.00    +0.000 A 
ENDBRANCH  25  26
ENDBRANCH   6  25
TORSDOF 8
ENDMDL
MODEL 5
REMARK VINA RESULT:      -7.7      2.906      9.300
REMARK  Name = 
REMARK  9 active torsions:
REMARK  status: ('A' for Active; 'I' for Inactive)
REMARK    1  A    between atoms: C_1  and  N_2
REMARK    2  A    between atoms: N_2  and  C_25
REMARK    3  A    between atoms: C_3  and  C_5
REMARK    4  A    between atoms: C_5  and  O_6
REMARK    5  A    between atoms: O_6  and  C_7
REMARK    6  A    between atoms: C_7  and  C_9
REMARK    7  A    between atoms: C_11  and  N_12
REMARK    8  A    between atoms: C_17  and  S_18
REMARK    9  A    between atoms: S_18  and  C_19
REMARK                            x       y       z     vdW  Elec       q    Type
REMARK                         _______ _______ _______ _____ _____    ______ ____
ROOT
ATOM      1  C   UNL     1      -0.074  10.242  18.487  0.00  0.00    +0.000 A 
ATOM      2  C   UNL     1      -1.063   9.991  17.508  0.00  0.00    +0.000 A 
ATOM      3  C   UNL     1      -2.270  10.699  17.519  0.00  0.00    +0.000 A 
ATOM      4  C   UNL     1      -2.539  11.617  18.533  0.00  0.00    +0.000 A 
ATOM      5  C   UNL     1      -1.571  11.862  19.508  0.00  0.00    +0.000 A 
ATOM      6  C   UNL     1      -0.324  11.206  19.489  0.00  0.00    +0.000 A 
ENDROOT
BRANCH   3   7
ATOM      7  N   UNL     1      -3.231  10.525  16.423  0.00  0.00    +0.000 N 
ATOM      8  O   UNL     1      -2.904   9.781  15.488  0.00  0.00    +0.000 OA
ATOM      9  O   UNL     1      -4.302  11.142  16.493  0.00  0.00    +0.000 OA
ENDBRANCH   3   7
BRANCH   1  10
ATOM     10  C   UNL     1       1.226   9.507  18.371  0.00  0.00    +0.000 C 
ATOM     11  O   UNL     1       2.038   9.621  17.474  0.00  0.00    +0.000 OA
BRANCH  10  12
ATOM     12  O   UNL     1       1.389   8.715  19.470  0.00  0.00    +0.000 OA
BRANCH  12  13
ATOM     13  C   UNL     1       2.259   7.603  19.293  0.00  0.00    +0.000 C 
BRANCH  13  16
ATOM     14  C   UNL     1       1.469   3.886  19.875  0.00  0.00    +0.000 C 
ATOM     15  N   UNL     1       2.094   5.050  19.242  0.00  0.00    +0.000 N 
ATOM     16  C   UNL     1       1.913   6.251  19.947  0.00  0.00    +0.000 C 
ATOM     17  O   UNL     1       1.538   6.261  21.122  0.00  0.00    +0.000 OA
BRANCH  15  18
ATOM     18  C   UNL     1       2.551   4.928  17.830  0.00  0.00    +0.000 C 
ATOM     19  C   UNL     1       2.618   3.491  17.258  0.00  0.00    +0.000 C 
ATOM     20  C   UNL     1       3.904   2.852  17.765  0.00  0.00    +0.000 C 
ATOM     21  S   UNL     1       5.099   4.168  17.773  0.00  0.00    +0.000 S 
ATOM     22  O   UNL     1       5.920   4.055  16.586  0.00  0.00    +0.000 OA
ATOM     23  O   UNL     1       5.668   4.280  19.099  0.00  0.00    +0.000 OA
ATOM     24  C   UNL     1       3.947   5.499  17.529  0.00  0.00    +0.000 C 
ENDBRANCH  15  18
ENDBRANCH  13  16
ENDBRANCH  12  13
ENDBRANCH  10  12
ENDBRANCH   1  10
BRANCH   6  25
ATOM     25  S   UNL     1       0.876  11.837  20.660  0.00  0.00    +0.000 S 
BRANCH  25  26
ATOM     26  C   UNL     1       1.539  13.269  19.841  0.00  0.00    +0.000 A 
ATOM     27  C   UNL     1       2.419  13.080  18.772  0.00  0.00    +0.000 A 
ATOM     28  C   UNL     1       2.877  14.170  18.030  0.00  0.00    +0.000 A 
ATOM     29  C   UNL     1       2.451  15.458  18.346  0.00  0.00    +0.000 A 
ATOM     30  C   UNL     1       1.564  15.657  19.404  0.00  0.00    +0.000 A 
ATOM     31  C   UNL     1       1.106  14.565  20.148  0.00  0.00    +0.000 A 
ENDBRANCH  25  26
ENDBRANCH   6  25
TORSDOF 8
ENDMDL
MODEL 6
REMARK VINA RESULT:      -7.5      2.836      4.993
REMARK  Name = 
REMARK  9 active torsions:
REMARK  status: ('A' for Active; 'I' for Inactive)
REMARK    1  A    between atoms: C_1  and  N_2
REMARK    2  A    between atoms: N_2  and  C_25
REMARK    3  A    between atoms: C_3  and  C_5
REMARK    4  A    between atoms: C_5  and  O_6
REMARK    5  A    between atoms: O_6  and  C_7
REMARK    6  A    between atoms: C_7  and  C_9
REMARK    7  A    between atoms: C_11  and  N_12
REMARK    8  A    between atoms: C_17  and  S_18
REMARK    9  A    between atoms: S_18  and  C_19
REMARK                            x       y       z     vdW  Elec       q    Type
REMARK                         _______ _______ _______ _____ _____    ______ ____
ROOT
ATOM      1  C   UNL     1       3.005   5.374  18.722  0.00  0.00    +0.000 A 
ATOM      2  C   UNL     1       2.444   4.726  19.846  0.00  0.00    +0.000 A 
ATOM      3  C   UNL     1       2.670   3.362  20.065  0.00  0.00    +0.000 A 
ATOM      4  C   UNL     1       3.400   2.611  19.145  0.00  0.00    +0.000 A 
ATOM      5  C   UNL     1       3.948   3.243  18.028  0.00  0.00    +0.000 A 
ATOM      6  C   UNL     1       3.786   4.626  17.811  0.00  0.00    +0.000 A 
ENDROOT
BRANCH   3   7
ATOM      7  N   UNL     1       2.193   2.731  21.303  0.00  0.00    +0.000 N 
ATOM      8  O   UNL     1       3.033   2.170  22.020  0.00  0.00    +0.000 OA
ATOM      9  O   UNL     1       0.980   2.787  21.547  0.00  0.00    +0.000 OA
ENDBRANCH   3   7
BRANCH   1  10
ATOM     10  C   UNL     1       2.792   6.851  18.588  0.00  0.00    +0.000 C 
ATOM     11  O   UNL     1       3.223   7.562  17.702  0.00  0.00    +0.000 OA
BRANCH  10  12
ATOM     12  O   UNL     1       1.984   7.276  19.601  0.00  0.00    +0.000 OA
BRANCH  12  13
ATOM     13  C   UNL     1       1.625   8.653  19.554  0.00  0.00    +0.000 C 
BRANCH  13  16
ATOM     14  C   UNL     1      -0.182  11.047  21.959  0.00  0.00    +0.000 C 
ATOM     15  N   UNL     1       0.490  10.624  20.728  0.00  0.00    +0.000 N 
ATOM     16  C   UNL     1       0.697   9.237  20.637  0.00  0.00    +0.000 C 
ATOM     17  O   UNL     1       0.099   8.445  21.369  0.00  0.00    +0.000 OA
BRANCH  15  18
ATOM     18  C   UNL     1       1.151  11.661  19.888  0.00  0.00    +0.000 C 
ATOM     19  C   UNL     1       1.669  12.913  20.636  0.00  0.00    +0.000 C 
ATOM     20  C   UNL     1       0.478  13.827  20.888  0.00  0.00    +0.000 C 
ATOM     21  S   UNL     1      -0.539  13.665  19.440  0.00  0.00    +0.000 S 
ATOM     22  O   UNL     1      -0.295  14.798  18.573  0.00  0.00    +0.000 OA
ATOM     23  O   UNL     1      -1.873  13.273  19.843  0.00  0.00    +0.000 OA
ATOM     24  C   UNL     1       0.291  12.250  18.758  0.00  0.00    +0.000 C 
ENDBRANCH  15  18
ENDBRANCH  13  16
ENDBRANCH  12  13
ENDBRANCH  10  12
ENDBRANCH   1  10
BRANCH   6  25
ATOM     25  S   UNL     1       4.771   5.299  16.476  0.00  0.00    +0.000 S 
BRANCH  25  26
ATOM     26  C   UNL     1       6.200   5.955  17.307  0.00  0.00    +0.000 A 
ATOM     27  C   UNL     1       6.636   7.240  16.973  0.00  0.00    +0.000 A 
ATOM     28  C   UNL     1       7.683   7.838  17.677  0.00  0.00    +0.000 A 
ATOM     29  C   UNL     1       8.298   7.157  18.725  0.00  0.00    +0.000 A 
ATOM     30  C   UNL     1       7.863   5.878  19.074  0.00  0.00    +0.000 A 
ATOM     31  C   UNL     1       6.814   5.279  18.369  0.00  0.00    +0.000 A 
ENDBRANCH  25  26
ENDBRANCH   6  25
TORSDOF 8
ENDMDL
MODEL 7
REMARK VINA RESULT:      -7.5      1.393      2.216
REMARK  Name = 
REMARK  9 active torsions:
REMARK  status: ('A' for Active; 'I' for Inactive)
REMARK    1  A    between atoms: C_1  and  N_2
REMARK    2  A    between atoms: N_2  and  C_25
REMARK    3  A    between atoms: C_3  and  C_5
REMARK    4  A    between atoms: C_5  and  O_6
REMARK    5  A    between atoms: O_6  and  C_7
REMARK    6  A    between atoms: C_7  and  C_9
REMARK    7  A    between atoms: C_11  and  N_12
REMARK    8  A    between atoms: C_17  and  S_18
REMARK    9  A    between atoms: S_18  and  C_19
REMARK                            x       y       z     vdW  Elec       q    Type
REMARK                         _______ _______ _______ _____ _____    ______ ____
ROOT
ATOM      1  C   UNL     1       3.750   6.766  17.601  0.00  0.00    +0.000 A 
ATOM      2  C   UNL     1       5.088   7.010  17.214  0.00  0.00    +0.000 A 
ATOM      3  C   UNL     1       5.921   5.952  16.831  0.00  0.00    +0.000 A 
ATOM      4  C   UNL     1       5.461   4.637  16.886  0.00  0.00    +0.000 A 
ATOM      5  C   UNL     1       4.144   4.389  17.276  0.00  0.00    +0.000 A 
ATOM      6  C   UNL     1       3.265   5.439  17.611  0.00  0.00    +0.000 A 
ENDROOT
BRANCH   3   7
ATOM      7  N   UNL     1       7.264   6.231  16.307  0.00  0.00    +0.000 N 
ATOM      8  O   UNL     1       7.689   5.501  15.401  0.00  0.00    +0.000 OA
ATOM      9  O   UNL     1       7.895   7.170  16.811  0.00  0.00    +0.000 OA
ENDBRANCH   3   7
BRANCH   1  10
ATOM     10  C   UNL     1       2.889   7.949  17.921  0.00  0.00    +0.000 C 
ATOM     11  O   UNL     1       2.528   8.808  17.141  0.00  0.00    +0.000 OA
BRANCH  10  12
ATOM     12  O   UNL     1       2.521   7.888  19.233  0.00  0.00    +0.000 OA
BRANCH  12  13
ATOM     13  C   UNL     1       1.208   8.359  19.519  0.00  0.00    +0.000 C 
BRANCH  13  16
ATOM     14  C   UNL     1      -0.092  10.282  22.582  0.00  0.00    +0.000 C 
ATOM     15  N   UNL     1      -0.056   9.827  21.191  0.00  0.00    +0.000 N 
ATOM     16  C   UNL     1       0.841   8.772  20.958  0.00  0.00    +0.000 C 
ATOM     17  O   UNL     1       1.309   8.104  21.883  0.00  0.00    +0.000 OA
BRANCH  15  18
ATOM     18  C   UNL     1      -0.683  10.685  20.148  0.00  0.00    +0.000 C 
ATOM     19  C   UNL     1       0.202  11.026  18.925  0.00  0.00    +0.000 C 
ATOM     20  C   UNL     1       1.142  12.151  19.333  0.00  0.00    +0.000 C 
ATOM     21  S   UNL     1       0.177  13.188  20.407  0.00  0.00    +0.000 S 
ATOM     22  O   UNL     1      -0.296  14.326  19.648  0.00  0.00    +0.000 OA
ATOM     23  O   UNL     1       0.870  13.334  21.669  0.00  0.00    +0.000 OA
ATOM     24  C   UNL     1      -1.178  12.061  20.625  0.00  0.00    +0.000 C 
ENDBRANCH  15  18
ENDBRANCH  13  16
ENDBRANCH  12  13
ENDBRANCH  10  12
ENDBRANCH   1  10
BRANCH   6  25
ATOM     25  S   UNL     1       1.557   4.948  17.832  0.00  0.00    +0.000 S 
BRANCH  25  26
ATOM     26  C   UNL     1       1.565   4.127  19.410  0.00  0.00    +0.000 A 
ATOM     27  C   UNL     1       1.041   2.835  19.494  0.00  0.00    +0.000 A 
ATOM     28  C   UNL     1       1.127   2.111  20.684  0.00  0.00    +0.000 A 
ATOM     29  C   UNL     1       1.745   2.672  21.799  0.00  0.00    +0.000 A 
ATOM     30  C   UNL     1       2.281   3.957  21.724  0.00  0.00    +0.000 A 
ATOM     31  C   UNL     1       2.195   4.683  20.531  0.00  0.00    +0.000 A 
ENDBRANCH  25  26
ENDBRANCH   6  25
TORSDOF 8
ENDMDL
MODEL 8
REMARK VINA RESULT:      -7.5      2.481      4.851
REMARK  Name = 
REMARK  9 active torsions:
REMARK  status: ('A' for Active; 'I' for Inactive)
REMARK    1  A    between atoms: C_1  and  N_2
REMARK    2  A    between atoms: N_2  and  C_25
REMARK    3  A    between atoms: C_3  and  C_5
REMARK    4  A    between atoms: C_5  and  O_6
REMARK    5  A    between atoms: O_6  and  C_7
REMARK    6  A    between atoms: C_7  and  C_9
REMARK    7  A    between atoms: C_11  and  N_12
REMARK    8  A    between atoms: C_17  and  S_18
REMARK    9  A    between atoms: S_18  and  C_19
REMARK                            x       y       z     vdW  Elec       q    Type
REMARK                         _______ _______ _______ _____ _____    ______ ____
ROOT
ATOM      1  C   UNL     1       3.510   5.628  18.716  0.00  0.00    +0.000 A 
ATOM      2  C   UNL     1       2.461   5.037  19.458  0.00  0.00    +0.000 A 
ATOM      3  C   UNL     1       2.651   3.810  20.105  0.00  0.00    +0.000 A 
ATOM      4  C   UNL     1       3.857   3.124  19.974  0.00  0.00    +0.000 A 
ATOM      5  C   UNL     1       4.893   3.697  19.236  0.00  0.00    +0.000 A 
ATOM      6  C   UNL     1       4.751   4.958  18.622  0.00  0.00    +0.000 A 
ENDROOT
BRANCH   3   7
ATOM      7  N   UNL     1       1.600   3.272  20.978  0.00  0.00    +0.000 N 
ATOM      8  O   UNL     1       1.892   3.062  22.163  0.00  0.00    +0.000 OA
ATOM      9  O   UNL     1       0.491   3.050  20.474  0.00  0.00    +0.000 OA
ENDBRANCH   3   7
BRANCH   1  10
ATOM     10  C   UNL     1       3.267   6.978  18.116  0.00  0.00    +0.000 C 
ATOM     11  O   UNL     1       3.714   7.388  17.063  0.00  0.00    +0.000 OA
BRANCH  10  12
ATOM     12  O   UNL     1       2.412   7.674  18.919  0.00  0.00    +0.000 OA
BRANCH  12  13
ATOM     13  C   UNL     1       1.478   8.504  18.237  0.00  0.00    +0.000 C 
BRANCH  13  16
ATOM     14  C   UNL     1       0.891  12.275  18.700  0.00  0.00    +0.000 C 
ATOM     15  N   UNL     1       0.770  10.845  18.991  0.00  0.00    +0.000 N 
ATOM     16  C   UNL     1       1.656  10.035  18.263  0.00  0.00    +0.000 C 
ATOM     17  O   UNL     1       2.634  10.508  17.680  0.00  0.00    +0.000 OA
BRANCH  15  18
ATOM     18  C   UNL     1      -0.430  10.373  19.737  0.00  0.00    +0.000 C 
ATOM     19  C   UNL     1      -1.142  11.428  20.617  0.00  0.00    +0.000 C 
ATOM     20  C   UNL     1      -0.350  11.562  21.911  0.00  0.00    +0.000 C 
ATOM     21  S   UNL     1       0.212   9.916  22.277  0.00  0.00    +0.000 S 
ATOM     22  O   UNL     1      -0.660   9.341  23.278  0.00  0.00    +0.000 OA
ATOM     23  O   UNL     1       1.653   9.932  22.423  0.00  0.00    +0.000 OA
ATOM     24  C   UNL     1      -0.196   9.200  20.704  0.00  0.00    +0.000 C 
ENDBRANCH  15  18
ENDBRANCH  13  16
ENDBRANCH  12  13
ENDBRANCH  10  12
ENDBRANCH   1  10
BRANCH   6  25
ATOM     25  S   UNL     1       6.261   5.640  17.943  0.00  0.00    +0.000 S 
BRANCH  25  26
ATOM     26  C   UNL     1       6.310   4.974  16.295  0.00  0.00    +0.000 A 
ATOM     27  C   UNL     1       5.175   4.326  15.801  0.00  0.00    +0.000 A 
ATOM     28  C   UNL     1       5.128   3.887  14.477  0.00  0.00    +0.000 A 
ATOM     29  C   UNL     1       6.217   4.099  13.633  0.00  0.00    +0.000 A 
ATOM     30  C   UNL     1       7.351   4.754  14.112  0.00  0.00    +0.000 A 
ATOM     31  C   UNL     1       7.397   5.194  15.439  0.00  0.00    +0.000 A 
ENDBRANCH  25  26
ENDBRANCH   6  25
TORSDOF 8
ENDMDL
MODEL 9
REMARK VINA RESULT:      -7.5      2.719      9.359
REMARK  Name = 
REMARK  9 active torsions:
REMARK  status: ('A' for Active; 'I' for Inactive)
REMARK    1  A    between atoms: C_1  and  N_2
REMARK    2  A    between atoms: N_2  and  C_25
REMARK    3  A    between atoms: C_3  and  C_5
REMARK    4  A    between atoms: C_5  and  O_6
REMARK    5  A    between atoms: O_6  and  C_7
REMARK    6  A    between atoms: C_7  and  C_9
REMARK    7  A    between atoms: C_11  and  N_12
REMARK    8  A    between atoms: C_17  and  S_18
REMARK    9  A    between atoms: S_18  and  C_19
REMARK                            x       y       z     vdW  Elec       q    Type
REMARK                         _______ _______ _______ _____ _____    ______ ____
ROOT
ATOM      1  C   UNL     1       0.131  10.240  18.469  0.00  0.00    +0.000 A 
ATOM      2  C   UNL     1      -0.885   9.934  17.534  0.00  0.00    +0.000 A 
ATOM      3  C   UNL     1      -2.159  10.503  17.657  0.00  0.00    +0.000 A 
ATOM      4  C   UNL     1      -2.460  11.331  18.738  0.00  0.00    +0.000 A 
ATOM      5  C   UNL     1      -1.464  11.629  19.669  0.00  0.00    +0.000 A 
ATOM      6  C   UNL     1      -0.157  11.117  19.539  0.00  0.00    +0.000 A 
ENDROOT
BRANCH   3   7
ATOM      7  N   UNL     1      -3.163  10.281  16.609  0.00  0.00    +0.000 N 
ATOM      8  O   UNL     1      -4.284  10.782  16.775  0.00  0.00    +0.000 OA
ATOM      9  O   UNL     1      -2.833   9.596  15.632  0.00  0.00    +0.000 OA
ENDBRANCH   3   7
BRANCH   1  10
ATOM     10  C   UNL     1       1.492   9.662  18.235  0.00  0.00    +0.000 C 
ATOM     11  O   UNL     1       2.338  10.097  17.479  0.00  0.00    +0.000 OA
BRANCH  10  12
ATOM     12  O   UNL     1       1.663   8.582  19.051  0.00  0.00    +0.000 OA
BRANCH  12  13
ATOM     13  C   UNL     1       1.990   7.366  18.389  0.00  0.00    +0.000 C 
BRANCH  13  16
ATOM     14  C   UNL     1       4.177   4.341  19.306  0.00  0.00    +0.000 C 
ATOM     15  N   UNL     1       3.777   5.544  18.573  0.00  0.00    +0.000 N 
ATOM     16  C   UNL     1       2.713   6.246  19.162  0.00  0.00    +0.000 C 
ATOM     17  O   UNL     1       2.369   6.038  20.328  0.00  0.00    +0.000 OA
BRANCH  15  18
ATOM     18  C   UNL     1       4.278   5.725  17.182  0.00  0.00    +0.000 C 
ATOM     19  C   UNL     1       4.949   4.490  16.535  0.00  0.00    +0.000 C 
ATOM     20  C   UNL     1       6.372   4.403  17.071  0.00  0.00    +0.000 C 
ATOM     21  S   UNL     1       6.912   6.090  17.215  0.00  0.00    +0.000 S 
ATOM     22  O   UNL     1       7.734   6.413  16.068  0.00  0.00    +0.000 OA
ATOM     23  O   UNL     1       7.351   6.330  18.574  0.00  0.00    +0.000 OA
ATOM     24  C   UNL     1       5.318   6.841  16.988  0.00  0.00    +0.000 C 
ENDBRANCH  15  18
ENDBRANCH  13  16
ENDBRANCH  12  13
ENDBRANCH  10  12
ENDBRANCH   1  10
BRANCH   6  25
ATOM     25  S   UNL     1       1.040  11.813  20.675  0.00  0.00    +0.000 S 
BRANCH  25  26
ATOM     26  C   UNL     1       1.536  13.323  19.878  0.00  0.00    +0.000 A 
ATOM     27  C   UNL     1       2.537  13.268  18.904  0.00  0.00    +0.000 A 
ATOM     28  C   UNL     1       2.879  14.407  18.174  0.00  0.00    +0.000 A 
ATOM     29  C   UNL     1       2.218  15.611  18.408  0.00  0.00    +0.000 A 
ATOM     30  C   UNL     1       1.210  15.675  19.369  0.00  0.00    +0.000 A 
ATOM     31  C   UNL     1       0.866  14.533  20.101  0.00  0.00    +0.000 A 
ENDBRANCH  25  26
ENDBRANCH   6  25
TORSDOF 8
ENDMDL
