MODEL 1
REMARK VINA RESULT:      -8.2      0.000      0.000
REMARK  Name = 
REMARK  7 active torsions:
REMARK  status: ('A' for Active; 'I' for Inactive)
REMARK    1  A    between atoms: C_1  and  C_2
REMARK    2  A    between atoms: C_5  and  C_6
REMARK    3  A    between atoms: C_6  and  N_7
REMARK    4  A    between atoms: N_7  and  C_8
REMARK    5  A    between atoms: C_10  and  C_11
REMARK    6  A    between atoms: C_20  and  C_21
REMARK    7  A    between atoms: C_22  and  C_23
REMARK                            x       y       z     vdW  Elec       q    Type
REMARK                         _______ _______ _______ _____ _____    ______ ____
ROOT
ATOM      1  C   UNL     1       3.424   6.194  18.243  0.00  0.00    +0.000 A 
ATOM      2  N   UNL     1       4.240   6.086  17.159  0.00  0.00    +0.000 NA
ATOM      3  C   UNL     1       4.709   4.882  16.778  0.00  0.00    +0.000 A 
ATOM      4  N   UNL     1       4.431   3.725  17.372  0.00  0.00    +0.000 NA
ATOM      5  C   UNL     1       3.622   3.841  18.428  0.00  0.00    +0.000 A 
ATOM      6  S   UNL     1       3.196   2.447  19.287  0.00  0.00    +0.000 S 
ATOM      7  C   UNL     1       2.229   3.329  20.374  0.00  0.00    +0.000 A 
ATOM      8  C   UNL     1       1.513   2.586  21.455  0.00  0.00    +0.000 C 
ATOM      9  C   UNL     1       2.231   4.693  20.094  0.00  0.00    +0.000 A 
ATOM     10  C   UNL     1       1.460   5.702  20.884  0.00  0.00    +0.000 C 
ATOM     11  C   UNL     1       3.068   5.005  18.935  0.00  0.00    +0.000 A 
ENDROOT
BRANCH   3  12
ATOM     12  C   UNL     1       5.616   4.803  15.622  0.00  0.00    +0.000 A 
ATOM     13  C   UNL     1       5.305   4.027  14.489  0.00  0.00    +0.000 A 
ATOM     14  C   UNL     1       6.178   3.951  13.405  0.00  0.00    +0.000 A 
ATOM     15  C   UNL     1       7.360   4.664  13.474  0.00  0.00    +0.000 A 
ATOM     16  N   UNL     1       7.710   5.426  14.530  0.00  0.00    +0.000 NA
ATOM     17  C   UNL     1       6.834   5.474  15.571  0.00  0.00    +0.000 A 
ENDBRANCH   3  12
BRANCH   1  18
ATOM     18  N   UNL     1       3.021   7.465  18.645  0.00  0.00    +0.000 N 
ATOM     19  H   UNL     1       2.668   7.546  19.588  0.00  0.00    +0.000 HD
BRANCH  18  20
ATOM     20  C   UNL     1       2.244   8.249  17.686  0.00  0.00    +0.000 C 
BRANCH  20  25
ATOM     21  C   UNL     1       2.291  13.222  18.082  0.00  0.00    +0.000 C 
ATOM     22  C   UNL     1       1.832  11.847  18.410  0.00  0.00    +0.000 A 
ATOM     23  C   UNL     1       0.849  11.511  19.320  0.00  0.00    +0.000 A 
ATOM     24  S   UNL     1       0.644   9.815  19.368  0.00  0.00    +0.000 S 
ATOM     25  C   UNL     1       1.867   9.638  18.167  0.00  0.00    +0.000 A 
ATOM     26  N   UNL     1       2.422  10.768  17.761  0.00  0.00    +0.000 NA
ENDBRANCH  20  25
ENDBRANCH  18  20
ENDBRANCH   1  18
TORSDOF 4
ENDMDL
MODEL 2
REMARK VINA RESULT:      -8.1      1.849      5.662
REMARK  Name = 
REMARK  7 active torsions:
REMARK  status: ('A' for Active; 'I' for Inactive)
REMARK    1  A    between atoms: C_1  and  C_2
REMARK    2  A    between atoms: C_5  and  C_6
REMARK    3  A    between atoms: C_6  and  N_7
REMARK    4  A    between atoms: N_7  and  C_8
REMARK    5  A    between atoms: C_10  and  C_11
REMARK    6  A    between atoms: C_20  and  C_21
REMARK    7  A    between atoms: C_22  and  C_23
REMARK                            x       y       z     vdW  Elec       q    Type
REMARK                         _______ _______ _______ _____ _____    ______ ____
ROOT
ATOM      1  C   UNL     1       2.775   6.367  19.889  0.00  0.00    +0.000 A 
ATOM      2  N   UNL     1       3.717   5.832  19.063  0.00  0.00    +0.000 NA
ATOM      3  C   UNL     1       4.047   6.454  17.916  0.00  0.00    +0.000 A 
ATOM      4  N   UNL     1       3.535   7.606  17.490  0.00  0.00    +0.000 NA
ATOM      5  C   UNL     1       2.620   8.126  18.311  0.00  0.00    +0.000 A 
ATOM      6  S   UNL     1       1.877   9.585  17.885  0.00  0.00    +0.000 S 
ATOM      7  C   UNL     1       0.937   9.600  19.304  0.00  0.00    +0.000 A 
ATOM      8  C   UNL     1       0.004  10.746  19.529  0.00  0.00    +0.000 C 
ATOM      9  C   UNL     1       1.179   8.489  20.108  0.00  0.00    +0.000 A 
ATOM     10  C   UNL     1       0.498   8.250  21.418  0.00  0.00    +0.000 C 
ATOM     11  C   UNL     1       2.180   7.601  19.516  0.00  0.00    +0.000 A 
ENDROOT
BRANCH   3  12
ATOM     12  C   UNL     1       5.044   5.834  17.029  0.00  0.00    +0.000 A 
ATOM     13  C   UNL     1       4.806   4.600  16.395  0.00  0.00    +0.000 A 
ATOM     14  C   UNL     1       5.763   4.017  15.566  0.00  0.00    +0.000 A 
ATOM     15  C   UNL     1       6.956   4.690  15.382  0.00  0.00    +0.000 A 
ATOM     16  N   UNL     1       7.240   5.875  15.960  0.00  0.00    +0.000 NA
ATOM     17  C   UNL     1       6.283   6.413  16.765  0.00  0.00    +0.000 A 
ENDBRANCH   3  12
BRANCH   1  18
ATOM     18  N   UNL     1       2.412   5.654  21.028  0.00  0.00    +0.000 N 
ATOM     19  H   UNL     1       3.147   5.473  21.697  0.00  0.00    +0.000 HD
BRANCH  18  20
ATOM     20  C   UNL     1       1.529   4.503  20.839  0.00  0.00    +0.000 C 
BRANCH  20  25
ATOM     21  C   UNL     1       4.228   0.899  18.691  0.00  0.00    +0.000 C 
ATOM     22  C   UNL     1       3.156   1.926  18.753  0.00  0.00    +0.000 A 
ATOM     23  C   UNL     1       2.256   2.227  17.750  0.00  0.00    +0.000 A 
ATOM     24  S   UNL     1       1.197   3.468  18.259  0.00  0.00    +0.000 S 
ATOM     25  C   UNL     1       1.996   3.518  19.784  0.00  0.00    +0.000 A 
ATOM     26  N   UNL     1       3.011   2.679  19.912  0.00  0.00    +0.000 NA
ENDBRANCH  20  25
ENDBRANCH  18  20
ENDBRANCH   1  18
TORSDOF 4
ENDMDL
MODEL 3
REMARK VINA RESULT:      -8.1      1.155      1.205
REMARK  Name = 
REMARK  7 active torsions:
REMARK  status: ('A' for Active; 'I' for Inactive)
REMARK    1  A    between atoms: C_1  and  C_2
REMARK    2  A    between atoms: C_5  and  C_6
REMARK    3  A    between atoms: C_6  and  N_7
REMARK    4  A    between atoms: N_7  and  C_8
REMARK    5  A    between atoms: C_10  and  C_11
REMARK    6  A    between atoms: C_20  and  C_21
REMARK    7  A    between atoms: C_22  and  C_23
REMARK                            x       y       z     vdW  Elec       q    Type
REMARK                         _______ _______ _______ _____ _____    ______ ____
ROOT
ATOM      1  C   UNL     1       3.360   6.228  18.356  0.00  0.00    +0.000 A 
ATOM      2  N   UNL     1       4.184   6.130  17.277  0.00  0.00    +0.000 NA
ATOM      3  C   UNL     1       4.685   4.935  16.912  0.00  0.00    +0.000 A 
ATOM      4  N   UNL     1       4.433   3.777  17.516  0.00  0.00    +0.000 NA
ATOM      5  C   UNL     1       3.616   3.884  18.567  0.00  0.00    +0.000 A 
ATOM      6  S   UNL     1       3.220   2.488  19.438  0.00  0.00    +0.000 S 
ATOM      7  C   UNL     1       2.226   3.357  20.511  0.00  0.00    +0.000 A 
ATOM      8  C   UNL     1       1.523   2.607  21.596  0.00  0.00    +0.000 C 
ATOM      9  C   UNL     1       2.195   4.717  20.217  0.00  0.00    +0.000 A 
ATOM     10  C   UNL     1       1.394   5.715  20.992  0.00  0.00    +0.000 C 
ATOM     11  C   UNL     1       3.030   5.038  19.059  0.00  0.00    +0.000 A 
ENDROOT
BRANCH   3  12
ATOM     12  C   UNL     1       5.600   4.866  15.761  0.00  0.00    +0.000 A 
ATOM     13  C   UNL     1       5.286   4.121  14.609  0.00  0.00    +0.000 A 
ATOM     14  C   UNL     1       6.166   4.055  13.530  0.00  0.00    +0.000 A 
ATOM     15  C   UNL     1       7.359   4.747  13.624  0.00  0.00    +0.000 A 
ATOM     16  N   UNL     1       7.713   5.479  14.700  0.00  0.00    +0.000 NA
ATOM     17  C   UNL     1       6.830   5.519  15.735  0.00  0.00    +0.000 A 
ENDBRANCH   3  12
BRANCH   1  18
ATOM     18  N   UNL     1       2.922   7.493  18.742  0.00  0.00    +0.000 N 
ATOM     19  H   UNL     1       2.607   7.586  19.698  0.00  0.00    +0.000 HD
BRANCH  18  20
ATOM     20  C   UNL     1       2.074   8.219  17.798  0.00  0.00    +0.000 C 
BRANCH  20  25
ATOM     21  C   UNL     1      -1.622  11.547  18.189  0.00  0.00    +0.000 C 
ATOM     22  C   UNL     1      -0.561  10.643  18.705  0.00  0.00    +0.000 A 
ATOM     23  C   UNL     1      -0.238  10.439  20.031  0.00  0.00    +0.000 A 
ATOM     24  S   UNL     1       1.038   9.309  20.161  0.00  0.00    +0.000 S 
ATOM     25  C   UNL     1       1.070   9.155  18.445  0.00  0.00    +0.000 A 
ATOM     26  N   UNL     1       0.201   9.914  17.798  0.00  0.00    +0.000 NA
ENDBRANCH  20  25
ENDBRANCH  18  20
ENDBRANCH   1  18
TORSDOF 4
ENDMDL
MODEL 4
REMARK VINA RESULT:      -8.0      1.331      1.591
REMARK  Name = 
REMARK  7 active torsions:
REMARK  status: ('A' for Active; 'I' for Inactive)
REMARK    1  A    between atoms: C_1  and  C_2
REMARK    2  A    between atoms: C_5  and  C_6
REMARK    3  A    between atoms: C_6  and  N_7
REMARK    4  A    between atoms: N_7  and  C_8
REMARK    5  A    between atoms: C_10  and  C_11
REMARK    6  A    between atoms: C_20  and  C_21
REMARK    7  A    between atoms: C_22  and  C_23
REMARK                            x       y       z     vdW  Elec       q    Type
REMARK                         _______ _______ _______ _____ _____    ______ ____
ROOT
ATOM      1  C   UNL     1       3.704   6.119  17.956  0.00  0.00    +0.000 A 
ATOM      2  N   UNL     1       4.496   6.018  16.854  0.00  0.00    +0.000 NA
ATOM      3  C   UNL     1       4.837   4.807  16.371  0.00  0.00    +0.000 A 
ATOM      4  N   UNL     1       4.446   3.640  16.875  0.00  0.00    +0.000 NA
ATOM      5  C   UNL     1       3.662   3.752  17.949  0.00  0.00    +0.000 A 
ATOM      6  S   UNL     1       3.102   2.343  18.701  0.00  0.00    +0.000 S 
ATOM      7  C   UNL     1       2.239   3.228  19.871  0.00  0.00    +0.000 A 
ATOM      8  C   UNL     1       1.459   2.476  20.901  0.00  0.00    +0.000 C 
ATOM      9  C   UNL     1       2.379   4.603  19.701  0.00  0.00    +0.000 A 
ATOM     10  C   UNL     1       1.721   5.617  20.581  0.00  0.00    +0.000 C 
ATOM     11  C   UNL     1       3.234   4.921  18.557  0.00  0.00    +0.000 A 
ENDROOT
BRANCH   3  12
ATOM     12  C   UNL     1       5.722   4.730  15.198  0.00  0.00    +0.000 A 
ATOM     13  C   UNL     1       5.409   3.926  14.085  0.00  0.00    +0.000 A 
ATOM     14  C   UNL     1       6.261   3.853  12.985  0.00  0.00    +0.000 A 
ATOM     15  C   UNL     1       7.425   4.598  13.016  0.00  0.00    +0.000 A 
ATOM     16  N   UNL     1       7.776   5.388  14.052  0.00  0.00    +0.000 NA
ATOM     17  C   UNL     1       6.921   5.432  15.110  0.00  0.00    +0.000 A 
ENDBRANCH   3  12
BRANCH   1  18
ATOM     18  N   UNL     1       3.436   7.388  18.464  0.00  0.00    +0.000 N 
ATOM     19  H   UNL     1       3.425   7.474  19.471  0.00  0.00    +0.000 HD
BRANCH  18  20
ATOM     20  C   UNL     1       2.363   8.147  17.823  0.00  0.00    +0.000 C 
BRANCH  20  25
ATOM     21  C   UNL     1       0.410   9.704  22.142  0.00  0.00    +0.000 C 
ATOM     22  C   UNL     1       0.547   9.656  20.663  0.00  0.00    +0.000 A 
ATOM     23  C   UNL     1      -0.184  10.394  19.752  0.00  0.00    +0.000 A 
ATOM     24  S   UNL     1       0.314  10.026  18.159  0.00  0.00    +0.000 S 
ATOM     25  C   UNL     1       1.477   8.918  18.783  0.00  0.00    +0.000 A 
ATOM     26  N   UNL     1       1.489   8.802  20.101  0.00  0.00    +0.000 NA
ENDBRANCH  20  25
ENDBRANCH  18  20
ENDBRANCH   1  18
TORSDOF 4
ENDMDL
MODEL 5
REMARK VINA RESULT:      -7.4      0.726      1.035
REMARK  Name = 
REMARK  7 active torsions:
REMARK  status: ('A' for Active; 'I' for Inactive)
REMARK    1  A    between atoms: C_1  and  C_2
REMARK    2  A    between atoms: C_5  and  C_6
REMARK    3  A    between atoms: C_6  and  N_7
REMARK    4  A    between atoms: N_7  and  C_8
REMARK    5  A    between atoms: C_10  and  C_11
REMARK    6  A    between atoms: C_20  and  C_21
REMARK    7  A    between atoms: C_22  and  C_23
REMARK                            x       y       z     vdW  Elec       q    Type
REMARK                         _______ _______ _______ _____ _____    ______ ____
ROOT
ATOM      1  C   UNL     1       3.586   6.102  17.923  0.00  0.00    +0.000 A 
ATOM      2  N   UNL     1       4.341   5.934  16.803  0.00  0.00    +0.000 NA
ATOM      3  C   UNL     1       4.704   4.698  16.408  0.00  0.00    +0.000 A 
ATOM      4  N   UNL     1       4.371   3.566  17.020  0.00  0.00    +0.000 NA
ATOM      5  C   UNL     1       3.623   3.742  18.112  0.00  0.00    +0.000 A 
ATOM      6  S   UNL     1       3.138   2.384  18.997  0.00  0.00    +0.000 S 
ATOM      7  C   UNL     1       2.288   3.336  20.123  0.00  0.00    +0.000 A 
ATOM      8  C   UNL     1       1.571   2.649  21.240  0.00  0.00    +0.000 C 
ATOM      9  C   UNL     1       2.375   4.696  19.835  0.00  0.00    +0.000 A 
ATOM     10  C   UNL     1       1.715   5.760  20.654  0.00  0.00    +0.000 C 
ATOM     11  C   UNL     1       3.177   4.944  18.637  0.00  0.00    +0.000 A 
ENDROOT
BRANCH   3  12
ATOM     12  C   UNL     1       5.549   4.551  15.212  0.00  0.00    +0.000 A 
ATOM     13  C   UNL     1       6.805   5.179  15.110  0.00  0.00    +0.000 A 
ATOM     14  C   UNL     1       7.590   5.041  13.967  0.00  0.00    +0.000 A 
ATOM     15  C   UNL     1       7.099   4.265  12.933  0.00  0.00    +0.000 A 
ATOM     16  N   UNL     1       5.906   3.638  12.975  0.00  0.00    +0.000 NA
ATOM     17  C   UNL     1       5.165   3.797  14.106  0.00  0.00    +0.000 A 
ENDBRANCH   3  12
BRANCH   1  18
ATOM     18  N   UNL     1       3.293   7.400  18.335  0.00  0.00    +0.000 N 
ATOM     19  H   UNL     1       3.386   7.588  19.324  0.00  0.00    +0.000 HD
BRANCH  18  20
ATOM     20  C   UNL     1       2.110   8.032  17.752  0.00  0.00    +0.000 C 
BRANCH  20  25
ATOM     21  C   UNL     1       2.289  13.006  18.097  0.00  0.00    +0.000 C 
ATOM     22  C   UNL     1       1.857  11.641  18.496  0.00  0.00    +0.000 A 
ATOM     23  C   UNL     1       1.003  11.326  19.534  0.00  0.00    +0.000 A 
ATOM     24  S   UNL     1       0.779   9.634  19.624  0.00  0.00    +0.000 S 
ATOM     25  C   UNL     1       1.824   9.429  18.269  0.00  0.00    +0.000 A 
ATOM     26  N   UNL     1       2.336  10.548  17.782  0.00  0.00    +0.000 NA
ENDBRANCH  20  25
ENDBRANCH  18  20
ENDBRANCH   1  18
TORSDOF 4
ENDMDL
MODEL 6
REMARK VINA RESULT:      -7.3      2.412      7.138
REMARK  Name = 
REMARK  7 active torsions:
REMARK  status: ('A' for Active; 'I' for Inactive)
REMARK    1  A    between atoms: C_1  and  C_2
REMARK    2  A    between atoms: C_5  and  C_6
REMARK    3  A    between atoms: C_6  and  N_7
REMARK    4  A    between atoms: N_7  and  C_8
REMARK    5  A    between atoms: C_10  and  C_11
REMARK    6  A    between atoms: C_20  and  C_21
REMARK    7  A    between atoms: C_22  and  C_23
REMARK                            x       y       z     vdW  Elec       q    Type
REMARK                         _______ _______ _______ _____ _____    ______ ____
ROOT
ATOM      1  C   UNL     1       2.735   6.716  18.496  0.00  0.00    +0.000 A 
ATOM      2  N   UNL     1       2.214   7.772  19.178  0.00  0.00    +0.000 NA
ATOM      3  C   UNL     1       1.482   7.568  20.290  0.00  0.00    +0.000 A 
ATOM      4  N   UNL     1       1.215   6.381  20.829  0.00  0.00    +0.000 NA
ATOM      5  C   UNL     1       1.739   5.353  20.157  0.00  0.00    +0.000 A 
ATOM      6  S   UNL     1       1.467   3.783  20.724  0.00  0.00    +0.000 S 
ATOM      7  C   UNL     1       2.379   3.095  19.463  0.00  0.00    +0.000 A 
ATOM      8  C   UNL     1       2.532   1.609  19.423  0.00  0.00    +0.000 C 
ATOM      9  C   UNL     1       2.891   4.058  18.597  0.00  0.00    +0.000 A 
ATOM     10  C   UNL     1       3.738   3.735  17.407  0.00  0.00    +0.000 C 
ATOM     11  C   UNL     1       2.506   5.409  19.004  0.00  0.00    +0.000 A 
ENDROOT
BRANCH   3  12
ATOM     12  C   UNL     1       0.904   8.728  20.987  0.00  0.00    +0.000 A 
ATOM     13  C   UNL     1       0.148   9.700  20.305  0.00  0.00    +0.000 A 
ATOM     14  C   UNL     1      -0.385  10.801  20.974  0.00  0.00    +0.000 A 
ATOM     15  C   UNL     1      -0.151  10.908  22.333  0.00  0.00    +0.000 A 
ATOM     16  N   UNL     1       0.562  10.007  23.039  0.00  0.00    +0.000 NA
ATOM     17  C   UNL     1       1.069   8.947  22.352  0.00  0.00    +0.000 A 
ENDBRANCH   3  12
BRANCH   1  18
ATOM     18  N   UNL     1       3.424   6.968  17.312  0.00  0.00    +0.000 N 
ATOM     19  H   UNL     1       3.212   6.362  16.532  0.00  0.00    +0.000 HD
BRANCH  18  20
ATOM     20  C   UNL     1       4.853   7.258  17.424  0.00  0.00    +0.000 C 
BRANCH  20  25
ATOM     21  C   UNL     1       6.764   4.381  13.824  0.00  0.00    +0.000 C 
ATOM     22  C   UNL     1       6.659   4.924  15.203  0.00  0.00    +0.000 A 
ATOM     23  C   UNL     1       7.459   4.584  16.277  0.00  0.00    +0.000 A 
ATOM     24  S   UNL     1       6.987   5.461  17.666  0.00  0.00    +0.000 S 
ATOM     25  C   UNL     1       5.757   6.244  16.748  0.00  0.00    +0.000 A 
ATOM     26  N   UNL     1       5.676   5.867  15.483  0.00  0.00    +0.000 NA
ENDBRANCH  20  25
ENDBRANCH  18  20
ENDBRANCH   1  18
TORSDOF 4
ENDMDL
MODEL 7
REMARK VINA RESULT:      -7.2      1.340      1.587
REMARK  Name = 
REMARK  7 active torsions:
REMARK  status: ('A' for Active; 'I' for Inactive)
REMARK    1  A    between atoms: C_1  and  C_2
REMARK    2  A    between atoms: C_5  and  C_6
REMARK    3  A    between atoms: C_6  and  N_7
REMARK    4  A    between atoms: N_7  and  C_8
REMARK    5  A    between atoms: C_10  and  C_11
REMARK    6  A    between atoms: C_20  and  C_21
REMARK    7  A    between atoms: C_22  and  C_23
REMARK                            x       y       z     vdW  Elec       q    Type
REMARK                         _______ _______ _______ _____ _____    ______ ____
ROOT
ATOM      1  C   UNL     1       3.470   6.092  18.193  0.00  0.00    +0.000 A 
ATOM      2  N   UNL     1       4.241   5.959  17.079  0.00  0.00    +0.000 NA
ATOM      3  C   UNL     1       4.635   4.739  16.667  0.00  0.00    +0.000 A 
ATOM      4  N   UNL     1       4.321   3.589  17.257  0.00  0.00    +0.000 NA
ATOM      5  C   UNL     1       3.557   3.731  18.343  0.00  0.00    +0.000 A 
ATOM      6  S   UNL     1       3.093   2.348  19.201  0.00  0.00    +0.000 S 
ATOM      7  C   UNL     1       2.210   3.262  20.332  0.00  0.00    +0.000 A 
ATOM      8  C   UNL     1       1.497   2.540  21.430  0.00  0.00    +0.000 C 
ATOM      9  C   UNL     1       2.270   4.628  20.069  0.00  0.00    +0.000 A 
ATOM     10  C   UNL     1       1.579   5.663  20.898  0.00  0.00    +0.000 C 
ATOM     11  C   UNL     1       3.080   4.913  18.884  0.00  0.00    +0.000 A 
ENDROOT
BRANCH   3  12
ATOM     12  C   UNL     1       5.495   4.630  15.478  0.00  0.00    +0.000 A 
ATOM     13  C   UNL     1       6.742   5.279  15.404  0.00  0.00    +0.000 A 
ATOM     14  C   UNL     1       7.542   5.178  14.267  0.00  0.00    +0.000 A 
ATOM     15  C   UNL     1       7.075   4.416  13.212  0.00  0.00    +0.000 A 
ATOM     16  N   UNL     1       5.892   3.770  13.227  0.00  0.00    +0.000 NA
ATOM     17  C   UNL     1       5.136   3.894  14.352  0.00  0.00    +0.000 A 
ENDBRANCH   3  12
BRANCH   1  18
ATOM     18  N   UNL     1       3.145   7.376  18.624  0.00  0.00    +0.000 N 
ATOM     19  H   UNL     1       2.825   7.461  19.578  0.00  0.00    +0.000 HD
BRANCH  18  20
ATOM     20  C   UNL     1       2.382   8.214  17.699  0.00  0.00    +0.000 C 
BRANCH  20  25
ATOM     21  C   UNL     1      -1.687  11.071  18.109  0.00  0.00    +0.000 C 
ATOM     22  C   UNL     1      -0.516  10.311  18.618  0.00  0.00    +0.000 A 
ATOM     23  C   UNL     1      -0.150  10.167  19.942  0.00  0.00    +0.000 A 
ATOM     24  S   UNL     1       1.256   9.203  20.065  0.00  0.00    +0.000 S 
ATOM     25  C   UNL     1       1.281   9.029  18.351  0.00  0.00    +0.000 A 
ATOM     26  N   UNL     1       0.316   9.667  17.709  0.00  0.00    +0.000 NA
ENDBRANCH  20  25
ENDBRANCH  18  20
ENDBRANCH   1  18
TORSDOF 4
ENDMDL
MODEL 8
REMARK VINA RESULT:      -7.2      1.783      5.825
REMARK  Name = 
REMARK  7 active torsions:
REMARK  status: ('A' for Active; 'I' for Inactive)
REMARK    1  A    between atoms: C_1  and  C_2
REMARK    2  A    between atoms: C_5  and  C_6
REMARK    3  A    between atoms: C_6  and  N_7
REMARK    4  A    between atoms: N_7  and  C_8
REMARK    5  A    between atoms: C_10  and  C_11
REMARK    6  A    between atoms: C_20  and  C_21
REMARK    7  A    between atoms: C_22  and  C_23
REMARK                            x       y       z     vdW  Elec       q    Type
REMARK                         _______ _______ _______ _____ _____    ______ ____
ROOT
ATOM      1  C   UNL     1       2.370   6.800  19.835  0.00  0.00    +0.000 A 
ATOM      2  N   UNL     1       3.350   6.244  19.071  0.00  0.00    +0.000 NA
ATOM      3  C   UNL     1       3.807   6.887  17.979  0.00  0.00    +0.000 A 
ATOM      4  N   UNL     1       3.392   8.079  17.558  0.00  0.00    +0.000 NA
ATOM      5  C   UNL     1       2.438   8.619  18.320  0.00  0.00    +0.000 A 
ATOM      6  S   UNL     1       1.808  10.129  17.891  0.00  0.00    +0.000 S 
ATOM      7  C   UNL     1       0.753  10.145  19.226  0.00  0.00    +0.000 A 
ATOM      8  C   UNL     1      -0.136  11.331  19.417  0.00  0.00    +0.000 C 
ATOM      9  C   UNL     1       0.869   8.996  20.004  0.00  0.00    +0.000 A 
ATOM     10  C   UNL     1       0.069   8.749  21.243  0.00  0.00    +0.000 C 
ATOM     11  C   UNL     1       1.871   8.077  19.462  0.00  0.00    +0.000 A 
ENDROOT
BRANCH   3  12
ATOM     12  C   UNL     1       4.843   6.245  17.155  0.00  0.00    +0.000 A 
ATOM     13  C   UNL     1       4.606   5.034  16.478  0.00  0.00    +0.000 A 
ATOM     14  C   UNL     1       5.599   4.430  15.709  0.00  0.00    +0.000 A 
ATOM     15  C   UNL     1       6.828   5.059  15.628  0.00  0.00    +0.000 A 
ATOM     16  N   UNL     1       7.112   6.221  16.251  0.00  0.00    +0.000 NA
ATOM     17  C   UNL     1       6.119   6.780  16.995  0.00  0.00    +0.000 A 
ENDBRANCH   3  12
BRANCH   1  18
ATOM     18  N   UNL     1       1.876   6.069  20.913  0.00  0.00    +0.000 N 
ATOM     19  H   UNL     1       2.487   5.980  21.712  0.00  0.00    +0.000 HD
BRANCH  18  20
ATOM     20  C   UNL     1       1.170   4.826  20.604  0.00  0.00    +0.000 C 
BRANCH  20  25
ATOM     21  C   UNL     1       3.593   1.626  17.641  0.00  0.00    +0.000 C 
ATOM     22  C   UNL     1       3.175   2.206  18.944  0.00  0.00    +0.000 A 
ATOM     23  C   UNL     1       3.570   1.772  20.194  0.00  0.00    +0.000 A 
ATOM     24  S   UNL     1       2.851   2.736  21.409  0.00  0.00    +0.000 S 
ATOM     25  C   UNL     1       2.070   3.676  20.194  0.00  0.00    +0.000 A 
ATOM     26  N   UNL     1       2.304   3.290  18.950  0.00  0.00    +0.000 NA
ENDBRANCH  20  25
ENDBRANCH  18  20
ENDBRANCH   1  18
TORSDOF 4
ENDMDL
MODEL 9
REMARK VINA RESULT:      -6.9      2.667      6.409
REMARK  Name = 
REMARK  7 active torsions:
REMARK  status: ('A' for Active; 'I' for Inactive)
REMARK    1  A    between atoms: C_1  and  C_2
REMARK    2  A    between atoms: C_5  and  C_6
REMARK    3  A    between atoms: C_6  and  N_7
REMARK    4  A    between atoms: N_7  and  C_8
REMARK    5  A    between atoms: C_10  and  C_11
REMARK    6  A    between atoms: C_20  and  C_21
REMARK    7  A    between atoms: C_22  and  C_23
REMARK                            x       y       z     vdW  Elec       q    Type
REMARK                         _______ _______ _______ _____ _____    ______ ____
ROOT
ATOM      1  C   UNL     1       3.518   6.549  17.698  0.00  0.00    +0.000 A 
ATOM      2  N   UNL     1       2.943   7.572  18.388  0.00  0.00    +0.000 NA
ATOM      3  C   UNL     1       2.225   7.323  19.500  0.00  0.00    +0.000 A 
ATOM      4  N   UNL     1       2.022   6.120  20.032  0.00  0.00    +0.000 NA
ATOM      5  C   UNL     1       2.599   5.126  19.352  0.00  0.00    +0.000 A 
ATOM      6  S   UNL     1       2.410   3.540  19.910  0.00  0.00    +0.000 S 
ATOM      7  C   UNL     1       3.356   2.909  18.644  0.00  0.00    +0.000 A 
ATOM      8  C   UNL     1       3.586   1.433  18.594  0.00  0.00    +0.000 C 
ATOM      9  C   UNL     1       3.815   3.902  17.783  0.00  0.00    +0.000 A 
ATOM     10  C   UNL     1       4.675   3.632  16.589  0.00  0.00    +0.000 C 
ATOM     11  C   UNL     1       3.359   5.229  18.199  0.00  0.00    +0.000 A 
ENDROOT
BRANCH   3  12
ATOM     12  C   UNL     1       1.588   8.446  20.205  0.00  0.00    +0.000 A 
ATOM     13  C   UNL     1       1.031   9.537  19.510  0.00  0.00    +0.000 A 
ATOM     14  C   UNL     1       0.441  10.601  20.190  0.00  0.00    +0.000 A 
ATOM     15  C   UNL     1       0.415  10.552  21.571  0.00  0.00    +0.000 A 
ATOM     16  N   UNL     1       0.928   9.533  22.290  0.00  0.00    +0.000 NA
ATOM     17  C   UNL     1       1.499   8.513  21.593  0.00  0.00    +0.000 A 
ENDBRANCH   3  12
BRANCH   1  18
ATOM     18  N   UNL     1       4.191   6.845  16.515  0.00  0.00    +0.000 N 
ATOM     19  H   UNL     1       3.640   6.822  15.669  0.00  0.00    +0.000 HD
BRANCH  18  20
ATOM     20  C   UNL     1       5.516   6.251  16.338  0.00  0.00    +0.000 C 
BRANCH  20  25
ATOM     21  C   UNL     1       8.643   9.659  18.208  0.00  0.00    +0.000 C 
ATOM     22  C   UNL     1       8.029   8.311  18.094  0.00  0.00    +0.000 A 
ATOM     23  C   UNL     1       8.348   7.202  18.854  0.00  0.00    +0.000 A 
ATOM     24  S   UNL     1       7.385   5.869  18.387  0.00  0.00    +0.000 S 
ATOM     25  C   UNL     1       6.598   6.855  17.213  0.00  0.00    +0.000 A 
ATOM     26  N   UNL     1       7.034   8.102  17.146  0.00  0.00    +0.000 NA
ENDBRANCH  20  25
ENDBRANCH  18  20
ENDBRANCH   1  18
TORSDOF 4
ENDMDL
