MODEL 1
REMARK VINA RESULT:      -6.6      0.000      0.000
REMARK  Name = 
REMARK  7 active torsions:
REMARK  status: ('A' for Active; 'I' for Inactive)
REMARK    1  A    between atoms: C_2  and  O_3
REMARK    2  A    between atoms: C_2  and  C_4
REMARK    3  A    between atoms: C_4  and  S_5
REMARK    4  A    between atoms: S_5  and  C_6
REMARK    5  A    between atoms: C_6  and  C_7
REMARK    6  A    between atoms: N_9  and  C_10
REMARK    7  A    between atoms: C_13  and  C_14
REMARK                            x       y       z     vdW  Elec       q    Type
REMARK                         _______ _______ _______ _____ _____    ______ ____
ROOT
ATOM      1  C   UNL     1       1.220   9.389  19.362  0.00  0.00    +0.000 A 
ATOM      2  C   UNL     1       1.851   8.794  18.274  0.00  0.00    +0.000 A 
ATOM      3  C   UNL     1       2.407   7.516  18.380  0.00  0.00    +0.000 A 
ATOM      4  C   UNL     1       2.354   6.792  19.580  0.00  0.00    +0.000 A 
ATOM      5  C   UNL     1       1.679   7.384  20.653  0.00  0.00    +0.000 A 
ATOM      6  C   UNL     1       1.147   8.675  20.562  0.00  0.00    +0.000 A 
ENDROOT
BRANCH   4   7
ATOM      7  C   UNL     1       2.999   5.409  19.636  0.00  0.00    +0.000 C 
ATOM      8  C   UNL     1       2.391   4.516  20.741  0.00  0.00    +0.000 C 
ATOM      9  C   UNL     1       1.015   3.968  20.369  0.00  0.00    +0.000 C 
ATOM     10  C   UNL     1       1.037   3.211  19.045  0.00  0.00    +0.000 C 
ATOM     11  C   UNL     1       1.685   4.006  17.919  0.00  0.00    +0.000 C 
ATOM     12  C   UNL     1       3.034   4.614  18.315  0.00  0.00    +0.000 C 
ENDBRANCH   4   7
BRANCH   1  15
ATOM     13  C   UNL     1      -0.538  11.043  18.771  0.00  0.00    +0.000 C 
ATOM     14  O   UNL     1      -1.370  10.271  18.283  0.00  0.00    +0.000 OA
ATOM     15  N   UNL     1       0.668  10.684  19.337  0.00  0.00    +0.000 N 
ATOM     16  H   UNL     1       1.195  11.406  19.818  0.00  0.00    +0.000 HD
BRANCH  13  17
ATOM     17  C   UNL     1      -0.794  12.538  18.719  0.00  0.00    +0.000 C 
BRANCH  17  18
ATOM     18  S   UNL     1       0.393  13.418  19.789  0.00  0.00    +0.000 S 
BRANCH  18  19
ATOM     19  C   UNL     1       1.400  14.317  18.555  0.00  0.00    +0.000 C 
BRANCH  19  21
ATOM     20  O   UNL     1       3.798  14.023  18.487  0.00  0.00    +0.000 OA
ATOM     21  C   UNL     1       2.686  13.598  18.210  0.00  0.00    +0.000 C 
BRANCH  21  22
ATOM     22  O   UNL     1       2.518  12.431  17.544  0.00  0.00    +0.000 OA
ATOM     23  H   UNL     1       1.810  11.842  17.904  0.00  0.00    +0.000 HD
ENDBRANCH  21  22
ENDBRANCH  19  21
ENDBRANCH  18  19
ENDBRANCH  17  18
ENDBRANCH  13  17
ENDBRANCH   1  15
TORSDOF 7
ENDMDL
MODEL 2
REMARK VINA RESULT:      -6.4      2.274      3.080
REMARK  Name = 
REMARK  7 active torsions:
REMARK  status: ('A' for Active; 'I' for Inactive)
REMARK    1  A    between atoms: C_2  and  O_3
REMARK    2  A    between atoms: C_2  and  C_4
REMARK    3  A    between atoms: C_4  and  S_5
REMARK    4  A    between atoms: S_5  and  C_6
REMARK    5  A    between atoms: C_6  and  C_7
REMARK    6  A    between atoms: N_9  and  C_10
REMARK    7  A    between atoms: C_13  and  C_14
REMARK                            x       y       z     vdW  Elec       q    Type
REMARK                         _______ _______ _______ _____ _____    ______ ____
ROOT
ATOM      1  C   UNL     1       1.104   9.516  19.510  0.00  0.00    +0.000 A 
ATOM      2  C   UNL     1       1.202   8.684  20.620  0.00  0.00    +0.000 A 
ATOM      3  C   UNL     1       1.840   7.443  20.531  0.00  0.00    +0.000 A 
ATOM      4  C   UNL     1       2.397   6.992  19.325  0.00  0.00    +0.000 A 
ATOM      5  C   UNL     1       2.329   7.858  18.228  0.00  0.00    +0.000 A 
ATOM      6  C   UNL     1       1.666   9.088  18.304  0.00  0.00    +0.000 A 
ENDROOT
BRANCH   4   7
ATOM      7  C   UNL     1       3.062   5.618  19.287  0.00  0.00    +0.000 C 
ATOM      8  C   UNL     1       2.591   4.700  20.436  0.00  0.00    +0.000 C 
ATOM      9  C   UNL     1       1.189   4.138  20.208  0.00  0.00    +0.000 C 
ATOM     10  C   UNL     1       1.075   3.402  18.877  0.00  0.00    +0.000 C 
ATOM     11  C   UNL     1       1.585   4.224  17.700  0.00  0.00    +0.000 C 
ATOM     12  C   UNL     1       2.962   4.844  17.957  0.00  0.00    +0.000 C 
ENDBRANCH   4   7
BRANCH   1  15
ATOM     13  C   UNL     1      -0.863  10.994  19.155  0.00  0.00    +0.000 C 
ATOM     14  O   UNL     1      -1.698  10.133  18.859  0.00  0.00    +0.000 OA
ATOM     15  N   UNL     1       0.447  10.762  19.519  0.00  0.00    +0.000 N 
ATOM     16  H   UNL     1       0.986  11.550  19.865  0.00  0.00    +0.000 HD
BRANCH  13  17
ATOM     17  C   UNL     1      -1.250  12.459  19.076  0.00  0.00    +0.000 C 
BRANCH  17  18
ATOM     18  S   UNL     1      -2.230  12.932  20.540  0.00  0.00    +0.000 S 
BRANCH  18  19
ATOM     19  C   UNL     1      -0.970  12.854  21.864  0.00  0.00    +0.000 C 
BRANCH  19  21
ATOM     20  O   UNL     1      -0.363  10.867  23.100  0.00  0.00    +0.000 OA
ATOM     21  C   UNL     1      -1.204  11.714  22.831  0.00  0.00    +0.000 C 
BRANCH  21  22
ATOM     22  O   UNL     1      -2.441  11.683  23.378  0.00  0.00    +0.000 OA
ATOM     23  H   UNL     1      -2.622  10.902  23.959  0.00  0.00    +0.000 HD
ENDBRANCH  21  22
ENDBRANCH  19  21
ENDBRANCH  18  19
ENDBRANCH  17  18
ENDBRANCH  13  17
ENDBRANCH   1  15
TORSDOF 7
ENDMDL
MODEL 3
REMARK VINA RESULT:      -6.4      2.173      3.083
REMARK  Name = 
REMARK  7 active torsions:
REMARK  status: ('A' for Active; 'I' for Inactive)
REMARK    1  A    between atoms: C_2  and  O_3
REMARK    2  A    between atoms: C_2  and  C_4
REMARK    3  A    between atoms: C_4  and  S_5
REMARK    4  A    between atoms: S_5  and  C_6
REMARK    5  A    between atoms: C_6  and  C_7
REMARK    6  A    between atoms: N_9  and  C_10
REMARK    7  A    between atoms: C_13  and  C_14
REMARK                            x       y       z     vdW  Elec       q    Type
REMARK                         _______ _______ _______ _____ _____    ______ ____
ROOT
ATOM      1  C   UNL     1       0.961   9.748  19.067  0.00  0.00    +0.000 A 
ATOM      2  C   UNL     1       1.576   9.143  17.976  0.00  0.00    +0.000 A 
ATOM      3  C   UNL     1       2.231   7.915  18.113  0.00  0.00    +0.000 A 
ATOM      4  C   UNL     1       2.295   7.254  19.349  0.00  0.00    +0.000 A 
ATOM      5  C   UNL     1       1.635   7.853  20.428  0.00  0.00    +0.000 A 
ATOM      6  C   UNL     1       1.003   9.096  20.303  0.00  0.00    +0.000 A 
ENDROOT
BRANCH   4   7
ATOM      7  C   UNL     1       3.044   5.927  19.438  0.00  0.00    +0.000 C 
ATOM      8  C   UNL     1       2.506   5.017  20.565  0.00  0.00    +0.000 C 
ATOM      9  C   UNL     1       1.176   4.357  20.210  0.00  0.00    +0.000 C 
ATOM     10  C   UNL     1       1.255   3.572  18.904  0.00  0.00    +0.000 C 
ATOM     11  C   UNL     1       1.841   4.386  17.758  0.00  0.00    +0.000 C 
ATOM     12  C   UNL     1       3.140   5.104  18.137  0.00  0.00    +0.000 C 
ENDBRANCH   4   7
BRANCH   1  15
ATOM     13  C   UNL     1       0.874  12.219  19.315  0.00  0.00    +0.000 C 
ATOM     14  O   UNL     1       2.060  12.425  19.592  0.00  0.00    +0.000 OA
ATOM     15  N   UNL     1       0.312  10.997  19.009  0.00  0.00    +0.000 N 
ATOM     16  H   UNL     1      -0.645  10.990  18.672  0.00  0.00    +0.000 HD
BRANCH  13  17
ATOM     17  C   UNL     1      -0.107  13.376  19.352  0.00  0.00    +0.000 C 
BRANCH  17  18
ATOM     18  S   UNL     1      -1.492  12.992  20.476  0.00  0.00    +0.000 S 
BRANCH  18  19
ATOM     19  C   UNL     1      -0.624  12.795  22.073  0.00  0.00    +0.000 C 
BRANCH  19  21
ATOM     20  O   UNL     1      -2.320  11.575  23.289  0.00  0.00    +0.000 OA
ATOM     21  C   UNL     1      -1.164  11.646  22.897  0.00  0.00    +0.000 C 
BRANCH  21  22
ATOM     22  O   UNL     1      -0.255  10.687  23.192  0.00  0.00    +0.000 OA
ATOM     23  H   UNL     1       0.491  10.606  22.548  0.00  0.00    +0.000 HD
ENDBRANCH  21  22
ENDBRANCH  19  21
ENDBRANCH  18  19
ENDBRANCH  17  18
ENDBRANCH  13  17
ENDBRANCH   1  15
TORSDOF 7
ENDMDL
MODEL 4
REMARK VINA RESULT:      -6.4      1.488      1.558
REMARK  Name = 
REMARK  7 active torsions:
REMARK  status: ('A' for Active; 'I' for Inactive)
REMARK    1  A    between atoms: C_2  and  O_3
REMARK    2  A    between atoms: C_2  and  C_4
REMARK    3  A    between atoms: C_4  and  S_5
REMARK    4  A    between atoms: S_5  and  C_6
REMARK    5  A    between atoms: C_6  and  C_7
REMARK    6  A    between atoms: N_9  and  C_10
REMARK    7  A    between atoms: C_13  and  C_14
REMARK                            x       y       z     vdW  Elec       q    Type
REMARK                         _______ _______ _______ _____ _____    ______ ____
ROOT
ATOM      1  C   UNL     1       1.139   9.594  19.088  0.00  0.00    +0.000 A 
ATOM      2  C   UNL     1       1.787   8.972  18.027  0.00  0.00    +0.000 A 
ATOM      3  C   UNL     1       2.380   7.715  18.187  0.00  0.00    +0.000 A 
ATOM      4  C   UNL     1       2.346   7.043  19.417  0.00  0.00    +0.000 A 
ATOM      5  C   UNL     1       1.653   7.661  20.464  0.00  0.00    +0.000 A 
ATOM      6  C   UNL     1       1.084   8.931  20.317  0.00  0.00    +0.000 A 
ENDROOT
BRANCH   4   7
ATOM      7  C   UNL     1       3.031   5.683  19.533  0.00  0.00    +0.000 C 
ATOM      8  C   UNL     1       2.433   4.812  20.661  0.00  0.00    +0.000 C 
ATOM      9  C   UNL     1       1.080   4.210  20.289  0.00  0.00    +0.000 C 
ATOM     10  C   UNL     1       1.145   3.407  18.994  0.00  0.00    +0.000 C 
ATOM     11  C   UNL     1       1.786   4.181  17.849  0.00  0.00    +0.000 C 
ATOM     12  C   UNL     1       3.111   4.842  18.243  0.00  0.00    +0.000 C 
ENDBRANCH   4   7
BRANCH   1  15
ATOM     13  C   UNL     1      -0.752  11.143  18.638  0.00  0.00    +0.000 C 
ATOM     14  O   UNL     1      -1.635  10.308  18.416  0.00  0.00    +0.000 OA
ATOM     15  N   UNL     1       0.549  10.871  19.007  0.00  0.00    +0.000 N 
ATOM     16  H   UNL     1       1.132  11.653  19.287  0.00  0.00    +0.000 HD
BRANCH  13  17
ATOM     17  C   UNL     1      -1.063  12.617  18.450  0.00  0.00    +0.000 C 
BRANCH  17  18
ATOM     18  S   UNL     1       0.474  13.597  18.510  0.00  0.00    +0.000 S 
BRANCH  18  19
ATOM     19  C   UNL     1       0.380  14.323  20.187  0.00  0.00    +0.000 C 
BRANCH  19  21
ATOM     20  O   UNL     1       2.324  13.853  21.544  0.00  0.00    +0.000 OA
ATOM     21  C   UNL     1       1.188  13.551  21.207  0.00  0.00    +0.000 C 
BRANCH  21  22
ATOM     22  O   UNL     1       0.561  12.468  21.722  0.00  0.00    +0.000 OA
ATOM     23  H   UNL     1      -0.003  12.649  22.514  0.00  0.00    +0.000 HD
ENDBRANCH  21  22
ENDBRANCH  19  21
ENDBRANCH  18  19
ENDBRANCH  17  18
ENDBRANCH  13  17
ENDBRANCH   1  15
TORSDOF 7
ENDMDL
MODEL 5
REMARK VINA RESULT:      -6.3      5.670      6.627
REMARK  Name = 
REMARK  7 active torsions:
REMARK  status: ('A' for Active; 'I' for Inactive)
REMARK    1  A    between atoms: C_2  and  O_3
REMARK    2  A    between atoms: C_2  and  C_4
REMARK    3  A    between atoms: C_4  and  S_5
REMARK    4  A    between atoms: S_5  and  C_6
REMARK    5  A    between atoms: C_6  and  C_7
REMARK    6  A    between atoms: N_9  and  C_10
REMARK    7  A    between atoms: C_13  and  C_14
REMARK                            x       y       z     vdW  Elec       q    Type
REMARK                         _______ _______ _______ _____ _____    ______ ____
ROOT
ATOM      1  C   UNL     1       5.638   6.606  17.116  0.00  0.00    +0.000 A 
ATOM      2  C   UNL     1       4.518   6.654  17.938  0.00  0.00    +0.000 A 
ATOM      3  C   UNL     1       3.606   5.594  17.971  0.00  0.00    +0.000 A 
ATOM      4  C   UNL     1       3.785   4.451  17.177  0.00  0.00    +0.000 A 
ATOM      5  C   UNL     1       4.939   4.398  16.387  0.00  0.00    +0.000 A 
ATOM      6  C   UNL     1       5.838   5.468  16.328  0.00  0.00    +0.000 A 
ENDROOT
BRANCH   4   7
ATOM      7  C   UNL     1       2.743   3.337  17.242  0.00  0.00    +0.000 C 
ATOM      8  C   UNL     1       3.288   2.054  17.908  0.00  0.00    +0.000 C 
ATOM      9  C   UNL     1       3.396   2.176  19.426  0.00  0.00    +0.000 C 
ATOM     10  C   UNL     1       2.070   2.570  20.067  0.00  0.00    +0.000 C 
ATOM     11  C   UNL     1       1.437   3.793  19.416  0.00  0.00    +0.000 C 
ATOM     12  C   UNL     1       1.391   3.700  17.888  0.00  0.00    +0.000 C 
ENDBRANCH   4   7
BRANCH   1  15
ATOM     13  C   UNL     1       7.698   7.819  17.796  0.00  0.00    +0.000 C 
ATOM     14  O   UNL     1       8.109   7.031  18.654  0.00  0.00    +0.000 OA
ATOM     15  N   UNL     1       6.578   7.649  17.008  0.00  0.00    +0.000 N 
ATOM     16  H   UNL     1       6.430   8.310  16.252  0.00  0.00    +0.000 HD
BRANCH  13  17
ATOM     17  C   UNL     1       8.428   9.133  17.587  0.00  0.00    +0.000 C 
BRANCH  17  18
ATOM     18  S   UNL     1       9.024   9.783  19.184  0.00  0.00    +0.000 S 
BRANCH  18  19
ATOM     19  C   UNL     1      10.062  11.188  18.642  0.00  0.00    +0.000 C 
BRANCH  19  21
ATOM     20  O   UNL     1      12.207  11.917  19.482  0.00  0.00    +0.000 OA
ATOM     21  C   UNL     1      11.037  11.642  19.706  0.00  0.00    +0.000 C 
BRANCH  21  22
ATOM     22  O   UNL     1      10.519  11.709  20.955  0.00  0.00    +0.000 OA
ATOM     23  H   UNL     1      10.180  12.600  21.219  0.00  0.00    +0.000 HD
ENDBRANCH  21  22
ENDBRANCH  19  21
ENDBRANCH  18  19
ENDBRANCH  17  18
ENDBRANCH  13  17
ENDBRANCH   1  15
TORSDOF 7
ENDMDL
MODEL 6
REMARK VINA RESULT:      -6.3      1.990      2.226
REMARK  Name = 
REMARK  7 active torsions:
REMARK  status: ('A' for Active; 'I' for Inactive)
REMARK    1  A    between atoms: C_2  and  O_3
REMARK    2  A    between atoms: C_2  and  C_4
REMARK    3  A    between atoms: C_4  and  S_5
REMARK    4  A    between atoms: S_5  and  C_6
REMARK    5  A    between atoms: C_6  and  C_7
REMARK    6  A    between atoms: N_9  and  C_10
REMARK    7  A    between atoms: C_13  and  C_14
REMARK                            x       y       z     vdW  Elec       q    Type
REMARK                         _______ _______ _______ _____ _____    ______ ____
ROOT
ATOM      1  C   UNL     1       1.125   9.565  19.231  0.00  0.00    +0.000 A 
ATOM      2  C   UNL     1       1.749   8.977  18.137  0.00  0.00    +0.000 A 
ATOM      3  C   UNL     1       2.355   7.721  18.248  0.00  0.00    +0.000 A 
ATOM      4  C   UNL     1       2.359   7.016  19.460  0.00  0.00    +0.000 A 
ATOM      5  C   UNL     1       1.690   7.601  20.541  0.00  0.00    +0.000 A 
ATOM      6  C   UNL     1       1.108   8.869  20.444  0.00  0.00    +0.000 A 
ENDROOT
BRANCH   4   7
ATOM      7  C   UNL     1       3.055   5.658  19.522  0.00  0.00    +0.000 C 
ATOM      8  C   UNL     1       2.477   4.744  20.624  0.00  0.00    +0.000 C 
ATOM      9  C   UNL     1       1.125   4.144  20.246  0.00  0.00    +0.000 C 
ATOM     10  C   UNL     1       1.182   3.387  18.923  0.00  0.00    +0.000 C 
ATOM     11  C   UNL     1       1.805   4.205  17.799  0.00  0.00    +0.000 C 
ATOM     12  C   UNL     1       3.128   4.864  18.202  0.00  0.00    +0.000 C 
ENDBRANCH   4   7
BRANCH   1  15
ATOM     13  C   UNL     1      -0.766  11.120  18.802  0.00  0.00    +0.000 C 
ATOM     14  O   UNL     1      -1.632  10.291  18.504  0.00  0.00    +0.000 OA
ATOM     15  N   UNL     1       0.525  10.840  19.201  0.00  0.00    +0.000 N 
ATOM     16  H   UNL     1       1.090  11.610  19.543  0.00  0.00    +0.000 HD
BRANCH  13  17
ATOM     17  C   UNL     1      -1.086  12.599  18.685  0.00  0.00    +0.000 C 
BRANCH  17  18
ATOM     18  S   UNL     1      -2.113  13.135  20.095  0.00  0.00    +0.000 S 
BRANCH  18  19
ATOM     19  C   UNL     1      -0.922  14.139  21.054  0.00  0.00    +0.000 C 
BRANCH  19  21
ATOM     20  O   UNL     1      -0.465  13.362  23.296  0.00  0.00    +0.000 OA
ATOM     21  C   UNL     1      -0.189  13.336  22.106  0.00  0.00    +0.000 C 
BRANCH  21  22
ATOM     22  O   UNL     1       0.828  12.579  21.630  0.00  0.00    +0.000 OA
ATOM     23  H   UNL     1       0.947  11.707  22.083  0.00  0.00    +0.000 HD
ENDBRANCH  21  22
ENDBRANCH  19  21
ENDBRANCH  18  19
ENDBRANCH  17  18
ENDBRANCH  13  17
ENDBRANCH   1  15
TORSDOF 7
ENDMDL
MODEL 7
REMARK VINA RESULT:      -6.3      5.442      6.298
REMARK  Name = 
REMARK  7 active torsions:
REMARK  status: ('A' for Active; 'I' for Inactive)
REMARK    1  A    between atoms: C_2  and  O_3
REMARK    2  A    between atoms: C_2  and  C_4
REMARK    3  A    between atoms: C_4  and  S_5
REMARK    4  A    between atoms: S_5  and  C_6
REMARK    5  A    between atoms: C_6  and  C_7
REMARK    6  A    between atoms: N_9  and  C_10
REMARK    7  A    between atoms: C_13  and  C_14
REMARK                            x       y       z     vdW  Elec       q    Type
REMARK                         _______ _______ _______ _____ _____    ______ ____
ROOT
ATOM      1  C   UNL     1       5.737   6.832  17.149  0.00  0.00    +0.000 A 
ATOM      2  C   UNL     1       4.501   6.939  17.776  0.00  0.00    +0.000 A 
ATOM      3  C   UNL     1       3.618   5.854  17.809  0.00  0.00    +0.000 A 
ATOM      4  C   UNL     1       3.944   4.628  17.212  0.00  0.00    +0.000 A 
ATOM      5  C   UNL     1       5.209   4.521  16.623  0.00  0.00    +0.000 A 
ATOM      6  C   UNL     1       6.084   5.612  16.561  0.00  0.00    +0.000 A 
ENDROOT
BRANCH   4   7
ATOM      7  C   UNL     1       2.929   3.489  17.264  0.00  0.00    +0.000 C 
ATOM      8  C   UNL     1       3.495   2.219  17.937  0.00  0.00    +0.000 C 
ATOM      9  C   UNL     1       3.582   2.344  19.456  0.00  0.00    +0.000 C 
ATOM     10  C   UNL     1       2.238   2.705  20.081  0.00  0.00    +0.000 C 
ATOM     11  C   UNL     1       1.584   3.913  19.422  0.00  0.00    +0.000 C 
ATOM     12  C   UNL     1       1.560   3.819  17.893  0.00  0.00    +0.000 C 
ENDBRANCH   4   7
BRANCH   1  15
ATOM     13  C   UNL     1       7.767   8.084  17.852  0.00  0.00    +0.000 C 
ATOM     14  O   UNL     1       8.180   7.307  18.719  0.00  0.00    +0.000 OA
ATOM     15  N   UNL     1       6.661   7.891  17.049  0.00  0.00    +0.000 N 
ATOM     16  H   UNL     1       6.512   8.546  16.288  0.00  0.00    +0.000 HD
BRANCH  13  17
ATOM     17  C   UNL     1       8.476   9.409  17.646  0.00  0.00    +0.000 C 
BRANCH  17  18
ATOM     18  S   UNL     1       9.257   9.954  19.203  0.00  0.00    +0.000 S 
BRANCH  18  19
ATOM     19  C   UNL     1       9.212  11.773  19.018  0.00  0.00    +0.000 C 
BRANCH  19  21
ATOM     20  O   UNL     1      11.091  11.856  17.501  0.00  0.00    +0.000 OA
ATOM     21  C   UNL     1       9.979  12.259  17.807  0.00  0.00    +0.000 C 
BRANCH  21  22
ATOM     22  O   UNL     1       9.342  13.206  17.079  0.00  0.00    +0.000 OA
ATOM     23  H   UNL     1       9.896  13.988  16.835  0.00  0.00    +0.000 HD
ENDBRANCH  21  22
ENDBRANCH  19  21
ENDBRANCH  18  19
ENDBRANCH  17  18
ENDBRANCH  13  17
ENDBRANCH   1  15
TORSDOF 7
ENDMDL
MODEL 8
REMARK VINA RESULT:      -6.3      5.614      6.451
REMARK  Name = 
REMARK  7 active torsions:
REMARK  status: ('A' for Active; 'I' for Inactive)
REMARK    1  A    between atoms: C_2  and  O_3
REMARK    2  A    between atoms: C_2  and  C_4
REMARK    3  A    between atoms: C_4  and  S_5
REMARK    4  A    between atoms: S_5  and  C_6
REMARK    5  A    between atoms: C_6  and  C_7
REMARK    6  A    between atoms: N_9  and  C_10
REMARK    7  A    between atoms: C_13  and  C_14
REMARK                            x       y       z     vdW  Elec       q    Type
REMARK                         _______ _______ _______ _____ _____    ______ ____
ROOT
ATOM      1  C   UNL     1       5.662   6.489  16.971  0.00  0.00    +0.000 A 
ATOM      2  C   UNL     1       5.952   5.195  16.552  0.00  0.00    +0.000 A 
ATOM      3  C   UNL     1       5.019   4.165  16.709  0.00  0.00    +0.000 A 
ATOM      4  C   UNL     1       3.765   4.397  17.294  0.00  0.00    +0.000 A 
ATOM      5  C   UNL     1       3.471   5.712  17.671  0.00  0.00    +0.000 A 
ATOM      6  C   UNL     1       4.412   6.740  17.544  0.00  0.00    +0.000 A 
ENDROOT
BRANCH   4   7
ATOM      7  C   UNL     1       2.799   3.226  17.456  0.00  0.00    +0.000 C 
ATOM      8  C   UNL     1       3.430   2.036  18.212  0.00  0.00    +0.000 C 
ATOM      9  C   UNL     1       3.541   2.281  19.715  0.00  0.00    +0.000 C 
ATOM     10  C   UNL     1       2.197   2.637  20.340  0.00  0.00    +0.000 C 
ATOM     11  C   UNL     1       1.481   3.763  19.605  0.00  0.00    +0.000 C 
ATOM     12  C   UNL     1       1.430   3.550  18.089  0.00  0.00    +0.000 C 
ENDBRANCH   4   7
BRANCH   1  15
ATOM     13  C   UNL     1       7.637   7.805  17.710  0.00  0.00    +0.000 C 
ATOM     14  O   UNL     1       8.036   7.062  18.612  0.00  0.00    +0.000 OA
ATOM     15  N   UNL     1       6.565   7.566  16.875  0.00  0.00    +0.000 N 
ATOM     16  H   UNL     1       6.428   8.196  16.091  0.00  0.00    +0.000 HD
BRANCH  13  17
ATOM     17  C   UNL     1       8.323   9.141  17.493  0.00  0.00    +0.000 C 
BRANCH  17  18
ATOM     18  S   UNL     1       9.051   9.736  19.057  0.00  0.00    +0.000 S 
BRANCH  18  19
ATOM     19  C   UNL     1       9.257  11.520  18.709  0.00  0.00    +0.000 C 
BRANCH  19  21
ATOM     20  O   UNL     1      11.656  11.337  18.480  0.00  0.00    +0.000 OA
ATOM     21  C   UNL     1      10.689  11.985  18.855  0.00  0.00    +0.000 C 
BRANCH  21  22
ATOM     22  O   UNL     1      10.833  13.188  19.459  0.00  0.00    +0.000 OA
ATOM     23  H   UNL     1      11.628  13.269  20.043  0.00  0.00    +0.000 HD
ENDBRANCH  21  22
ENDBRANCH  19  21
ENDBRANCH  18  19
ENDBRANCH  17  18
ENDBRANCH  13  17
ENDBRANCH   1  15
TORSDOF 7
ENDMDL
MODEL 9
REMARK VINA RESULT:      -6.3      0.736      1.295
REMARK  Name = 
REMARK  7 active torsions:
REMARK  status: ('A' for Active; 'I' for Inactive)
REMARK    1  A    between atoms: C_2  and  O_3
REMARK    2  A    between atoms: C_2  and  C_4
REMARK    3  A    between atoms: C_4  and  S_5
REMARK    4  A    between atoms: S_5  and  C_6
REMARK    5  A    between atoms: C_6  and  C_7
REMARK    6  A    between atoms: N_9  and  C_10
REMARK    7  A    between atoms: C_13  and  C_14
REMARK                            x       y       z     vdW  Elec       q    Type
REMARK                         _______ _______ _______ _____ _____    ______ ____
ROOT
ATOM      1  C   UNL     1       1.103   9.529  19.140  0.00  0.00    +0.000 A 
ATOM      2  C   UNL     1       1.160   8.852  20.354  0.00  0.00    +0.000 A 
ATOM      3  C   UNL     1       1.789   7.607  20.450  0.00  0.00    +0.000 A 
ATOM      4  C   UNL     1       2.377   6.996  19.332  0.00  0.00    +0.000 A 
ATOM      5  C   UNL     1       2.349   7.708  18.128  0.00  0.00    +0.000 A 
ATOM      6  C   UNL     1       1.696   8.940  18.019  0.00  0.00    +0.000 A 
ENDROOT
BRANCH   4   7
ATOM      7  C   UNL     1       3.029   5.626  19.498  0.00  0.00    +0.000 C 
ATOM      8  C   UNL     1       2.405   4.808  20.651  0.00  0.00    +0.000 C 
ATOM      9  C   UNL     1       1.041   4.225  20.293  0.00  0.00    +0.000 C 
ATOM     10  C   UNL     1       1.092   3.378  19.026  0.00  0.00    +0.000 C 
ATOM     11  C   UNL     1       1.757   4.096  17.859  0.00  0.00    +0.000 C 
ATOM     12  C   UNL     1       3.095   4.740  18.237  0.00  0.00    +0.000 C 
ENDBRANCH   4   7
BRANCH   1  15
ATOM     13  C   UNL     1      -0.843  10.957  18.546  0.00  0.00    +0.000 C 
ATOM     14  O   UNL     1      -1.682  10.069  18.358  0.00  0.00    +0.000 OA
ATOM     15  N   UNL     1       0.458  10.769  18.963  0.00  0.00    +0.000 N 
ATOM     16  H   UNL     1       0.999  11.594  19.205  0.00  0.00    +0.000 HD
BRANCH  13  17
ATOM     17  C   UNL     1      -1.215  12.399  18.256  0.00  0.00    +0.000 C 
BRANCH  17  18
ATOM     18  S   UNL     1      -0.730  13.468  19.653  0.00  0.00    +0.000 S 
BRANCH  18  19
ATOM     19  C   UNL     1       0.384  14.663  18.830  0.00  0.00    +0.000 C 
BRANCH  19  21
ATOM     20  O   UNL     1       2.701  14.744  18.147  0.00  0.00    +0.000 OA
ATOM     21  C   UNL     1       1.825  14.203  18.806  0.00  0.00    +0.000 C 
BRANCH  21  22
ATOM     22  O   UNL     1       2.083  13.116  19.570  0.00  0.00    +0.000 OA
ATOM     23  H   UNL     1       2.716  12.468  19.174  0.00  0.00    +0.000 HD
ENDBRANCH  21  22
ENDBRANCH  19  21
ENDBRANCH  18  19
ENDBRANCH  17  18
ENDBRANCH  13  17
ENDBRANCH   1  15
TORSDOF 7
ENDMDL
