MODEL 1
REMARK VINA RESULT:      -8.9      0.000      0.000
REMARK  Name = 
REMARK  11 active torsions:
REMARK  status: ('A' for Active; 'I' for Inactive)
REMARK    1  A    between atoms: C_1  and  C_2
REMARK    2  A    between atoms: C_5  and  S_6
REMARK    3  A    between atoms: S_6  and  N_9
REMARK    4  A    between atoms: N_9  and  C_10
REMARK    5  A    between atoms: C_10  and  C_11
REMARK    6  A    between atoms: C_10  and  C_12
REMARK    7  A    between atoms: C_12  and  O_14
REMARK    8  A    between atoms: O_14  and  C_15
REMARK    9  A    between atoms: C_15  and  C_16
REMARK   10  A    between atoms: C_28  and  C_29
REMARK   11  A    between atoms: C_28  and  C_30
REMARK                            x       y       z     vdW  Elec       q    Type
REMARK                         _______ _______ _______ _____ _____    ______ ____
ROOT
ATOM      1  O   UNL     1       1.094   8.666  20.176  0.00  0.00    +0.000 OA
ENDROOT
BRANCH   1   2
ATOM      2  C   UNL     1       0.250   8.602  21.221  0.00  0.00    +0.000 C 
ATOM      3  O   UNL     1      -0.364   7.589  21.534  0.00  0.00    +0.000 OA
BRANCH   2   4
ATOM      4  C   UNL     1       0.194   9.931  21.960  0.00  0.00    +0.000 C 
ATOM      5  C   UNL     1      -0.004   9.616  23.447  0.00  0.00    +0.000 C 
BRANCH   4   6
ATOM      6  N   UNL     1      -0.873  10.881  21.560  0.00  0.00    +0.000 NA
ATOM      7  H   UNL     1      -1.834  10.545  21.621  0.00  0.00    +0.000 HD
BRANCH   6   8
ATOM      8  S   UNL     1      -0.713  11.986  20.301  0.00  0.00    +0.000 S 
ATOM      9  O   UNL     1       0.700  11.962  19.975  0.00  0.00    +0.000 OA
ATOM     10  O   UNL     1      -1.371  13.239  20.581  0.00  0.00    +0.000 OA
BRANCH   8  15
ATOM     11  C   UNL     1      -3.455   9.965  15.313  0.00  0.00    +0.000 C 
ATOM     12  C   UNL     1      -2.815  10.419  16.590  0.00  0.00    +0.000 A 
ATOM     13  C   UNL     1      -3.400  11.431  17.361  0.00  0.00    +0.000 A 
ATOM     14  C   UNL     1      -2.788  11.861  18.535  0.00  0.00    +0.000 A 
ATOM     15  C   UNL     1      -1.590  11.266  18.947  0.00  0.00    +0.000 A 
ATOM     16  C   UNL     1      -0.988  10.268  18.182  0.00  0.00    +0.000 A 
ATOM     17  C   UNL     1      -1.605   9.844  17.006  0.00  0.00    +0.000 A 
ENDBRANCH   8  15
ENDBRANCH   6   8
ENDBRANCH   4   6
ENDBRANCH   2   4
ENDBRANCH   1   2
BRANCH   1  18
ATOM     18  C   UNL     1       1.988   7.569  20.056  0.00  0.00    +0.000 C 
BRANCH  18  19
ATOM     19  C   UNL     1       2.713   7.239  18.726  0.00  0.00    +0.000 C 
ATOM     20  O   UNL     1       2.933   8.163  17.943  0.00  0.00    +0.000 OA
ATOM     21  N   UNL     1       3.136   5.894  18.543  0.00  0.00    +0.000 N 
ATOM     22  C   UNL     1       4.121   5.555  17.499  0.00  0.00    +0.000 A 
ATOM     23  C   UNL     1       4.555   6.429  16.491  0.00  0.00    +0.000 A 
ATOM     24  C   UNL     1       5.483   6.030  15.510  0.00  0.00    +0.000 A 
ATOM     25  C   UNL     1       6.014   4.747  15.517  0.00  0.00    +0.000 A 
ATOM     26  C   UNL     1       5.639   3.869  16.522  0.00  0.00    +0.000 A 
ATOM     27  C   UNL     1       4.717   4.272  17.498  0.00  0.00    +0.000 A 
ATOM     28  N   UNL     1       4.453   3.361  18.513  0.00  0.00    +0.000 N 
ATOM     29  C   UNL     1       3.490   3.562  19.451  0.00  0.00    +0.000 C 
ATOM     30  O   UNL     1       3.405   2.771  20.389  0.00  0.00    +0.000 OA
ATOM     31  C   UNL     1       2.439   4.652  19.127  0.00  0.00    +0.000 C 
ATOM     32  C   UNL     1       1.477   4.090  18.047  0.00  0.00    +0.000 C 
ATOM     33  C   UNL     1       1.589   4.768  20.411  0.00  0.00    +0.000 C 
ATOM     34  H   UNL     1       5.031   2.542  18.636  0.00  0.00    +0.000 HD
ENDBRANCH  18  19
ENDBRANCH   1  18
TORSDOF 7
ENDMDL
MODEL 2
REMARK VINA RESULT:      -8.6      2.770      8.501
REMARK  Name = 
REMARK  11 active torsions:
REMARK  status: ('A' for Active; 'I' for Inactive)
REMARK    1  A    between atoms: C_1  and  C_2
REMARK    2  A    between atoms: C_5  and  S_6
REMARK    3  A    between atoms: S_6  and  N_9
REMARK    4  A    between atoms: N_9  and  C_10
REMARK    5  A    between atoms: C_10  and  C_11
REMARK    6  A    between atoms: C_10  and  C_12
REMARK    7  A    between atoms: C_12  and  O_14
REMARK    8  A    between atoms: O_14  and  C_15
REMARK    9  A    between atoms: C_15  and  C_16
REMARK   10  A    between atoms: C_28  and  C_29
REMARK   11  A    between atoms: C_28  and  C_30
REMARK                            x       y       z     vdW  Elec       q    Type
REMARK                         _______ _______ _______ _____ _____    ______ ____
ROOT
ATOM      1  O   UNL     1       3.059   6.232  20.155  0.00  0.00    +0.000 OA
ENDROOT
BRANCH   1   2
ATOM      2  C   UNL     1       2.393   5.077  20.325  0.00  0.00    +0.000 C 
ATOM      3  O   UNL     1       2.285   4.510  21.406  0.00  0.00    +0.000 OA
BRANCH   2   4
ATOM      4  C   UNL     1       1.780   4.602  19.016  0.00  0.00    +0.000 C 
ATOM      5  C   UNL     1       1.015   3.309  19.315  0.00  0.00    +0.000 C 
BRANCH   4   6
ATOM      6  N   UNL     1       2.714   4.319  17.897  0.00  0.00    +0.000 NA
ATOM      7  H   UNL     1       2.296   4.054  17.005  0.00  0.00    +0.000 HD
BRANCH   6   8
ATOM      8  S   UNL     1       4.205   3.565  18.096  0.00  0.00    +0.000 S 
ATOM      9  O   UNL     1       4.300   2.648  16.976  0.00  0.00    +0.000 OA
ATOM     10  O   UNL     1       4.405   3.088  19.442  0.00  0.00    +0.000 OA
BRANCH   8  15
ATOM     11  C   UNL     1       7.974   8.267  17.670  0.00  0.00    +0.000 C 
ATOM     12  C   UNL     1       7.073   7.070  17.719  0.00  0.00    +0.000 A 
ATOM     13  C   UNL     1       5.908   7.021  16.942  0.00  0.00    +0.000 A 
ATOM     14  C   UNL     1       5.066   5.914  17.009  0.00  0.00    +0.000 A 
ATOM     15  C   UNL     1       5.399   4.844  17.848  0.00  0.00    +0.000 A 
ATOM     16  C   UNL     1       6.547   4.885  18.637  0.00  0.00    +0.000 A 
ATOM     17  C   UNL     1       7.383   5.998  18.568  0.00  0.00    +0.000 A 
ENDBRANCH   8  15
ENDBRANCH   6   8
ENDBRANCH   4   6
ENDBRANCH   2   4
ENDBRANCH   1   2
BRANCH   1  18
ATOM     18  C   UNL     1       2.282   7.307  19.647  0.00  0.00    +0.000 C 
BRANCH  18  19
ATOM     19  C   UNL     1       1.223   8.038  20.512  0.00  0.00    +0.000 C 
ATOM     20  O   UNL     1       0.719   7.422  21.451  0.00  0.00    +0.000 OA
ATOM     21  N   UNL     1       0.968   9.401  20.197  0.00  0.00    +0.000 N 
ATOM     22  C   UNL     1       0.260  10.271  21.154  0.00  0.00    +0.000 A 
ATOM     23  C   UNL     1      -0.393   9.824  22.313  0.00  0.00    +0.000 A 
ATOM     24  C   UNL     1      -1.071  10.709  23.172  0.00  0.00    +0.000 A 
ATOM     25  C   UNL     1      -1.104  12.072  22.904  0.00  0.00    +0.000 A 
ATOM     26  C   UNL     1      -0.435  12.554  21.790  0.00  0.00    +0.000 A 
ATOM     27  C   UNL     1       0.240  11.668  20.939  0.00  0.00    +0.000 A 
ATOM     28  N   UNL     1       0.949  12.239  19.888  0.00  0.00    +0.000 N 
ATOM     29  C   UNL     1       1.542  11.502  18.914  0.00  0.00    +0.000 C 
ATOM     30  O   UNL     1       2.258  12.074  18.093  0.00  0.00    +0.000 OA
ATOM     31  C   UNL     1       1.079  10.029  18.795  0.00  0.00    +0.000 C 
ATOM     32  C   UNL     1      -0.331  10.015  18.151  0.00  0.00    +0.000 C 
ATOM     33  C   UNL     1       2.019   9.409  17.737  0.00  0.00    +0.000 C 
ATOM     34  H   UNL     1       1.116  13.235  19.858  0.00  0.00    +0.000 HD
ENDBRANCH  18  19
ENDBRANCH   1  18
TORSDOF 7
ENDMDL
MODEL 3
REMARK VINA RESULT:      -8.5      2.436      4.492
REMARK  Name = 
REMARK  11 active torsions:
REMARK  status: ('A' for Active; 'I' for Inactive)
REMARK    1  A    between atoms: C_1  and  C_2
REMARK    2  A    between atoms: C_5  and  S_6
REMARK    3  A    between atoms: S_6  and  N_9
REMARK    4  A    between atoms: N_9  and  C_10
REMARK    5  A    between atoms: C_10  and  C_11
REMARK    6  A    between atoms: C_10  and  C_12
REMARK    7  A    between atoms: C_12  and  O_14
REMARK    8  A    between atoms: O_14  and  C_15
REMARK    9  A    between atoms: C_15  and  C_16
REMARK   10  A    between atoms: C_28  and  C_29
REMARK   11  A    between atoms: C_28  and  C_30
REMARK                            x       y       z     vdW  Elec       q    Type
REMARK                         _______ _______ _______ _____ _____    ______ ____
ROOT
ATOM      1  O   UNL     1       1.747   9.109  17.444  0.00  0.00    +0.000 OA
ENDROOT
BRANCH   1   2
ATOM      2  C   UNL     1       1.588  10.303  18.041  0.00  0.00    +0.000 C 
ATOM      3  O   UNL     1       2.406  11.212  17.965  0.00  0.00    +0.000 OA
BRANCH   2   4
ATOM      4  C   UNL     1       0.262  10.369  18.784  0.00  0.00    +0.000 C 
ATOM      5  C   UNL     1      -0.839  10.000  17.785  0.00  0.00    +0.000 C 
BRANCH   4   6
ATOM      6  N   UNL     1      -0.107  11.673  19.392  0.00  0.00    +0.000 NA
ATOM      7  H   UNL     1      -0.296  12.442  18.749  0.00  0.00    +0.000 HD
BRANCH   6   8
ATOM      8  S   UNL     1       0.552  12.252  20.827  0.00  0.00    +0.000 S 
ATOM      9  O   UNL     1       1.138  13.529  20.468  0.00  0.00    +0.000 OA
ATOM     10  O   UNL     1       1.344  11.258  21.510  0.00  0.00    +0.000 OA
BRANCH   8  15
ATOM     11  C   UNL     1      -4.554  13.134  23.932  0.00  0.00    +0.000 C 
ATOM     12  C   UNL     1      -3.251  12.950  23.215  0.00  0.00    +0.000 A 
ATOM     13  C   UNL     1      -2.766  13.939  22.349  0.00  0.00    +0.000 A 
ATOM     14  C   UNL     1      -1.565  13.750  21.671  0.00  0.00    +0.000 A 
ATOM     15  C   UNL     1      -0.837  12.571  21.871  0.00  0.00    +0.000 A 
ATOM     16  C   UNL     1      -1.314  11.572  22.718  0.00  0.00    +0.000 A 
ATOM     17  C   UNL     1      -2.519  11.766  23.391  0.00  0.00    +0.000 A 
ENDBRANCH   8  15
ENDBRANCH   6   8
ENDBRANCH   4   6
ENDBRANCH   2   4
ENDBRANCH   1   2
BRANCH   1  18
ATOM     18  C   UNL     1       2.801   8.311  17.964  0.00  0.00    +0.000 C 
BRANCH  18  19
ATOM     19  C   UNL     1       2.547   7.181  18.995  0.00  0.00    +0.000 C 
ATOM     20  O   UNL     1       1.860   7.444  19.983  0.00  0.00    +0.000 OA
ATOM     21  N   UNL     1       3.069   5.897  18.681  0.00  0.00    +0.000 N 
ATOM     22  C   UNL     1       2.595   4.700  19.399  0.00  0.00    +0.000 A 
ATOM     23  C   UNL     1       1.791   4.720  20.550  0.00  0.00    +0.000 A 
ATOM     24  C   UNL     1       1.394   3.536  21.199  0.00  0.00    +0.000 A 
ATOM     25  C   UNL     1       1.780   2.295  20.710  0.00  0.00    +0.000 A 
ATOM     26  C   UNL     1       2.540   2.236  19.552  0.00  0.00    +0.000 A 
ATOM     27  C   UNL     1       2.931   3.417  18.908  0.00  0.00    +0.000 A 
ATOM     28  N   UNL     1       3.625   3.269  17.713  0.00  0.00    +0.000 N 
ATOM     29  C   UNL     1       4.176   4.318  17.047  0.00  0.00    +0.000 C 
ATOM     30  O   UNL     1       4.662   4.120  15.934  0.00  0.00    +0.000 OA
ATOM     31  C   UNL     1       4.340   5.628  17.855  0.00  0.00    +0.000 C 
ATOM     32  C   UNL     1       5.523   5.444  18.841  0.00  0.00    +0.000 C 
ATOM     33  C   UNL     1       4.830   6.665  16.820  0.00  0.00    +0.000 C 
ATOM     34  H   UNL     1       3.675   2.372  17.252  0.00  0.00    +0.000 HD
ENDBRANCH  18  19
ENDBRANCH   1  18
TORSDOF 7
ENDMDL
MODEL 4
REMARK VINA RESULT:      -8.4      2.136      3.029
REMARK  Name = 
REMARK  11 active torsions:
REMARK  status: ('A' for Active; 'I' for Inactive)
REMARK    1  A    between atoms: C_1  and  C_2
REMARK    2  A    between atoms: C_5  and  S_6
REMARK    3  A    between atoms: S_6  and  N_9
REMARK    4  A    between atoms: N_9  and  C_10
REMARK    5  A    between atoms: C_10  and  C_11
REMARK    6  A    between atoms: C_10  and  C_12
REMARK    7  A    between atoms: C_12  and  O_14
REMARK    8  A    between atoms: O_14  and  C_15
REMARK    9  A    between atoms: C_15  and  C_16
REMARK   10  A    between atoms: C_28  and  C_29
REMARK   11  A    between atoms: C_28  and  C_30
REMARK                            x       y       z     vdW  Elec       q    Type
REMARK                         _______ _______ _______ _____ _____    ______ ____
ROOT
ATOM      1  O   UNL     1       0.715   8.168  20.957  0.00  0.00    +0.000 OA
ENDROOT
BRANCH   1   2
ATOM      2  C   UNL     1       1.038   9.264  21.665  0.00  0.00    +0.000 C 
ATOM      3  O   UNL     1       1.818   9.255  22.610  0.00  0.00    +0.000 OA
BRANCH   2   4
ATOM      4  C   UNL     1       0.332  10.496  21.117  0.00  0.00    +0.000 C 
ATOM      5  C   UNL     1      -0.159  10.149  19.707  0.00  0.00    +0.000 C 
BRANCH   4   6
ATOM      6  N   UNL     1       1.130  11.743  21.016  0.00  0.00    +0.000 NA
ATOM      7  H   UNL     1       2.069  11.722  21.415  0.00  0.00    +0.000 HD
BRANCH   6   8
ATOM      8  S   UNL     1       0.470  13.285  21.145  0.00  0.00    +0.000 S 
ATOM      9  O   UNL     1       0.408  13.768  19.778  0.00  0.00    +0.000 OA
ATOM     10  O   UNL     1       1.114  14.077  22.164  0.00  0.00    +0.000 OA
BRANCH   8  15
ATOM     11  C   UNL     1      -5.234  13.021  23.115  0.00  0.00    +0.000 C 
ATOM     12  C   UNL     1      -3.816  13.013  22.629  0.00  0.00    +0.000 A 
ATOM     13  C   UNL     1      -2.750  13.005  23.537  0.00  0.00    +0.000 A 
ATOM     14  C   UNL     1      -1.436  13.019  23.077  0.00  0.00    +0.000 A 
ATOM     15  C   UNL     1      -1.187  13.027  21.699  0.00  0.00    +0.000 A 
ATOM     16  C   UNL     1      -2.238  13.051  20.784  0.00  0.00    +0.000 A 
ATOM     17  C   UNL     1      -3.551  13.040  21.252  0.00  0.00    +0.000 A 
ENDBRANCH   8  15
ENDBRANCH   6   8
ENDBRANCH   4   6
ENDBRANCH   2   4
ENDBRANCH   1   2
BRANCH   1  18
ATOM     18  C   UNL     1       1.787   7.264  20.726  0.00  0.00    +0.000 C 
BRANCH  18  19
ATOM     19  C   UNL     1       2.469   7.134  19.339  0.00  0.00    +0.000 C 
ATOM     20  O   UNL     1       2.573   8.148  18.648  0.00  0.00    +0.000 OA
ATOM     21  N   UNL     1       2.994   5.857  19.001  0.00  0.00    +0.000 N 
ATOM     22  C   UNL     1       3.952   5.712  17.889  0.00  0.00    +0.000 A 
ATOM     23  C   UNL     1       4.261   6.718  16.960  0.00  0.00    +0.000 A 
ATOM     24  C   UNL     1       5.169   6.502  15.906  0.00  0.00    +0.000 A 
ATOM     25  C   UNL     1       5.805   5.276  15.758  0.00  0.00    +0.000 A 
ATOM     26  C   UNL     1       5.555   4.273  16.681  0.00  0.00    +0.000 A 
ATOM     27  C   UNL     1       4.652   4.493  17.730  0.00  0.00    +0.000 A 
ATOM     28  N   UNL     1       4.515   3.466  18.655  0.00  0.00    +0.000 N 
ATOM     29  C   UNL     1       3.587   3.486  19.647  0.00  0.00    +0.000 C 
ATOM     30  O   UNL     1       3.615   2.600  20.500  0.00  0.00    +0.000 OA
ATOM     31  C   UNL     1       2.433   4.506  19.480  0.00  0.00    +0.000 C 
ATOM     32  C   UNL     1       1.470   3.972  18.388  0.00  0.00    +0.000 C 
ATOM     33  C   UNL     1       1.641   4.417  20.804  0.00  0.00    +0.000 C 
ATOM     34  H   UNL     1       5.166   2.693  18.669  0.00  0.00    +0.000 HD
ENDBRANCH  18  19
ENDBRANCH   1  18
TORSDOF 7
ENDMDL
MODEL 5
REMARK VINA RESULT:      -8.3      2.793      8.669
REMARK  Name = 
REMARK  11 active torsions:
REMARK  status: ('A' for Active; 'I' for Inactive)
REMARK    1  A    between atoms: C_1  and  C_2
REMARK    2  A    between atoms: C_5  and  S_6
REMARK    3  A    between atoms: S_6  and  N_9
REMARK    4  A    between atoms: N_9  and  C_10
REMARK    5  A    between atoms: C_10  and  C_11
REMARK    6  A    between atoms: C_10  and  C_12
REMARK    7  A    between atoms: C_12  and  O_14
REMARK    8  A    between atoms: O_14  and  C_15
REMARK    9  A    between atoms: C_15  and  C_16
REMARK   10  A    between atoms: C_28  and  C_29
REMARK   11  A    between atoms: C_28  and  C_30
REMARK                            x       y       z     vdW  Elec       q    Type
REMARK                         _______ _______ _______ _____ _____    ______ ____
ROOT
ATOM      1  O   UNL     1       2.249   6.061  19.981  0.00  0.00    +0.000 OA
ENDROOT
BRANCH   1   2
ATOM      2  C   UNL     1       1.959   5.432  18.829  0.00  0.00    +0.000 C 
ATOM      3  O   UNL     1       2.211   5.895  17.723  0.00  0.00    +0.000 OA
BRANCH   2   4
ATOM      4  C   UNL     1       1.313   4.080  19.092  0.00  0.00    +0.000 C 
ATOM      5  C   UNL     1       1.198   3.919  20.612  0.00  0.00    +0.000 C 
BRANCH   4   6
ATOM      6  N   UNL     1       2.017   2.882  18.569  0.00  0.00    +0.000 NA
ATOM      7  H   UNL     1       1.437   2.087  18.304  0.00  0.00    +0.000 HD
BRANCH   6   8
ATOM      8  S   UNL     1       3.512   2.359  19.137  0.00  0.00    +0.000 S 
ATOM      9  O   UNL     1       3.749   1.111  18.436  0.00  0.00    +0.000 OA
ATOM     10  O   UNL     1       3.603   2.409  20.575  0.00  0.00    +0.000 OA
BRANCH   8  15
ATOM     11  C   UNL     1       7.000   6.811  17.017  0.00  0.00    +0.000 C 
ATOM     12  C   UNL     1       6.192   5.661  17.537  0.00  0.00    +0.000 A 
ATOM     13  C   UNL     1       5.526   4.800  16.656  0.00  0.00    +0.000 A 
ATOM     14  C   UNL     1       4.760   3.747  17.149  0.00  0.00    +0.000 A 
ATOM     15  C   UNL     1       4.672   3.545  18.531  0.00  0.00    +0.000 A 
ATOM     16  C   UNL     1       5.317   4.403  19.421  0.00  0.00    +0.000 A 
ATOM     17  C   UNL     1       6.079   5.458  18.920  0.00  0.00    +0.000 A 
ENDBRANCH   8  15
ENDBRANCH   6   8
ENDBRANCH   4   6
ENDBRANCH   2   4
ENDBRANCH   1   2
BRANCH   1  18
ATOM     18  C   UNL     1       2.174   7.478  19.929  0.00  0.00    +0.000 C 
BRANCH  18  19
ATOM     19  C   UNL     1       1.103   8.276  20.717  0.00  0.00    +0.000 C 
ATOM     20  O   UNL     1       0.555   7.722  21.670  0.00  0.00    +0.000 OA
ATOM     21  N   UNL     1       0.888   9.624  20.321  0.00  0.00    +0.000 N 
ATOM     22  C   UNL     1       0.167  10.559  21.205  0.00  0.00    +0.000 A 
ATOM     23  C   UNL     1      -0.534  10.188  22.363  0.00  0.00    +0.000 A 
ATOM     24  C   UNL     1      -1.221  11.132  23.150  0.00  0.00    +0.000 A 
ATOM     25  C   UNL     1      -1.217  12.478  22.808  0.00  0.00    +0.000 A 
ATOM     26  C   UNL     1      -0.501  12.886  21.693  0.00  0.00    +0.000 A 
ATOM     27  C   UNL     1       0.184  11.943  20.915  0.00  0.00    +0.000 A 
ATOM     28  N   UNL     1       0.940  12.442  19.861  0.00  0.00    +0.000 N 
ATOM     29  C   UNL     1       1.549  11.641  18.948  0.00  0.00    +0.000 C 
ATOM     30  O   UNL     1       2.304  12.155  18.123  0.00  0.00    +0.000 OA
ATOM     31  C   UNL     1       1.059  10.173  18.893  0.00  0.00    +0.000 C 
ATOM     32  C   UNL     1      -0.329  10.152  18.201  0.00  0.00    +0.000 C 
ATOM     33  C   UNL     1       2.020   9.479  17.902  0.00  0.00    +0.000 C 
ATOM     34  H   UNL     1       1.129  13.431  19.783  0.00  0.00    +0.000 HD
ENDBRANCH  18  19
ENDBRANCH   1  18
TORSDOF 7
ENDMDL
MODEL 6
REMARK VINA RESULT:      -8.2      2.268      2.989
REMARK  Name = 
REMARK  11 active torsions:
REMARK  status: ('A' for Active; 'I' for Inactive)
REMARK    1  A    between atoms: C_1  and  C_2
REMARK    2  A    between atoms: C_5  and  S_6
REMARK    3  A    between atoms: S_6  and  N_9
REMARK    4  A    between atoms: N_9  and  C_10
REMARK    5  A    between atoms: C_10  and  C_11
REMARK    6  A    between atoms: C_10  and  C_12
REMARK    7  A    between atoms: C_12  and  O_14
REMARK    8  A    between atoms: O_14  and  C_15
REMARK    9  A    between atoms: C_15  and  C_16
REMARK   10  A    between atoms: C_28  and  C_29
REMARK   11  A    between atoms: C_28  and  C_30
REMARK                            x       y       z     vdW  Elec       q    Type
REMARK                         _______ _______ _______ _____ _____    ______ ____
ROOT
ATOM      1  O   UNL     1       1.209   8.799  20.059  0.00  0.00    +0.000 OA
ENDROOT
BRANCH   1   2
ATOM      2  C   UNL     1       1.066   9.260  21.313  0.00  0.00    +0.000 C 
ATOM      3  O   UNL     1       1.643   8.780  22.281  0.00  0.00    +0.000 OA
BRANCH   2   4
ATOM      4  C   UNL     1       0.125  10.455  21.351  0.00  0.00    +0.000 C 
ATOM      5  C   UNL     1      -0.730  10.321  22.615  0.00  0.00    +0.000 C 
BRANCH   4   6
ATOM      6  N   UNL     1      -0.801  10.623  20.203  0.00  0.00    +0.000 NA
ATOM      7  H   UNL     1      -0.806   9.880  19.505  0.00  0.00    +0.000 HD
BRANCH   6   8
ATOM      8  S   UNL     1      -1.139  12.107  19.488  0.00  0.00    +0.000 S 
ATOM      9  O   UNL     1      -1.812  12.865  20.526  0.00  0.00    +0.000 OA
ATOM     10  O   UNL     1      -1.744  11.967  18.186  0.00  0.00    +0.000 OA
BRANCH   8  15
ATOM     11  C   UNL     1       4.073  14.759  17.972  0.00  0.00    +0.000 C 
ATOM     12  C   UNL     1       2.810  14.082  18.412  0.00  0.00    +0.000 A 
ATOM     13  C   UNL     1       2.622  12.711  18.196  0.00  0.00    +0.000 A 
ATOM     14  C   UNL     1       1.436  12.095  18.590  0.00  0.00    +0.000 A 
ATOM     15  C   UNL     1       0.440  12.853  19.216  0.00  0.00    +0.000 A 
ATOM     16  C   UNL     1       0.607  14.221  19.423  0.00  0.00    +0.000 A 
ATOM     17  C   UNL     1       1.795  14.832  19.024  0.00  0.00    +0.000 A 
ENDBRANCH   8  15
ENDBRANCH   6   8
ENDBRANCH   4   6
ENDBRANCH   2   4
ENDBRANCH   1   2
BRANCH   1  18
ATOM     18  C   UNL     1       2.024   7.642  19.932  0.00  0.00    +0.000 C 
BRANCH  18  19
ATOM     19  C   UNL     1       2.749   7.286  18.608  0.00  0.00    +0.000 C 
ATOM     20  O   UNL     1       2.964   8.195  17.805  0.00  0.00    +0.000 OA
ATOM     21  N   UNL     1       3.179   5.940  18.454  0.00  0.00    +0.000 N 
ATOM     22  C   UNL     1       4.165   5.583  17.417  0.00  0.00    +0.000 A 
ATOM     23  C   UNL     1       4.594   6.437  16.390  0.00  0.00    +0.000 A 
ATOM     24  C   UNL     1       5.522   6.022  15.417  0.00  0.00    +0.000 A 
ATOM     25  C   UNL     1       6.060   4.741  15.451  0.00  0.00    +0.000 A 
ATOM     26  C   UNL     1       5.690   3.884  16.476  0.00  0.00    +0.000 A 
ATOM     27  C   UNL     1       4.766   4.303  17.443  0.00  0.00    +0.000 A 
ATOM     28  N   UNL     1       4.508   3.413  18.478  0.00  0.00    +0.000 N 
ATOM     29  C   UNL     1       3.545   3.630  19.412  0.00  0.00    +0.000 C 
ATOM     30  O   UNL     1       3.465   2.859  20.367  0.00  0.00    +0.000 OA
ATOM     31  C   UNL     1       2.488   4.707  19.065  0.00  0.00    +0.000 C 
ATOM     32  C   UNL     1       1.528   4.118  17.999  0.00  0.00    +0.000 C 
ATOM     33  C   UNL     1       1.638   4.847  20.348  0.00  0.00    +0.000 C 
ATOM     34  H   UNL     1       5.090   2.600  18.619  0.00  0.00    +0.000 HD
ENDBRANCH  18  19
ENDBRANCH   1  18
TORSDOF 7
ENDMDL
MODEL 7
REMARK VINA RESULT:      -8.2      2.702      8.689
REMARK  Name = 
REMARK  11 active torsions:
REMARK  status: ('A' for Active; 'I' for Inactive)
REMARK    1  A    between atoms: C_1  and  C_2
REMARK    2  A    between atoms: C_5  and  S_6
REMARK    3  A    between atoms: S_6  and  N_9
REMARK    4  A    between atoms: N_9  and  C_10
REMARK    5  A    between atoms: C_10  and  C_11
REMARK    6  A    between atoms: C_10  and  C_12
REMARK    7  A    between atoms: C_12  and  O_14
REMARK    8  A    between atoms: O_14  and  C_15
REMARK    9  A    between atoms: C_15  and  C_16
REMARK   10  A    between atoms: C_28  and  C_29
REMARK   11  A    between atoms: C_28  and  C_30
REMARK                            x       y       z     vdW  Elec       q    Type
REMARK                         _______ _______ _______ _____ _____    ______ ____
ROOT
ATOM      1  O   UNL     1       1.896   6.221  19.258  0.00  0.00    +0.000 OA
ENDROOT
BRANCH   1   2
ATOM      2  C   UNL     1       2.319   5.131  19.921  0.00  0.00    +0.000 C 
ATOM      3  O   UNL     1       2.081   4.924  21.105  0.00  0.00    +0.000 OA
BRANCH   2   4
ATOM      4  C   UNL     1       3.094   4.200  19.002  0.00  0.00    +0.000 C 
ATOM      5  C   UNL     1       2.506   2.796  19.176  0.00  0.00    +0.000 C 
BRANCH   4   6
ATOM      6  N   UNL     1       4.559   4.099  19.222  0.00  0.00    +0.000 NA
ATOM      7  H   UNL     1       4.865   3.758  20.134  0.00  0.00    +0.000 HD
BRANCH   6   8
ATOM      8  S   UNL     1       5.673   5.194  18.598  0.00  0.00    +0.000 S 
ATOM      9  O   UNL     1       6.878   4.967  19.372  0.00  0.00    +0.000 OA
ATOM     10  O   UNL     1       5.129   6.524  18.477  0.00  0.00    +0.000 OA
BRANCH   8  15
ATOM     11  C   UNL     1       6.427   3.812  12.765  0.00  0.00    +0.000 C 
ATOM     12  C   UNL     1       6.267   4.089  14.230  0.00  0.00    +0.000 A 
ATOM     13  C   UNL     1       5.105   3.699  14.908  0.00  0.00    +0.000 A 
ATOM     14  C   UNL     1       4.956   3.979  16.264  0.00  0.00    +0.000 A 
ATOM     15  C   UNL     1       5.982   4.641  16.948  0.00  0.00    +0.000 A 
ATOM     16  C   UNL     1       7.137   5.049  16.283  0.00  0.00    +0.000 A 
ATOM     17  C   UNL     1       7.278   4.769  14.925  0.00  0.00    +0.000 A 
ENDBRANCH   8  15
ENDBRANCH   6   8
ENDBRANCH   4   6
ENDBRANCH   2   4
ENDBRANCH   1   2
BRANCH   1  18
ATOM     18  C   UNL     1       2.206   7.461  19.877  0.00  0.00    +0.000 C 
BRANCH  18  19
ATOM     19  C   UNL     1       1.150   8.273  20.671  0.00  0.00    +0.000 C 
ATOM     20  O   UNL     1       0.615   7.733  21.640  0.00  0.00    +0.000 OA
ATOM     21  N   UNL     1       0.934   9.617  20.262  0.00  0.00    +0.000 N 
ATOM     22  C   UNL     1       0.230  10.565  21.146  0.00  0.00    +0.000 A 
ATOM     23  C   UNL     1      -0.454  10.211  22.319  0.00  0.00    +0.000 A 
ATOM     24  C   UNL     1      -1.125  11.167  23.104  0.00  0.00    +0.000 A 
ATOM     25  C   UNL     1      -1.122  12.509  22.745  0.00  0.00    +0.000 A 
ATOM     26  C   UNL     1      -0.421  12.900  21.615  0.00  0.00    +0.000 A 
ATOM     27  C   UNL     1       0.248  11.945  20.837  0.00  0.00    +0.000 A 
ATOM     28  N   UNL     1       0.989  12.428  19.766  0.00  0.00    +0.000 N 
ATOM     29  C   UNL     1       1.582  11.614  18.854  0.00  0.00    +0.000 C 
ATOM     30  O   UNL     1       2.325  12.114  18.011  0.00  0.00    +0.000 OA
ATOM     31  C   UNL     1       1.086  10.147  18.824  0.00  0.00    +0.000 C 
ATOM     32  C   UNL     1      -0.313  10.123  18.155  0.00  0.00    +0.000 C 
ATOM     33  C   UNL     1       2.029   9.437  17.828  0.00  0.00    +0.000 C 
ATOM     34  H   UNL     1       1.181  13.416  19.673  0.00  0.00    +0.000 HD
ENDBRANCH  18  19
ENDBRANCH   1  18
TORSDOF 7
ENDMDL
MODEL 8
REMARK VINA RESULT:      -8.2      1.801      2.371
REMARK  Name = 
REMARK  11 active torsions:
REMARK  status: ('A' for Active; 'I' for Inactive)
REMARK    1  A    between atoms: C_1  and  C_2
REMARK    2  A    between atoms: C_5  and  S_6
REMARK    3  A    between atoms: S_6  and  N_9
REMARK    4  A    between atoms: N_9  and  C_10
REMARK    5  A    between atoms: C_10  and  C_11
REMARK    6  A    between atoms: C_10  and  C_12
REMARK    7  A    between atoms: C_12  and  O_14
REMARK    8  A    between atoms: O_14  and  C_15
REMARK    9  A    between atoms: C_15  and  C_16
REMARK   10  A    between atoms: C_28  and  C_29
REMARK   11  A    between atoms: C_28  and  C_30
REMARK                            x       y       z     vdW  Elec       q    Type
REMARK                         _______ _______ _______ _____ _____    ______ ____
ROOT
ATOM      1  O   UNL     1       0.811   8.041  20.574  0.00  0.00    +0.000 OA
ENDROOT
BRANCH   1   2
ATOM      2  C   UNL     1       0.851   9.372  20.757  0.00  0.00    +0.000 C 
ATOM      3  O   UNL     1       1.210   9.902  21.801  0.00  0.00    +0.000 OA
BRANCH   2   4
ATOM      4  C   UNL     1       0.421  10.109  19.496  0.00  0.00    +0.000 C 
ATOM      5  C   UNL     1       1.414  11.255  19.279  0.00  0.00    +0.000 C 
BRANCH   4   6
ATOM      6  N   UNL     1      -0.943  10.694  19.488  0.00  0.00    +0.000 NA
ATOM      7  H   UNL     1      -1.626  10.277  20.121  0.00  0.00    +0.000 HD
BRANCH   6   8
ATOM      8  S   UNL     1      -1.700  11.275  18.103  0.00  0.00    +0.000 S 
ATOM      9  O   UNL     1      -1.603  10.184  17.152  0.00  0.00    +0.000 OA
ATOM     10  O   UNL     1      -1.245  12.595  17.739  0.00  0.00    +0.000 OA
BRANCH   8  15
ATOM     11  C   UNL     1      -7.519  12.388  19.283  0.00  0.00    +0.000 C 
ATOM     12  C   UNL     1      -6.077  12.058  19.040  0.00  0.00    +0.000 A 
ATOM     13  C   UNL     1      -5.070  12.637  19.823  0.00  0.00    +0.000 A 
ATOM     14  C   UNL     1      -3.732  12.341  19.577  0.00  0.00    +0.000 A 
ATOM     15  C   UNL     1      -3.400  11.450  18.549  0.00  0.00    +0.000 A 
ATOM     16  C   UNL     1      -4.390  10.878  17.752  0.00  0.00    +0.000 A 
ATOM     17  C   UNL     1      -5.728  11.181  18.002  0.00  0.00    +0.000 A 
ENDBRANCH   8  15
ENDBRANCH   6   8
ENDBRANCH   4   6
ENDBRANCH   2   4
ENDBRANCH   1   2
BRANCH   1  18
ATOM     18  C   UNL     1       2.079   7.416  20.426  0.00  0.00    +0.000 C 
BRANCH  18  19
ATOM     19  C   UNL     1       2.719   7.173  19.035  0.00  0.00    +0.000 C 
ATOM     20  O   UNL     1       2.866   8.142  18.289  0.00  0.00    +0.000 OA
ATOM     21  N   UNL     1       3.159   5.851  18.754  0.00  0.00    +0.000 N 
ATOM     22  C   UNL     1       4.079   5.591  17.631  0.00  0.00    +0.000 A 
ATOM     23  C   UNL     1       4.426   6.526  16.644  0.00  0.00    +0.000 A 
ATOM     24  C   UNL     1       5.294   6.202  15.585  0.00  0.00    +0.000 A 
ATOM     25  C   UNL     1       5.852   4.933  15.489  0.00  0.00    +0.000 A 
ATOM     26  C   UNL     1       5.565   3.997  16.469  0.00  0.00    +0.000 A 
ATOM     27  C   UNL     1       4.701   4.325  17.523  0.00  0.00    +0.000 A 
ATOM     28  N   UNL     1       4.526   3.357  18.504  0.00  0.00    +0.000 N 
ATOM     29  C   UNL     1       3.624   3.485  19.512  0.00  0.00    +0.000 C 
ATOM     30  O   UNL     1       3.620   2.645  20.411  0.00  0.00    +0.000 OA
ATOM     31  C   UNL     1       2.530   4.563  19.316  0.00  0.00    +0.000 C 
ATOM     32  C   UNL     1       1.511   4.033  18.274  0.00  0.00    +0.000 C 
ATOM     33  C   UNL     1       1.766   4.591  20.658  0.00  0.00    +0.000 C 
ATOM     34  H   UNL     1       5.130   2.548  18.546  0.00  0.00    +0.000 HD
ENDBRANCH  18  19
ENDBRANCH   1  18
TORSDOF 7
ENDMDL
MODEL 9
REMARK VINA RESULT:      -8.2      1.002      1.068
REMARK  Name = 
REMARK  11 active torsions:
REMARK  status: ('A' for Active; 'I' for Inactive)
REMARK    1  A    between atoms: C_1  and  C_2
REMARK    2  A    between atoms: C_5  and  S_6
REMARK    3  A    between atoms: S_6  and  N_9
REMARK    4  A    between atoms: N_9  and  C_10
REMARK    5  A    between atoms: C_10  and  C_11
REMARK    6  A    between atoms: C_10  and  C_12
REMARK    7  A    between atoms: C_12  and  O_14
REMARK    8  A    between atoms: O_14  and  C_15
REMARK    9  A    between atoms: C_15  and  C_16
REMARK   10  A    between atoms: C_28  and  C_29
REMARK   11  A    between atoms: C_28  and  C_30
REMARK                            x       y       z     vdW  Elec       q    Type
REMARK                         _______ _______ _______ _____ _____    ______ ____
ROOT
ATOM      1  O   UNL     1       0.712   8.010  21.235  0.00  0.00    +0.000 OA
ENDROOT
BRANCH   1   2
ATOM      2  C   UNL     1       1.105   9.043  21.999  0.00  0.00    +0.000 C 
ATOM      3  O   UNL     1       2.120   9.030  22.685  0.00  0.00    +0.000 OA
BRANCH   2   4
ATOM      4  C   UNL     1       0.144  10.216  21.869  0.00  0.00    +0.000 C 
ATOM      5  C   UNL     1      -0.785  10.180  23.088  0.00  0.00    +0.000 C 
BRANCH   4   6
ATOM      6  N   UNL     1      -0.713  10.255  20.658  0.00  0.00    +0.000 NA
ATOM      7  H   UNL     1      -0.534   9.548  19.945  0.00  0.00    +0.000 HD
BRANCH   6   8
ATOM      8  S   UNL     1      -1.262  11.680  19.951  0.00  0.00    +0.000 S 
ATOM      9  O   UNL     1      -0.054  12.392  19.583  0.00  0.00    +0.000 OA
ATOM     10  O   UNL     1      -2.274  12.333  20.744  0.00  0.00    +0.000 OA
BRANCH   8  15
ATOM     11  C   UNL     1      -3.440   9.748  14.658  0.00  0.00    +0.000 C 
ATOM     12  C   UNL     1      -2.965  10.257  15.985  0.00  0.00    +0.000 A 
ATOM     13  C   UNL     1      -2.438  11.550  16.107  0.00  0.00    +0.000 A 
ATOM     14  C   UNL     1      -1.980  12.007  17.341  0.00  0.00    +0.000 A 
ATOM     15  C   UNL     1      -2.063  11.171  18.460  0.00  0.00    +0.000 A 
ATOM     16  C   UNL     1      -2.571   9.878  18.351  0.00  0.00    +0.000 A 
ATOM     17  C   UNL     1      -3.024   9.425  17.113  0.00  0.00    +0.000 A 
ENDBRANCH   8  15
ENDBRANCH   6   8
ENDBRANCH   4   6
ENDBRANCH   2   4
ENDBRANCH   1   2
BRANCH   1  18
ATOM     18  C   UNL     1       1.729   7.067  20.928  0.00  0.00    +0.000 C 
BRANCH  18  19
ATOM     19  C   UNL     1       2.400   7.005  19.531  0.00  0.00    +0.000 C 
ATOM     20  O   UNL     1       2.476   8.047  18.880  0.00  0.00    +0.000 OA
ATOM     21  N   UNL     1       2.947   5.753  19.139  0.00  0.00    +0.000 N 
ATOM     22  C   UNL     1       3.896   5.672  18.012  0.00  0.00    +0.000 A 
ATOM     23  C   UNL     1       4.176   6.719  17.121  0.00  0.00    +0.000 A 
ATOM     24  C   UNL     1       5.077   6.564  16.051  0.00  0.00    +0.000 A 
ATOM     25  C   UNL     1       5.737   5.358  15.849  0.00  0.00    +0.000 A 
ATOM     26  C   UNL     1       5.516   4.315  16.734  0.00  0.00    +0.000 A 
ATOM     27  C   UNL     1       4.619   4.475  17.799  0.00  0.00    +0.000 A 
ATOM     28  N   UNL     1       4.513   3.409  18.684  0.00  0.00    +0.000 N 
ATOM     29  C   UNL     1       3.594   3.372  19.685  0.00  0.00    +0.000 C 
ATOM     30  O   UNL     1       3.649   2.454  20.502  0.00  0.00    +0.000 OA
ATOM     31  C   UNL     1       2.419   4.373  19.569  0.00  0.00    +0.000 C 
ATOM     32  C   UNL     1       1.455   3.863  18.466  0.00  0.00    +0.000 C 
ATOM     33  C   UNL     1       1.642   4.217  20.895  0.00  0.00    +0.000 C 
ATOM     34  H   UNL     1       5.179   2.650  18.662  0.00  0.00    +0.000 HD
ENDBRANCH  18  19
ENDBRANCH   1  18
TORSDOF 7
ENDMDL
