MODEL 1
REMARK VINA RESULT:      -8.5      0.000      0.000
REMARK  Name = 
REMARK  7 active torsions:
REMARK  status: ('A' for Active; 'I' for Inactive)
REMARK    1  A    between atoms: C_1  and  C_2
REMARK    2  A    between atoms: C_7  and  S_8
REMARK    3  A    between atoms: S_8  and  C_11
REMARK    4  A    between atoms: C_12  and  C_13
REMARK    5  A    between atoms: N_15  and  C_16
REMARK    6  A    between atoms: C_16  and  C_17
REMARK    7  A    between atoms: C_17  and  O_18
REMARK                            x       y       z     vdW  Elec       q    Type
REMARK                         _______ _______ _______ _____ _____    ______ ____
ROOT
ATOM      1  C   UNK     1       4.567   5.348  17.819  0.00  0.00    +0.000 A 
ATOM      2  C   UNK     1       5.126   5.855  16.646  0.00  0.00    +0.000 A 
ATOM      3  N   UNK     1       4.701   7.164  16.550  0.00  0.00    +0.000 N 
ATOM      4  C   UNK     1       3.758   7.456  17.500  0.00  0.00    +0.000 A 
ATOM      5  C   UNK     1       2.965   8.601  17.654  0.00  0.00    +0.000 A 
ATOM      6  C   UNK     1       2.062   8.626  18.719  0.00  0.00    +0.000 A 
ATOM      7  C   UNK     1       1.995   7.563  19.612  0.00  0.00    +0.000 A 
ATOM      8 CL   UNK     1       0.873   7.625  20.919  0.00  0.00    +0.000 Cl
ATOM      9  C   UNK     1       2.803   6.434  19.454  0.00  0.00    +0.000 A 
ATOM     10  C   UNK     1       3.688   6.357  18.355  0.00  0.00    +0.000 A 
ATOM     11  H   UNK     1       4.978   7.783  15.797  0.00  0.00    +0.000 HD
ENDROOT
BRANCH   2  12
ATOM     12  C   UNK     1       5.995   5.332  15.623  0.00  0.00    +0.000 C 
ATOM     13  O   UNK     1       7.169   5.699  15.538  0.00  0.00    +0.000 OA
ATOM     14  N   UNK     1       5.431   4.481  14.718  0.00  0.00    +0.000 N 
ATOM     15  H   UNK     1       4.439   4.268  14.744  0.00  0.00    +0.000 HD
BRANCH  14  16
ATOM     16  C   UNK     1       6.194   3.878  13.644  0.00  0.00    +0.000 C 
BRANCH  16  17
ATOM     17  C   UNK     1       5.265   3.391  12.539  0.00  0.00    +0.000 C 
BRANCH  17  18
ATOM     18  O   UNK     1       5.815   2.239  11.901  0.00  0.00    +0.000 OA
ATOM     19  H   UNK     1       5.881   2.436  10.950  0.00  0.00    +0.000 HD
ENDBRANCH  17  18
ENDBRANCH  16  17
ENDBRANCH  14  16
ENDBRANCH   2  12
BRANCH   1  20
ATOM     20  S   UNK     1       4.658   3.746  18.488  0.00  0.00    +0.000 S 
ATOM     21  O   UNK     1       5.813   3.881  19.352  0.00  0.00    +0.000 OA
ATOM     22  O   UNK     1       4.637   2.854  17.346  0.00  0.00    +0.000 OA
BRANCH  20  29
ATOM     23  C   UNK     1       1.597   3.597  17.495  0.00  0.00    +0.000 C 
ATOM     24  C   UNK     1       1.936   3.300  18.934  0.00  0.00    +0.000 A 
ATOM     25  C   UNK     1       0.864   3.021  19.801  0.00  0.00    +0.000 A 
ATOM     26  C   UNK     1       1.083   2.732  21.147  0.00  0.00    +0.000 A 
ATOM     27  C   UNK     1       2.375   2.737  21.660  0.00  0.00    +0.000 A 
ATOM     28  C   UNK     1       3.452   3.057  20.835  0.00  0.00    +0.000 A 
ATOM     29  C   UNK     1       3.243   3.327  19.475  0.00  0.00    +0.000 A 
ENDBRANCH  20  29
ENDBRANCH   1  20
TORSDOF 6
ENDMDL
MODEL 2
REMARK VINA RESULT:      -7.5      1.329      1.478
REMARK  Name = 
REMARK  7 active torsions:
REMARK  status: ('A' for Active; 'I' for Inactive)
REMARK    1  A    between atoms: C_1  and  C_2
REMARK    2  A    between atoms: C_7  and  S_8
REMARK    3  A    between atoms: S_8  and  C_11
REMARK    4  A    between atoms: C_12  and  C_13
REMARK    5  A    between atoms: N_15  and  C_16
REMARK    6  A    between atoms: C_16  and  C_17
REMARK    7  A    between atoms: C_17  and  O_18
REMARK                            x       y       z     vdW  Elec       q    Type
REMARK                         _______ _______ _______ _____ _____    ______ ____
ROOT
ATOM      1  C   UNK     1       3.987   6.292  18.217  0.00  0.00    +0.000 A 
ATOM      2  C   UNK     1       4.361   6.875  17.005  0.00  0.00    +0.000 A 
ATOM      3  N   UNK     1       3.735   8.104  16.959  0.00  0.00    +0.000 N 
ATOM      4  C   UNK     1       2.844   8.253  17.989  0.00  0.00    +0.000 A 
ATOM      5  C   UNK     1       1.904   9.265  18.221  0.00  0.00    +0.000 A 
ATOM      6  C   UNK     1       1.103   9.157  19.359  0.00  0.00    +0.000 A 
ATOM      7  C   UNK     1       1.273   8.099  20.245  0.00  0.00    +0.000 A 
ATOM      8 CL   UNK     1       0.272   7.995  21.643  0.00  0.00    +0.000 Cl
ATOM      9  C   UNK     1       2.226   7.104  20.007  0.00  0.00    +0.000 A 
ATOM     10  C   UNK     1       3.015   7.159  18.836  0.00  0.00    +0.000 A 
ATOM     11  H   UNK     1       3.850   8.755  16.191  0.00  0.00    +0.000 HD
ENDROOT
BRANCH   2  12
ATOM     12  C   UNK     1       5.207   6.486  15.907  0.00  0.00    +0.000 C 
ATOM     13  O   UNK     1       4.982   6.882  14.761  0.00  0.00    +0.000 OA
ATOM     14  N   UNK     1       6.209   5.603  16.189  0.00  0.00    +0.000 N 
ATOM     15  H   UNK     1       6.317   5.211  17.119  0.00  0.00    +0.000 HD
BRANCH  14  16
ATOM     16  C   UNK     1       7.135   5.137  15.178  0.00  0.00    +0.000 C 
BRANCH  16  17
ATOM     17  C   UNK     1       6.557   3.934  14.441  0.00  0.00    +0.000 C 
BRANCH  17  18
ATOM     18  O   UNK     1       6.022   2.993  15.370  0.00  0.00    +0.000 OA
ATOM     19  H   UNK     1       6.217   2.103  15.028  0.00  0.00    +0.000 HD
ENDBRANCH  17  18
ENDBRANCH  16  17
ENDBRANCH  14  16
ENDBRANCH   2  12
BRANCH   1  20
ATOM     20  S   UNK     1       4.376   4.725  18.860  0.00  0.00    +0.000 S 
ATOM     21  O   UNK     1       5.382   5.080  19.840  0.00  0.00    +0.000 OA
ATOM     22  O   UNK     1       4.668   3.901  17.705  0.00  0.00    +0.000 OA
BRANCH  20  29
ATOM     23  C   UNK     1       1.489   4.063  17.593  0.00  0.00    +0.000 C 
ATOM     24  C   UNK     1       1.775   3.720  19.033  0.00  0.00    +0.000 A 
ATOM     25  C   UNK     1       0.720   3.166  19.781  0.00  0.00    +0.000 A 
ATOM     26  C   UNK     1       0.893   2.816  21.120  0.00  0.00    +0.000 A 
ATOM     27  C   UNK     1       2.117   3.032  21.744  0.00  0.00    +0.000 A 
ATOM     28  C   UNK     1       3.164   3.622  21.040  0.00  0.00    +0.000 A 
ATOM     29  C   UNK     1       3.006   3.958  19.688  0.00  0.00    +0.000 A 
ENDBRANCH  20  29
ENDBRANCH   1  20
TORSDOF 6
ENDMDL
MODEL 3
REMARK VINA RESULT:      -7.5      3.306      5.979
REMARK  Name = 
REMARK  7 active torsions:
REMARK  status: ('A' for Active; 'I' for Inactive)
REMARK    1  A    between atoms: C_1  and  C_2
REMARK    2  A    between atoms: C_7  and  S_8
REMARK    3  A    between atoms: S_8  and  C_11
REMARK    4  A    between atoms: C_12  and  C_13
REMARK    5  A    between atoms: N_15  and  C_16
REMARK    6  A    between atoms: C_16  and  C_17
REMARK    7  A    between atoms: C_17  and  O_18
REMARK                            x       y       z     vdW  Elec       q    Type
REMARK                         _______ _______ _______ _____ _____    ______ ____
ROOT
ATOM      1  C   UNK     1       5.877   5.048  16.088  0.00  0.00    +0.000 A 
ATOM      2  C   UNK     1       6.970   5.861  16.390  0.00  0.00    +0.000 A 
ATOM      3  N   UNK     1       7.674   6.014  15.213  0.00  0.00    +0.000 N 
ATOM      4  C   UNK     1       7.187   5.197  14.227  0.00  0.00    +0.000 A 
ATOM      5  C   UNK     1       7.699   4.930  12.951  0.00  0.00    +0.000 A 
ATOM      6  C   UNK     1       6.995   4.031  12.146  0.00  0.00    +0.000 A 
ATOM      7  C   UNK     1       5.807   3.463  12.592  0.00  0.00    +0.000 A 
ATOM      8 CL   UNK     1       4.961   2.361  11.574  0.00  0.00    +0.000 Cl
ATOM      9  C   UNK     1       5.302   3.752  13.863  0.00  0.00    +0.000 A 
ATOM     10  C   UNK     1       6.020   4.616  14.720  0.00  0.00    +0.000 A 
ATOM     11  H   UNK     1       8.511   6.580  15.138  0.00  0.00    +0.000 HD
ENDROOT
BRANCH   2  12
ATOM     12  C   UNK     1       7.451   6.522  17.576  0.00  0.00    +0.000 C 
ATOM     13  O   UNK     1       7.412   5.963  18.674  0.00  0.00    +0.000 OA
ATOM     14  N   UNK     1       7.870   7.812  17.429  0.00  0.00    +0.000 N 
ATOM     15  H   UNK     1       7.801   8.289  16.536  0.00  0.00    +0.000 HD
BRANCH  14  16
ATOM     16  C   UNK     1       8.383   8.588  18.540  0.00  0.00    +0.000 C 
BRANCH  16  17
ATOM     17  C   UNK     1       8.637  10.029  18.111  0.00  0.00    +0.000 C 
BRANCH  17  18
ATOM     18  O   UNK     1       9.651  10.617  18.924  0.00  0.00    +0.000 OA
ATOM     19  H   UNK     1      10.484  10.585  18.420  0.00  0.00    +0.000 HD
ENDBRANCH  17  18
ENDBRANCH  16  17
ENDBRANCH  14  16
ENDBRANCH   2  12
BRANCH   1  20
ATOM     20  S   UNK     1       4.637   4.425  17.135  0.00  0.00    +0.000 S 
ATOM     21  O   UNK     1       5.441   3.733  18.121  0.00  0.00    +0.000 OA
ATOM     22  O   UNK     1       3.711   3.735  16.259  0.00  0.00    +0.000 OA
BRANCH  20  29
ATOM     23  C   UNK     1       2.898   4.129  19.831  0.00  0.00    +0.000 C 
ATOM     24  C   UNK     1       2.968   5.458  19.123  0.00  0.00    +0.000 A 
ATOM     25  C   UNK     1       2.206   6.511  19.660  0.00  0.00    +0.000 A 
ATOM     26  C   UNK     1       2.210   7.777  19.073  0.00  0.00    +0.000 A 
ATOM     27  C   UNK     1       2.960   8.009  17.926  0.00  0.00    +0.000 A 
ATOM     28  C   UNK     1       3.687   6.972  17.345  0.00  0.00    +0.000 A 
ATOM     29  C   UNK     1       3.705   5.703  17.940  0.00  0.00    +0.000 A 
ENDBRANCH  20  29
ENDBRANCH   1  20
TORSDOF 6
ENDMDL
MODEL 4
REMARK VINA RESULT:      -7.0      0.564      1.430
REMARK  Name = 
REMARK  7 active torsions:
REMARK  status: ('A' for Active; 'I' for Inactive)
REMARK    1  A    between atoms: C_1  and  C_2
REMARK    2  A    between atoms: C_7  and  S_8
REMARK    3  A    between atoms: S_8  and  C_11
REMARK    4  A    between atoms: C_12  and  C_13
REMARK    5  A    between atoms: N_15  and  C_16
REMARK    6  A    between atoms: C_16  and  C_17
REMARK    7  A    between atoms: C_17  and  O_18
REMARK                            x       y       z     vdW  Elec       q    Type
REMARK                         _______ _______ _______ _____ _____    ______ ____
ROOT
ATOM      1  C   UNK     1       4.638   5.318  17.526  0.00  0.00    +0.000 A 
ATOM      2  C   UNK     1       5.211   5.849  16.370  0.00  0.00    +0.000 A 
ATOM      3  N   UNK     1       4.829   7.175  16.325  0.00  0.00    +0.000 N 
ATOM      4  C   UNK     1       3.900   7.463  17.290  0.00  0.00    +0.000 A 
ATOM      5  C   UNK     1       3.148   8.627  17.490  0.00  0.00    +0.000 A 
ATOM      6  C   UNK     1       2.250   8.643  18.559  0.00  0.00    +0.000 A 
ATOM      7  C   UNK     1       2.149   7.551  19.413  0.00  0.00    +0.000 A 
ATOM      8 CL   UNK     1       1.034   7.602  20.725  0.00  0.00    +0.000 Cl
ATOM      9  C   UNK     1       2.917   6.401  19.209  0.00  0.00    +0.000 A 
ATOM     10  C   UNK     1       3.796   6.335  18.103  0.00  0.00    +0.000 A 
ATOM     11  H   UNK     1       5.125   7.811  15.595  0.00  0.00    +0.000 HD
ENDROOT
BRANCH   2  12
ATOM     12  C   UNK     1       6.057   5.336  15.325  0.00  0.00    +0.000 C 
ATOM     13  O   UNK     1       7.209   5.750  15.179  0.00  0.00    +0.000 OA
ATOM     14  N   UNK     1       5.493   4.436  14.467  0.00  0.00    +0.000 N 
ATOM     15  H   UNK     1       4.514   4.182  14.542  0.00  0.00    +0.000 HD
BRANCH  14  16
ATOM     16  C   UNK     1       6.237   3.837  13.378  0.00  0.00    +0.000 C 
BRANCH  16  17
ATOM     17  C   UNK     1       5.285   3.305  12.313  0.00  0.00    +0.000 C 
BRANCH  17  18
ATOM     18  O   UNK     1       5.783   2.085  11.767  0.00  0.00    +0.000 OA
ATOM     19  H   UNK     1       6.662   1.928  12.157  0.00  0.00    +0.000 HD
ENDBRANCH  17  18
ENDBRANCH  16  17
ENDBRANCH  14  16
ENDBRANCH   2  12
BRANCH   1  20
ATOM     20  S   UNK     1       4.676   3.690  18.135  0.00  0.00    +0.000 S 
ATOM     21  O   UNK     1       5.640   3.827  19.207  0.00  0.00    +0.000 OA
ATOM     22  O   UNK     1       4.912   2.855  16.974  0.00  0.00    +0.000 OA
BRANCH  20  29
ATOM     23  C   UNK     1       4.208   2.254  20.981  0.00  0.00    +0.000 C 
ATOM     24  C   UNK     1       3.034   2.539  20.080  0.00  0.00    +0.000 A 
ATOM     25  C   UNK     1       1.770   2.101  20.517  0.00  0.00    +0.000 A 
ATOM     26  C   UNK     1       0.626   2.323  19.750  0.00  0.00    +0.000 A 
ATOM     27  C   UNK     1       0.724   2.967  18.522  0.00  0.00    +0.000 A 
ATOM     28  C   UNK     1       1.970   3.369  18.043  0.00  0.00    +0.000 A 
ATOM     29  C   UNK     1       3.122   3.170  18.816  0.00  0.00    +0.000 A 
ENDBRANCH  20  29
ENDBRANCH   1  20
TORSDOF 6
ENDMDL
MODEL 5
REMARK VINA RESULT:      -6.7      2.892      5.020
REMARK  Name = 
REMARK  7 active torsions:
REMARK  status: ('A' for Active; 'I' for Inactive)
REMARK    1  A    between atoms: C_1  and  C_2
REMARK    2  A    between atoms: C_7  and  S_8
REMARK    3  A    between atoms: S_8  and  C_11
REMARK    4  A    between atoms: C_12  and  C_13
REMARK    5  A    between atoms: N_15  and  C_16
REMARK    6  A    between atoms: C_16  and  C_17
REMARK    7  A    between atoms: C_17  and  O_18
REMARK                            x       y       z     vdW  Elec       q    Type
REMARK                         _______ _______ _______ _____ _____    ______ ____
ROOT
ATOM      1  C   UNK     1       2.606   6.115  19.098  0.00  0.00    +0.000 A 
ATOM      2  C   UNK     1       2.437   5.303  20.220  0.00  0.00    +0.000 A 
ATOM      3  N   UNK     1       1.708   6.045  21.126  0.00  0.00    +0.000 N 
ATOM      4  C   UNK     1       1.563   7.343  20.712  0.00  0.00    +0.000 A 
ATOM      5  C   UNK     1       1.038   8.448  21.394  0.00  0.00    +0.000 A 
ATOM      6  C   UNK     1       1.026   9.675  20.726  0.00  0.00    +0.000 A 
ATOM      7  C   UNK     1       1.482   9.772  19.417  0.00  0.00    +0.000 A 
ATOM      8 CL   UNK     1       1.452  11.299  18.620  0.00  0.00    +0.000 Cl
ATOM      9  C   UNK     1       1.991   8.656  18.745  0.00  0.00    +0.000 A 
ATOM     10  C   UNK     1       2.065   7.413  19.413  0.00  0.00    +0.000 A 
ATOM     11  H   UNK     1       1.420   5.689  22.030  0.00  0.00    +0.000 HD
ENDROOT
BRANCH   2  12
ATOM     12  C   UNK     1       2.823   3.961  20.574  0.00  0.00    +0.000 C 
ATOM     13  O   UNK     1       2.473   3.462  21.646  0.00  0.00    +0.000 OA
ATOM     14  N   UNK     1       3.652   3.314  19.705  0.00  0.00    +0.000 N 
ATOM     15  H   UNK     1       4.011   3.778  18.877  0.00  0.00    +0.000 HD
BRANCH  14  16
ATOM     16  C   UNK     1       4.110   1.960  19.938  0.00  0.00    +0.000 C 
BRANCH  16  17
ATOM     17  C   UNK     1       3.814   1.082  18.727  0.00  0.00    +0.000 C 
BRANCH  17  18
ATOM     18  O   UNK     1       2.690   1.589  18.010  0.00  0.00    +0.000 OA
ATOM     19  H   UNK     1       2.715   1.201  17.117  0.00  0.00    +0.000 HD
ENDBRANCH  17  18
ENDBRANCH  16  17
ENDBRANCH  14  16
ENDBRANCH   2  12
BRANCH   1  20
ATOM     20  S   UNK     1       3.483   5.806  17.629  0.00  0.00    +0.000 S 
ATOM     21  O   UNK     1       3.317   7.072  16.946  0.00  0.00    +0.000 OA
ATOM     22  O   UNK     1       2.940   4.564  17.115  0.00  0.00    +0.000 OA
BRANCH  20  29
ATOM     23  C   UNK     1       5.599   4.627  15.504  0.00  0.00    +0.000 C 
ATOM     24  C   UNK     1       6.052   4.987  16.896  0.00  0.00    +0.000 A 
ATOM     25  C   UNK     1       7.397   4.731  17.219  0.00  0.00    +0.000 A 
ATOM     26  C   UNK     1       7.906   5.034  18.481  0.00  0.00    +0.000 A 
ATOM     27  C   UNK     1       7.075   5.580  19.454  0.00  0.00    +0.000 A 
ATOM     28  C   UNK     1       5.728   5.800  19.177  0.00  0.00    +0.000 A 
ATOM     29  C   UNK     1       5.213   5.518  17.904  0.00  0.00    +0.000 A 
ENDBRANCH  20  29
ENDBRANCH   1  20
TORSDOF 6
ENDMDL
MODEL 6
REMARK VINA RESULT:      -6.5      2.944      5.765
REMARK  Name = 
REMARK  7 active torsions:
REMARK  status: ('A' for Active; 'I' for Inactive)
REMARK    1  A    between atoms: C_1  and  C_2
REMARK    2  A    between atoms: C_7  and  S_8
REMARK    3  A    between atoms: S_8  and  C_11
REMARK    4  A    between atoms: C_12  and  C_13
REMARK    5  A    between atoms: N_15  and  C_16
REMARK    6  A    between atoms: C_16  and  C_17
REMARK    7  A    between atoms: C_17  and  O_18
REMARK                            x       y       z     vdW  Elec       q    Type
REMARK                         _______ _______ _______ _____ _____    ______ ____
ROOT
ATOM      1  C   UNK     1       2.692   4.319  19.219  0.00  0.00    +0.000 A 
ATOM      2  C   UNK     1       2.547   3.892  20.539  0.00  0.00    +0.000 A 
ATOM      3  N   UNK     1       2.028   4.964  21.236  0.00  0.00    +0.000 N 
ATOM      4  C   UNK     1       2.009   6.100  20.470  0.00  0.00    +0.000 A 
ATOM      5  C   UNK     1       1.713   7.420  20.831  0.00  0.00    +0.000 A 
ATOM      6  C   UNK     1       1.786   8.396  19.835  0.00  0.00    +0.000 A 
ATOM      7  C   UNK     1       2.100   8.049  18.527  0.00  0.00    +0.000 A 
ATOM      8 CL   UNK     1       2.179   9.275  17.320  0.00  0.00    +0.000 Cl
ATOM      9  C   UNK     1       2.378   6.724  18.178  0.00  0.00    +0.000 A 
ATOM     10  C   UNK     1       2.365   5.722  19.176  0.00  0.00    +0.000 A 
ATOM     11  H   UNK     1       1.801   4.926  22.223  0.00  0.00    +0.000 HD
ENDROOT
BRANCH   2  12
ATOM     12  C   UNK     1       2.792   2.660  21.244  0.00  0.00    +0.000 C 
ATOM     13  O   UNK     1       1.917   2.142  21.941  0.00  0.00    +0.000 OA
ATOM     14  N   UNK     1       4.055   2.150  21.162  0.00  0.00    +0.000 N 
ATOM     15  H   UNK     1       4.790   2.643  20.665  0.00  0.00    +0.000 HD
BRANCH  14  16
ATOM     16  C   UNK     1       4.432   0.914  21.817  0.00  0.00    +0.000 C 
BRANCH  16  17
ATOM     17  C   UNK     1       5.891   0.582  21.529  0.00  0.00    +0.000 C 
BRANCH  17  18
ATOM     18  O   UNK     1       6.701   0.880  22.665  0.00  0.00    +0.000 OA
ATOM     19  H   UNK     1       6.102   1.065  23.410  0.00  0.00    +0.000 HD
ENDBRANCH  17  18
ENDBRANCH  16  17
ENDBRANCH  14  16
ENDBRANCH   2  12
BRANCH   1  20
ATOM     20  S   UNK     1       3.348   3.476  17.847  0.00  0.00    +0.000 S 
ATOM     21  O   UNK     1       2.226   3.536  16.933  0.00  0.00    +0.000 OA
ATOM     22  O   UNK     1       3.858   2.227  18.376  0.00  0.00    +0.000 OA
BRANCH  20  29
ATOM     23  C   UNK     1       5.790   4.876  19.415  0.00  0.00    +0.000 C 
ATOM     24  C   UNK     1       5.750   4.901  17.909  0.00  0.00    +0.000 A 
ATOM     25  C   UNK     1       6.780   5.601  17.252  0.00  0.00    +0.000 A 
ATOM     26  C   UNK     1       6.826   5.676  15.860  0.00  0.00    +0.000 A 
ATOM     27  C   UNK     1       5.834   5.071  15.097  0.00  0.00    +0.000 A 
ATOM     28  C   UNK     1       4.777   4.412  15.721  0.00  0.00    +0.000 A 
ATOM     29  C   UNK     1       4.734   4.313  17.119  0.00  0.00    +0.000 A 
ENDBRANCH  20  29
ENDBRANCH   1  20
TORSDOF 6
ENDMDL
MODEL 7
REMARK VINA RESULT:      -6.5      8.350     11.434
REMARK  Name = 
REMARK  7 active torsions:
REMARK  status: ('A' for Active; 'I' for Inactive)
REMARK    1  A    between atoms: C_1  and  C_2
REMARK    2  A    between atoms: C_7  and  S_8
REMARK    3  A    between atoms: S_8  and  C_11
REMARK    4  A    between atoms: C_12  and  C_13
REMARK    5  A    between atoms: N_15  and  C_16
REMARK    6  A    between atoms: C_16  and  C_17
REMARK    7  A    between atoms: C_17  and  O_18
REMARK                            x       y       z     vdW  Elec       q    Type
REMARK                         _______ _______ _______ _____ _____    ______ ____
ROOT
ATOM      1  C   UNK     1      -1.135  11.935  21.244  0.00  0.00    +0.000 A 
ATOM      2  C   UNK     1      -1.556  11.860  22.573  0.00  0.00    +0.000 A 
ATOM      3  N   UNK     1      -0.852  10.818  23.141  0.00  0.00    +0.000 N 
ATOM      4  C   UNK     1      -0.146  10.115  22.200  0.00  0.00    +0.000 A 
ATOM      5  C   UNK     1       0.562   8.914  22.324  0.00  0.00    +0.000 A 
ATOM      6  C   UNK     1       1.186   8.409  21.181  0.00  0.00    +0.000 A 
ATOM      7  C   UNK     1       1.133   9.107  19.980  0.00  0.00    +0.000 A 
ATOM      8 CL   UNK     1       1.914   8.459  18.588  0.00  0.00    +0.000 Cl
ATOM      9  C   UNK     1       0.434  10.313  19.876  0.00  0.00    +0.000 A 
ATOM     10  C   UNK     1      -0.252  10.822  21.003  0.00  0.00    +0.000 A 
ATOM     11  H   UNK     1      -0.946  10.552  24.114  0.00  0.00    +0.000 HD
ENDROOT
BRANCH   2  12
ATOM     12  C   UNK     1      -2.480  12.601  23.392  0.00  0.00    +0.000 C 
ATOM     13  O   UNK     1      -2.211  13.738  23.783  0.00  0.00    +0.000 OA
ATOM     14  N   UNK     1      -3.618  11.950  23.770  0.00  0.00    +0.000 N 
ATOM     15  H   UNK     1      -3.777  10.979  23.521  0.00  0.00    +0.000 HD
BRANCH  14  16
ATOM     16  C   UNK     1      -4.633  12.583  24.588  0.00  0.00    +0.000 C 
BRANCH  16  17
ATOM     17  C   UNK     1      -5.810  13.027  23.726  0.00  0.00    +0.000 C 
BRANCH  17  18
ATOM     18  O   UNK     1      -6.904  13.427  24.550  0.00  0.00    +0.000 OA
ATOM     19  H   UNK     1      -6.996  12.762  25.256  0.00  0.00    +0.000 HD
ENDBRANCH  17  18
ENDBRANCH  16  17
ENDBRANCH  14  16
ENDBRANCH   2  12
BRANCH   1  20
ATOM     20  S   UNK     1      -1.674  12.986  19.969  0.00  0.00    +0.000 S 
ATOM     21  O   UNK     1      -0.405  13.392  19.401  0.00  0.00    +0.000 OA
ATOM     22  O   UNK     1      -2.581  13.921  20.604  0.00  0.00    +0.000 OA
BRANCH  20  29
ATOM     23  C   UNK     1      -4.825  12.321  20.071  0.00  0.00    +0.000 C 
ATOM     24  C   UNK     1      -4.004  11.893  18.881  0.00  0.00    +0.000 A 
ATOM     25  C   UNK     1      -4.663  11.158  17.878  0.00  0.00    +0.000 A 
ATOM     26  C   UNK     1      -3.985  10.723  16.740  0.00  0.00    +0.000 A 
ATOM     27  C   UNK     1      -2.629  10.994  16.591  0.00  0.00    +0.000 A 
ATOM     28  C   UNK     1      -1.940  11.679  17.591  0.00  0.00    +0.000 A 
ATOM     29  C   UNK     1      -2.619  12.139  18.728  0.00  0.00    +0.000 A 
ENDBRANCH  20  29
ENDBRANCH   1  20
TORSDOF 6
ENDMDL
MODEL 8
REMARK VINA RESULT:      -6.5      7.075      9.999
REMARK  Name = 
REMARK  7 active torsions:
REMARK  status: ('A' for Active; 'I' for Inactive)
REMARK    1  A    between atoms: C_1  and  C_2
REMARK    2  A    between atoms: C_7  and  S_8
REMARK    3  A    between atoms: S_8  and  C_11
REMARK    4  A    between atoms: C_12  and  C_13
REMARK    5  A    between atoms: N_15  and  C_16
REMARK    6  A    between atoms: C_16  and  C_17
REMARK    7  A    between atoms: C_17  and  O_18
REMARK                            x       y       z     vdW  Elec       q    Type
REMARK                         _______ _______ _______ _____ _____    ______ ____
ROOT
ATOM      1  C   UNK     1      -0.944  12.017  19.737  0.00  0.00    +0.000 A 
ATOM      2  C   UNK     1      -1.644  12.741  20.703  0.00  0.00    +0.000 A 
ATOM      3  N   UNK     1      -2.983  12.568  20.419  0.00  0.00    +0.000 N 
ATOM      4  C   UNK     1      -3.164  11.925  19.223  0.00  0.00    +0.000 A 
ATOM      5  C   UNK     1      -4.340  11.693  18.499  0.00  0.00    +0.000 A 
ATOM      6  C   UNK     1      -4.230  11.015  17.283  0.00  0.00    +0.000 A 
ATOM      7  C   UNK     1      -2.996  10.554  16.841  0.00  0.00    +0.000 A 
ATOM      8 CL   UNK     1      -2.893   9.718  15.338  0.00  0.00    +0.000 Cl
ATOM      9  C   UNK     1      -1.833  10.780  17.582  0.00  0.00    +0.000 A 
ATOM     10  C   UNK     1      -1.905  11.510  18.790  0.00  0.00    +0.000 A 
ATOM     11  H   UNK     1      -3.725  12.970  20.981  0.00  0.00    +0.000 HD
ENDROOT
BRANCH   2  12
ATOM     12  C   UNK     1      -1.275  13.542  21.841  0.00  0.00    +0.000 C 
ATOM     13  O   UNK     1      -1.588  13.204  22.985  0.00  0.00    +0.000 OA
ATOM     14  N   UNK     1      -0.638  14.721  21.579  0.00  0.00    +0.000 N 
ATOM     15  H   UNK     1      -0.478  15.031  20.626  0.00  0.00    +0.000 HD
BRANCH  14  16
ATOM     16  C   UNK     1      -0.206  15.616  22.632  0.00  0.00    +0.000 C 
BRANCH  16  17
ATOM     17  C   UNK     1       1.276  15.938  22.484  0.00  0.00    +0.000 C 
BRANCH  17  18
ATOM     18  O   UNK     1       2.032  14.736  22.339  0.00  0.00    +0.000 OA
ATOM     19  H   UNK     1       2.808  14.944  21.790  0.00  0.00    +0.000 HD
ENDBRANCH  17  18
ENDBRANCH  16  17
ENDBRANCH  14  16
ENDBRANCH   2  12
BRANCH   1  20
ATOM     20  S   UNK     1       0.770  11.870  19.489  0.00  0.00    +0.000 S 
ATOM     21  O   UNK     1       1.268  12.338  20.767  0.00  0.00    +0.000 OA
ATOM     22  O   UNK     1       1.037  12.564  18.246  0.00  0.00    +0.000 OA
BRANCH  20  29
ATOM     23  C   UNK     1       0.535   9.455  21.609  0.00  0.00    +0.000 C 
ATOM     24  C   UNK     1       1.146   9.209  20.253  0.00  0.00    +0.000 A 
ATOM     25  C   UNK     1       1.643   7.917  20.000  0.00  0.00    +0.000 A 
ATOM     26  C   UNK     1       2.223   7.597  18.772  0.00  0.00    +0.000 A 
ATOM     27  C   UNK     1       2.336   8.565  17.781  0.00  0.00    +0.000 A 
ATOM     28  C   UNK     1       1.895   9.865  18.022  0.00  0.00    +0.000 A 
ATOM     29  C   UNK     1       1.291  10.190  19.245  0.00  0.00    +0.000 A 
ENDBRANCH  20  29
ENDBRANCH   1  20
TORSDOF 6
ENDMDL
MODEL 9
REMARK VINA RESULT:      -6.5      7.834     10.875
REMARK  Name = 
REMARK  7 active torsions:
REMARK  status: ('A' for Active; 'I' for Inactive)
REMARK    1  A    between atoms: C_1  and  C_2
REMARK    2  A    between atoms: C_7  and  S_8
REMARK    3  A    between atoms: S_8  and  C_11
REMARK    4  A    between atoms: C_12  and  C_13
REMARK    5  A    between atoms: N_15  and  C_16
REMARK    6  A    between atoms: C_16  and  C_17
REMARK    7  A    between atoms: C_17  and  O_18
REMARK                            x       y       z     vdW  Elec       q    Type
REMARK                         _______ _______ _______ _____ _____    ______ ____
ROOT
ATOM      1  C   UNK     1      -1.533  12.104  20.275  0.00  0.00    +0.000 A 
ATOM      2  C   UNK     1      -2.381  12.530  21.298  0.00  0.00    +0.000 A 
ATOM      3  N   UNK     1      -3.667  12.365  20.827  0.00  0.00    +0.000 N 
ATOM      4  C   UNK     1      -3.676  12.031  19.498  0.00  0.00    +0.000 A 
ATOM      5  C   UNK     1      -4.752  11.928  18.607  0.00  0.00    +0.000 A 
ATOM      6  C   UNK     1      -4.468  11.579  17.285  0.00  0.00    +0.000 A 
ATOM      7  C   UNK     1      -3.163  11.304  16.892  0.00  0.00    +0.000 A 
ATOM      8 CL   UNK     1      -2.845  10.873  15.255  0.00  0.00    +0.000 Cl
ATOM      9  C   UNK     1      -2.102  11.398  17.796  0.00  0.00    +0.000 A 
ATOM     10  C   UNK     1      -2.352  11.801  19.128  0.00  0.00    +0.000 A 
ATOM     11  H   UNK     1      -4.490  12.578  21.378  0.00  0.00    +0.000 HD
ENDROOT
BRANCH   2  12
ATOM     12  C   UNK     1      -2.191  13.041  22.631  0.00  0.00    +0.000 C 
ATOM     13  O   UNK     1      -2.549  12.393  23.617  0.00  0.00    +0.000 OA
ATOM     14  N   UNK     1      -1.674  14.299  22.735  0.00  0.00    +0.000 N 
ATOM     15  H   UNK     1      -1.478  14.857  21.911  0.00  0.00    +0.000 HD
BRANCH  14  16
ATOM     16  C   UNK     1      -1.426  14.928  24.016  0.00  0.00    +0.000 C 
BRANCH  16  17
ATOM     17  C   UNK     1      -2.688  15.616  24.525  0.00  0.00    +0.000 C 
BRANCH  17  18
ATOM     18  O   UNK     1      -3.392  14.759  25.422  0.00  0.00    +0.000 OA
ATOM     19  H   UNK     1      -2.768  14.075  25.723  0.00  0.00    +0.000 HD
ENDBRANCH  17  18
ENDBRANCH  16  17
ENDBRANCH  14  16
ENDBRANCH   2  12
BRANCH   1  20
ATOM     20  S   UNK     1       0.204  12.109  20.200  0.00  0.00    +0.000 S 
ATOM     21  O   UNK     1       0.532  12.310  21.597  0.00  0.00    +0.000 OA
ATOM     22  O   UNK     1       0.539  13.074  19.173  0.00  0.00    +0.000 OA
BRANCH  20  29
ATOM     23  C   UNK     1       0.222   9.347  21.858  0.00  0.00    +0.000 C 
ATOM     24  C   UNK     1       0.836   9.402  20.483  0.00  0.00    +0.000 A 
ATOM     25  C   UNK     1       1.449   8.229  20.007  0.00  0.00    +0.000 A 
ATOM     26  C   UNK     1       2.042   8.186  18.745  0.00  0.00    +0.000 A 
ATOM     27  C   UNK     1       2.051   9.321  17.941  0.00  0.00    +0.000 A 
ATOM     28  C   UNK     1       1.493  10.510  18.406  0.00  0.00    +0.000 A 
ATOM     29  C   UNK     1       0.877  10.556  19.665  0.00  0.00    +0.000 A 
ENDBRANCH  20  29
ENDBRANCH   1  20
TORSDOF 6
ENDMDL
