MODEL 1
REMARK VINA RESULT:      -7.7      0.000      0.000
REMARK  Name = 
REMARK  12 active torsions:
REMARK  status: ('A' for Active; 'I' for Inactive)
REMARK    1  A    between atoms: C_1  and  C_2
REMARK    2  A    between atoms: C_2  and  C_3
REMARK    3  A    between atoms: C_3  and  C_4
REMARK    4  A    between atoms: C_4  and  C_5
REMARK    5  A    between atoms: C_4  and  N_7
REMARK    6  A    between atoms: C_5  and  O_6
REMARK    7  A    between atoms: C_9  and  C_10
REMARK    8  A    between atoms: C_10  and  O_12
REMARK    9  A    between atoms: C_17  and  C_18
REMARK   10  A    between atoms: C_18  and  C_19
REMARK   11  A    between atoms: C_27  and  O_28
REMARK   12  A    between atoms: O_28  and  C_29
REMARK                            x       y       z     vdW  Elec       q    Type
REMARK                         _______ _______ _______ _____ _____    ______ ____
ROOT
ATOM      1  N   UNL     1       2.751   6.153  18.950  0.00  0.00    +0.000 N 
ATOM      2  C   UNL     1       1.835   5.162  19.297  0.00  0.00    +0.000 A 
ATOM      3  C   UNL     1       1.978   3.842  19.099  0.00  0.00    +0.000 A 
ATOM      4  C   UNL     1       3.224   3.400  18.447  0.00  0.00    +0.000 A 
ATOM      5  O   UNL     1       3.418   2.204  18.236  0.00  0.00    +0.000 OA
ATOM      6  C   UNL     1       4.201   4.421  18.041  0.00  0.00    +0.000 A 
ATOM      7  C   UNL     1       5.356   4.021  17.368  0.00  0.00    +0.000 A 
ATOM      8  C   UNL     1       6.268   4.976  16.922  0.00  0.00    +0.000 A 
ATOM      9  C   UNL     1       5.977   6.303  17.236  0.00  0.00    +0.000 A 
ATOM     10  N   UNL     1       4.856   6.699  17.900  0.00  0.00    +0.000 NA
ATOM     11  C   UNL     1       3.953   5.775  18.291  0.00  0.00    +0.000 A 
ENDROOT
BRANCH   3  12
ATOM     12  C   UNL     1       0.908   2.904  19.503  0.00  0.00    +0.000 C 
ATOM     13  O   UNL     1       0.275   2.228  18.707  0.00  0.00    +0.000 OA
BRANCH  12  14
ATOM     14  O   UNL     1       0.685   2.841  20.832  0.00  0.00    +0.000 OA
ATOM     15  H   UNL     1       1.348   3.333  21.384  0.00  0.00    +0.000 HD
ENDBRANCH  12  14
ENDBRANCH   3  12
BRANCH   9  16
ATOM     16  O   UNL     1       6.865   7.278  16.823  0.00  0.00    +0.000 OA
ATOM     17  C   UNL     1       7.754   7.700  17.859  0.00  0.00    +0.000 C 
ENDBRANCH   9  16
BRANCH   1  18
ATOM     18  C   UNL     1       2.485   7.624  19.097  0.00  0.00    +0.000 C 
BRANCH  18  19
ATOM     19  C   UNL     1       1.999   8.216  17.751  0.00  0.00    +0.000 C 
BRANCH  19  21
ATOM     20  C   UNL     1       1.898  10.732  18.013  0.00  0.00    +0.000 C 
ATOM     21  C   UNL     1       1.093   9.445  17.902  0.00  0.00    +0.000 C 
ENDBRANCH  19  21
ENDBRANCH  18  19
BRANCH  18  22
ATOM     22  C   UNL     1       1.473   7.881  20.240  0.00  0.00    +0.000 C 
BRANCH  22  23
ATOM     23  O   UNL     1       2.122   8.314  21.433  0.00  0.00    +0.000 OA
ATOM     24  H   UNL     1       1.518   8.104  22.169  0.00  0.00    +0.000 HD
ENDBRANCH  22  23
ENDBRANCH  18  22
ENDBRANCH   1  18
BRANCH   8  25
ATOM     25  C   UNL     1       7.452   4.526  16.101  0.00  0.00    +0.000 C 
BRANCH  25  26
ATOM     26  C   UNL     1       7.257   4.576  14.606  0.00  0.00    +0.000 A 
ATOM     27  C   UNL     1       7.997   5.477  13.828  0.00  0.00    +0.000 A 
ATOM     28  C   UNL     1       7.833   5.525  12.441  0.00  0.00    +0.000 A 
ATOM     29  C   UNL     1       6.926   4.673  11.811  0.00  0.00    +0.000 A 
ATOM     30  C   UNL     1       6.166   3.788  12.574  0.00  0.00    +0.000 A 
ATOM     31 CL   UNL     1       5.034   2.755  11.787  0.00  0.00    +0.000 Cl
ATOM     32  C   UNL     1       6.327   3.745  13.961  0.00  0.00    +0.000 A 
ATOM     33  F   UNL     1       5.577   2.908  14.696  0.00  0.00    +0.000 F 
ENDBRANCH  25  26
ENDBRANCH   8  25
TORSDOF 10
ENDMDL
MODEL 2
REMARK VINA RESULT:      -7.6      4.317      7.966
REMARK  Name = 
REMARK  12 active torsions:
REMARK  status: ('A' for Active; 'I' for Inactive)
REMARK    1  A    between atoms: C_1  and  C_2
REMARK    2  A    between atoms: C_2  and  C_3
REMARK    3  A    between atoms: C_3  and  C_4
REMARK    4  A    between atoms: C_4  and  C_5
REMARK    5  A    between atoms: C_4  and  N_7
REMARK    6  A    between atoms: C_5  and  O_6
REMARK    7  A    between atoms: C_9  and  C_10
REMARK    8  A    between atoms: C_10  and  O_12
REMARK    9  A    between atoms: C_17  and  C_18
REMARK   10  A    between atoms: C_18  and  C_19
REMARK   11  A    between atoms: C_27  and  O_28
REMARK   12  A    between atoms: O_28  and  C_29
REMARK                            x       y       z     vdW  Elec       q    Type
REMARK                         _______ _______ _______ _____ _____    ______ ____
ROOT
ATOM      1  N   UNL     1       3.112   5.158  19.535  0.00  0.00    +0.000 N 
ATOM      2  C   UNL     1       3.980   4.598  18.599  0.00  0.00    +0.000 A 
ATOM      3  C   UNL     1       4.486   5.211  17.518  0.00  0.00    +0.000 A 
ATOM      4  C   UNL     1       4.083   6.611  17.299  0.00  0.00    +0.000 A 
ATOM      5  O   UNL     1       4.511   7.231  16.326  0.00  0.00    +0.000 OA
ATOM      6  C   UNL     1       3.146   7.226  18.250  0.00  0.00    +0.000 A 
ATOM      7  C   UNL     1       2.708   8.531  18.021  0.00  0.00    +0.000 A 
ATOM      8  C   UNL     1       1.775   9.113  18.877  0.00  0.00    +0.000 A 
ATOM      9  C   UNL     1       1.373   8.344  19.968  0.00  0.00    +0.000 A 
ATOM     10  N   UNL     1       1.803   7.074  20.203  0.00  0.00    +0.000 NA
ATOM     11  C   UNL     1       2.671   6.497  19.346  0.00  0.00    +0.000 A 
ENDROOT
BRANCH   3  12
ATOM     12  C   UNL     1       5.385   4.481  16.596  0.00  0.00    +0.000 C 
ATOM     13  O   UNL     1       6.478   4.050  16.929  0.00  0.00    +0.000 OA
BRANCH  12  14
ATOM     14  O   UNL     1       4.899   4.314  15.348  0.00  0.00    +0.000 OA
ATOM     15  H   UNL     1       4.629   3.383  15.133  0.00  0.00    +0.000 HD
ENDBRANCH  12  14
ENDBRANCH   3  12
BRANCH   9  16
ATOM     16  O   UNL     1       0.459   8.893  20.847  0.00  0.00    +0.000 OA
ATOM     17  C   UNL     1       1.012   9.148  22.140  0.00  0.00    +0.000 C 
ENDBRANCH   9  16
BRANCH   1  18
ATOM     18  C   UNL     1       2.491   4.386  20.663  0.00  0.00    +0.000 C 
BRANCH  18  19
ATOM     19  C   UNL     1       1.017   4.046  20.330  0.00  0.00    +0.000 C 
BRANCH  19  21
ATOM     20  C   UNL     1       0.852   1.990  18.861  0.00  0.00    +0.000 C 
ATOM     21  C   UNL     1       0.808   3.511  18.907  0.00  0.00    +0.000 C 
ENDBRANCH  19  21
ENDBRANCH  18  19
BRANCH  18  22
ATOM     22  C   UNL     1       3.320   3.117  20.974  0.00  0.00    +0.000 C 
BRANCH  22  23
ATOM     23  O   UNL     1       2.779   2.389  22.075  0.00  0.00    +0.000 OA
ATOM     24  H   UNL     1       3.467   2.380  22.766  0.00  0.00    +0.000 HD
ENDBRANCH  22  23
ENDBRANCH  18  22
ENDBRANCH   1  18
BRANCH   8  25
ATOM     25  C   UNL     1       1.235  10.483  18.544  0.00  0.00    +0.000 C 
BRANCH  25  26
ATOM     26  C   UNL     1      -0.259  10.559  18.353  0.00  0.00    +0.000 A 
ATOM     27  C   UNL     1      -0.887   9.761  17.386  0.00  0.00    +0.000 A 
ATOM     28  C   UNL     1      -2.272   9.815  17.206  0.00  0.00    +0.000 A 
ATOM     29  C   UNL     1      -3.049  10.667  17.991  0.00  0.00    +0.000 A 
ATOM     30  C   UNL     1      -2.436  11.484  18.939  0.00  0.00    +0.000 A 
ATOM     31 CL   UNL     1      -3.405  12.547  19.887  0.00  0.00    +0.000 Cl
ATOM     32  C   UNL     1      -1.052  11.432  19.114  0.00  0.00    +0.000 A 
ATOM     33  F   UNL     1      -0.460  12.238  20.012  0.00  0.00    +0.000 F 
ENDBRANCH  25  26
ENDBRANCH   8  25
TORSDOF 10
ENDMDL
MODEL 3
REMARK VINA RESULT:      -7.6      3.863      7.706
REMARK  Name = 
REMARK  12 active torsions:
REMARK  status: ('A' for Active; 'I' for Inactive)
REMARK    1  A    between atoms: C_1  and  C_2
REMARK    2  A    between atoms: C_2  and  C_3
REMARK    3  A    between atoms: C_3  and  C_4
REMARK    4  A    between atoms: C_4  and  C_5
REMARK    5  A    between atoms: C_4  and  N_7
REMARK    6  A    between atoms: C_5  and  O_6
REMARK    7  A    between atoms: C_9  and  C_10
REMARK    8  A    between atoms: C_10  and  O_12
REMARK    9  A    between atoms: C_17  and  C_18
REMARK   10  A    between atoms: C_18  and  C_19
REMARK   11  A    between atoms: C_27  and  O_28
REMARK   12  A    between atoms: O_28  and  C_29
REMARK                            x       y       z     vdW  Elec       q    Type
REMARK                         _______ _______ _______ _____ _____    ______ ____
ROOT
ATOM      1  N   UNL     1       3.941   4.583  18.341  0.00  0.00    +0.000 N 
ATOM      2  C   UNL     1       4.845   4.160  17.368  0.00  0.00    +0.000 A 
ATOM      3  C   UNL     1       5.392   4.920  16.406  0.00  0.00    +0.000 A 
ATOM      4  C   UNL     1       4.995   6.339  16.376  0.00  0.00    +0.000 A 
ATOM      5  O   UNL     1       5.460   7.091  15.520  0.00  0.00    +0.000 OA
ATOM      6  C   UNL     1       4.021   6.814  17.370  0.00  0.00    +0.000 A 
ATOM      7  C   UNL     1       3.591   8.141  17.314  0.00  0.00    +0.000 A 
ATOM      8  C   UNL     1       2.625   8.597  18.209  0.00  0.00    +0.000 A 
ATOM      9  C   UNL     1       2.181   7.680  19.161  0.00  0.00    +0.000 A 
ATOM     10  N   UNL     1       2.604   6.388  19.227  0.00  0.00    +0.000 NA
ATOM     11  C   UNL     1       3.506   5.937  18.330  0.00  0.00    +0.000 A 
ENDROOT
BRANCH   3  12
ATOM     12  C   UNL     1       6.327   4.327  15.424  0.00  0.00    +0.000 C 
ATOM     13  O   UNL     1       5.982   3.515  14.580  0.00  0.00    +0.000 OA
BRANCH  12  14
ATOM     14  O   UNL     1       7.599   4.763  15.522  0.00  0.00    +0.000 OA
ATOM     15  H   UNL     1       8.200   4.166  16.042  0.00  0.00    +0.000 HD
ENDBRANCH  12  14
ENDBRANCH   3  12
BRANCH   9  16
ATOM     16  O   UNL     1       1.234   8.101  20.075  0.00  0.00    +0.000 OA
ATOM     17  C   UNL     1       1.660   7.950  21.431  0.00  0.00    +0.000 C 
ENDBRANCH   9  16
BRANCH   1  18
ATOM     18  C   UNL     1       3.278   3.659  19.321  0.00  0.00    +0.000 C 
BRANCH  18  19
ATOM     19  C   UNL     1       2.124   2.889  18.633  0.00  0.00    +0.000 C 
BRANCH  19  21
ATOM     20  C   UNL     1       1.003   3.473  20.827  0.00  0.00    +0.000 C 
ATOM     21  C   UNL     1       0.820   2.868  19.442  0.00  0.00    +0.000 C 
ENDBRANCH  19  21
ENDBRANCH  18  19
BRANCH  18  22
ATOM     22  C   UNL     1       4.317   2.700  19.952  0.00  0.00    +0.000 C 
BRANCH  22  23
ATOM     23  O   UNL     1       4.348   1.441  19.284  0.00  0.00    +0.000 OA
ATOM     24  H   UNL     1       4.943   0.868  19.801  0.00  0.00    +0.000 HD
ENDBRANCH  22  23
ENDBRANCH  18  22
ENDBRANCH   1  18
BRANCH   8  25
ATOM     25  C   UNL     1       2.096  10.003  18.056  0.00  0.00    +0.000 C 
BRANCH  25  26
ATOM     26  C   UNL     1       0.602  10.150  18.206  0.00  0.00    +0.000 A 
ATOM     27  C   UNL     1      -0.263   9.524  17.298  0.00  0.00    +0.000 A 
ATOM     28  C   UNL     1      -1.649   9.645  17.433  0.00  0.00    +0.000 A 
ATOM     29  C   UNL     1      -2.190  10.394  18.478  0.00  0.00    +0.000 A 
ATOM     30  C   UNL     1      -1.343  11.041  19.375  0.00  0.00    +0.000 A 
ATOM     31 CL   UNL     1      -2.024  11.980  20.649  0.00  0.00    +0.000 Cl
ATOM     32  C   UNL     1       0.042  10.924  19.235  0.00  0.00    +0.000 A 
ATOM     33  F   UNL     1       0.857  11.569  20.086  0.00  0.00    +0.000 F 
ENDBRANCH  25  26
ENDBRANCH   8  25
TORSDOF 10
ENDMDL
MODEL 4
REMARK VINA RESULT:      -7.4      1.168      1.468
REMARK  Name = 
REMARK  12 active torsions:
REMARK  status: ('A' for Active; 'I' for Inactive)
REMARK    1  A    between atoms: C_1  and  C_2
REMARK    2  A    between atoms: C_2  and  C_3
REMARK    3  A    between atoms: C_3  and  C_4
REMARK    4  A    between atoms: C_4  and  C_5
REMARK    5  A    between atoms: C_4  and  N_7
REMARK    6  A    between atoms: C_5  and  O_6
REMARK    7  A    between atoms: C_9  and  C_10
REMARK    8  A    between atoms: C_10  and  O_12
REMARK    9  A    between atoms: C_17  and  C_18
REMARK   10  A    between atoms: C_18  and  C_19
REMARK   11  A    between atoms: C_27  and  O_28
REMARK   12  A    between atoms: O_28  and  C_29
REMARK                            x       y       z     vdW  Elec       q    Type
REMARK                         _______ _______ _______ _____ _____    ______ ____
ROOT
ATOM      1  N   UNL     1       2.680   6.090  19.032  0.00  0.00    +0.000 N 
ATOM      2  C   UNL     1       1.794   5.076  19.394  0.00  0.00    +0.000 A 
ATOM      3  C   UNL     1       1.932   3.768  19.130  0.00  0.00    +0.000 A 
ATOM      4  C   UNL     1       3.135   3.365  18.382  0.00  0.00    +0.000 A 
ATOM      5  O   UNL     1       3.322   2.180  18.107  0.00  0.00    +0.000 OA
ATOM      6  C   UNL     1       4.078   4.411  17.957  0.00  0.00    +0.000 A 
ATOM      7  C   UNL     1       5.189   4.050  17.195  0.00  0.00    +0.000 A 
ATOM      8  C   UNL     1       6.064   5.031  16.732  0.00  0.00    +0.000 A 
ATOM      9  C   UNL     1       5.786   6.341  17.121  0.00  0.00    +0.000 A 
ATOM     10  N   UNL     1       4.708   6.698  17.872  0.00  0.00    +0.000 NA
ATOM     11  C   UNL     1       3.839   5.751  18.280  0.00  0.00    +0.000 A 
ENDROOT
BRANCH   3  12
ATOM     12  C   UNL     1       0.896   2.804  19.563  0.00  0.00    +0.000 C 
ATOM     13  O   UNL     1       0.253   2.118  18.782  0.00  0.00    +0.000 OA
BRANCH  12  14
ATOM     14  O   UNL     1       0.718   2.727  20.898  0.00  0.00    +0.000 OA
ATOM     15  H   UNL     1       1.337   2.103  21.360  0.00  0.00    +0.000 HD
ENDBRANCH  12  14
ENDBRANCH   3  12
BRANCH   9  16
ATOM     16  O   UNL     1       6.639   7.340  16.693  0.00  0.00    +0.000 OA
ATOM     17  C   UNL     1       7.630   7.682  17.664  0.00  0.00    +0.000 C 
ENDBRANCH   9  16
BRANCH   1  18
ATOM     18  C   UNL     1       2.414   7.550  19.258  0.00  0.00    +0.000 C 
BRANCH  18  19
ATOM     19  C   UNL     1       1.877   8.203  17.961  0.00  0.00    +0.000 C 
BRANCH  19  21
ATOM     20  C   UNL     1       0.677  10.390  18.398  0.00  0.00    +0.000 C 
ATOM     21  C   UNL     1       1.975   9.734  17.947  0.00  0.00    +0.000 C 
ENDBRANCH  19  21
ENDBRANCH  18  19
BRANCH  18  22
ATOM     22  C   UNL     1       1.444   7.748  20.449  0.00  0.00    +0.000 C 
BRANCH  22  23
ATOM     23  O   UNL     1       2.092   8.362  21.561  0.00  0.00    +0.000 OA
ATOM     24  H   UNL     1       1.635   9.209  21.714  0.00  0.00    +0.000 HD
ENDBRANCH  22  23
ENDBRANCH  18  22
ENDBRANCH   1  18
BRANCH   8  25
ATOM     25  C   UNL     1       7.195   4.627  15.818  0.00  0.00    +0.000 C 
BRANCH  25  26
ATOM     26  C   UNL     1       6.809   4.389  14.379  0.00  0.00    +0.000 A 
ATOM     27  C   UNL     1       5.796   3.472  14.064  0.00  0.00    +0.000 A 
ATOM     28  C   UNL     1       5.422   3.249  12.736  0.00  0.00    +0.000 A 
ATOM     29  C   UNL     1       6.055   3.941  11.703  0.00  0.00    +0.000 A 
ATOM     30  C   UNL     1       7.080   4.838  11.999  0.00  0.00    +0.000 A 
ATOM     31 CL   UNL     1       7.867   5.671  10.713  0.00  0.00    +0.000 Cl
ATOM     32  C   UNL     1       7.456   5.055  13.327  0.00  0.00    +0.000 A 
ATOM     33  F   UNL     1       8.459   5.902  13.608  0.00  0.00    +0.000 F 
ENDBRANCH  25  26
ENDBRANCH   8  25
TORSDOF 10
ENDMDL
MODEL 5
REMARK VINA RESULT:      -7.3      3.698      7.631
REMARK  Name = 
REMARK  12 active torsions:
REMARK  status: ('A' for Active; 'I' for Inactive)
REMARK    1  A    between atoms: C_1  and  C_2
REMARK    2  A    between atoms: C_2  and  C_3
REMARK    3  A    between atoms: C_3  and  C_4
REMARK    4  A    between atoms: C_4  and  C_5
REMARK    5  A    between atoms: C_4  and  N_7
REMARK    6  A    between atoms: C_5  and  O_6
REMARK    7  A    between atoms: C_9  and  C_10
REMARK    8  A    between atoms: C_10  and  O_12
REMARK    9  A    between atoms: C_17  and  C_18
REMARK   10  A    between atoms: C_18  and  C_19
REMARK   11  A    between atoms: C_27  and  O_28
REMARK   12  A    between atoms: O_28  and  C_29
REMARK                            x       y       z     vdW  Elec       q    Type
REMARK                         _______ _______ _______ _____ _____    ______ ____
ROOT
ATOM      1  N   UNL     1       3.099   5.130  19.514  0.00  0.00    +0.000 N 
ATOM      2  C   UNL     1       3.919   4.488  18.588  0.00  0.00    +0.000 A 
ATOM      3  C   UNL     1       4.463   5.038  17.491  0.00  0.00    +0.000 A 
ATOM      4  C   UNL     1       4.160   6.458  17.241  0.00  0.00    +0.000 A 
ATOM      5  O   UNL     1       4.626   7.023  16.253  0.00  0.00    +0.000 OA
ATOM      6  C   UNL     1       3.275   7.160  18.182  0.00  0.00    +0.000 A 
ATOM      7  C   UNL     1       2.931   8.488  17.924  0.00  0.00    +0.000 A 
ATOM      8  C   UNL     1       2.047   9.155  18.770  0.00  0.00    +0.000 A 
ATOM      9  C   UNL     1       1.595   8.442  19.880  0.00  0.00    +0.000 A 
ATOM     10  N   UNL     1       1.934   7.150  20.142  0.00  0.00    +0.000 NA
ATOM     11  C   UNL     1       2.754   6.492  19.296  0.00  0.00    +0.000 A 
ENDROOT
BRANCH   3  12
ATOM     12  C   UNL     1       5.302   4.225  16.583  0.00  0.00    +0.000 C 
ATOM     13  O   UNL     1       4.928   3.853  15.480  0.00  0.00    +0.000 OA
BRANCH  12  14
ATOM     14  O   UNL     1       6.528   3.929  17.060  0.00  0.00    +0.000 OA
ATOM     15  H   UNL     1       6.528   3.511  17.961  0.00  0.00    +0.000 HD
ENDBRANCH  12  14
ENDBRANCH   3  12
BRANCH   9  16
ATOM     16  O   UNL     1       0.729   9.075  20.749  0.00  0.00    +0.000 OA
ATOM     17  C   UNL     1       1.177   9.045  22.106  0.00  0.00    +0.000 C 
ENDBRANCH   9  16
BRANCH   1  18
ATOM     18  C   UNL     1       2.430   4.430  20.661  0.00  0.00    +0.000 C 
BRANCH  18  19
ATOM     19  C   UNL     1       0.942   4.159  20.327  0.00  0.00    +0.000 C 
BRANCH  19  21
ATOM     20  C   UNL     1       0.916   2.573  18.353  0.00  0.00    +0.000 C 
ATOM     21  C   UNL     1       0.663   2.728  19.846  0.00  0.00    +0.000 C 
ENDBRANCH  19  21
ENDBRANCH  18  19
BRANCH  18  22
ATOM     22  C   UNL     1       3.188   3.129  21.021  0.00  0.00    +0.000 C 
BRANCH  22  23
ATOM     23  O   UNL     1       2.668   2.525  22.204  0.00  0.00    +0.000 OA
ATOM     24  H   UNL     1       3.432   2.352  22.785  0.00  0.00    +0.000 HD
ENDBRANCH  22  23
ENDBRANCH  18  22
ENDBRANCH   1  18
BRANCH   8  25
ATOM     25  C   UNL     1       1.605  10.552  18.407  0.00  0.00    +0.000 C 
BRANCH  25  26
ATOM     26  C   UNL     1       0.140  10.842  18.623  0.00  0.00    +0.000 A 
ATOM     27  C   UNL     1      -0.257  11.808  19.559  0.00  0.00    +0.000 A 
ATOM     28  C   UNL     1      -1.610  12.093  19.760  0.00  0.00    +0.000 A 
ATOM     29  C   UNL     1      -2.587  11.416  19.029  0.00  0.00    +0.000 A 
ATOM     30  C   UNL     1      -2.208  10.437  18.113  0.00  0.00    +0.000 A 
ATOM     31 CL   UNL     1      -3.425   9.594  17.231  0.00  0.00    +0.000 Cl
ATOM     32  C   UNL     1      -0.856  10.150  17.916  0.00  0.00    +0.000 A 
ATOM     33  F   UNL     1      -0.495   9.189  17.050  0.00  0.00    +0.000 F 
ENDBRANCH  25  26
ENDBRANCH   8  25
TORSDOF 10
ENDMDL
MODEL 6
REMARK VINA RESULT:      -7.1      4.056      7.673
REMARK  Name = 
REMARK  12 active torsions:
REMARK  status: ('A' for Active; 'I' for Inactive)
REMARK    1  A    between atoms: C_1  and  C_2
REMARK    2  A    between atoms: C_2  and  C_3
REMARK    3  A    between atoms: C_3  and  C_4
REMARK    4  A    between atoms: C_4  and  C_5
REMARK    5  A    between atoms: C_4  and  N_7
REMARK    6  A    between atoms: C_5  and  O_6
REMARK    7  A    between atoms: C_9  and  C_10
REMARK    8  A    between atoms: C_10  and  O_12
REMARK    9  A    between atoms: C_17  and  C_18
REMARK   10  A    between atoms: C_18  and  C_19
REMARK   11  A    between atoms: C_27  and  O_28
REMARK   12  A    between atoms: O_28  and  C_29
REMARK                            x       y       z     vdW  Elec       q    Type
REMARK                         _______ _______ _______ _____ _____    ______ ____
ROOT
ATOM      1  N   UNL     1       4.316   4.897  18.985  0.00  0.00    +0.000 N 
ATOM      2  C   UNL     1       5.256   4.536  18.021  0.00  0.00    +0.000 A 
ATOM      3  C   UNL     1       5.540   5.210  16.896  0.00  0.00    +0.000 A 
ATOM      4  C   UNL     1       4.781   6.450  16.655  0.00  0.00    +0.000 A 
ATOM      5  O   UNL     1       4.993   7.115  15.642  0.00  0.00    +0.000 OA
ATOM      6  C   UNL     1       3.760   6.847  17.636  0.00  0.00    +0.000 A 
ATOM      7  C   UNL     1       2.993   7.986  17.389  0.00  0.00    +0.000 A 
ATOM      8  C   UNL     1       1.980   8.347  18.276  0.00  0.00    +0.000 A 
ATOM      9  C   UNL     1       1.836   7.550  19.411  0.00  0.00    +0.000 A 
ATOM     10  N   UNL     1       2.588   6.443  19.661  0.00  0.00    +0.000 NA
ATOM     11  C   UNL     1       3.538   6.069  18.778  0.00  0.00    +0.000 A 
ENDROOT
BRANCH   3  12
ATOM     12  C   UNL     1       6.555   4.694  15.951  0.00  0.00    +0.000 C 
ATOM     13  O   UNL     1       7.728   4.532  16.251  0.00  0.00    +0.000 OA
BRANCH  12  14
ATOM     14  O   UNL     1       6.084   4.401  14.721  0.00  0.00    +0.000 OA
ATOM     15  H   UNL     1       6.787   4.233  14.040  0.00  0.00    +0.000 HD
ENDBRANCH  12  14
ENDBRANCH   3  12
BRANCH   9  16
ATOM     16  O   UNL     1       0.852   7.885  20.320  0.00  0.00    +0.000 OA
ATOM     17  C   UNL     1       1.375   8.277  21.591  0.00  0.00    +0.000 C 
ENDBRANCH   9  16
BRANCH   1  18
ATOM     18  C   UNL     1       3.964   4.042  20.168  0.00  0.00    +0.000 C 
BRANCH  18  19
ATOM     19  C   UNL     1       2.444   4.128  20.456  0.00  0.00    +0.000 C 
BRANCH  19  21
ATOM     20  C   UNL     1       1.134   3.215  18.491  0.00  0.00    +0.000 C 
ATOM     21  C   UNL     1       1.638   2.945  19.901  0.00  0.00    +0.000 C 
ENDBRANCH  19  21
ENDBRANCH  18  19
BRANCH  18  22
ATOM     22  C   UNL     1       4.428   2.583  19.941  0.00  0.00    +0.000 C 
BRANCH  22  23
ATOM     23  O   UNL     1       5.109   2.062  21.081  0.00  0.00    +0.000 OA
ATOM     24  H   UNL     1       6.027   2.385  21.025  0.00  0.00    +0.000 HD
ENDBRANCH  22  23
ENDBRANCH  18  22
ENDBRANCH   1  18
BRANCH   8  25
ATOM     25  C   UNL     1       1.092   9.518  17.930  0.00  0.00    +0.000 C 
BRANCH  25  26
ATOM     26  C   UNL     1       1.538  10.851  18.478  0.00  0.00    +0.000 A 
ATOM     27  C   UNL     1       2.584  11.551  17.862  0.00  0.00    +0.000 A 
ATOM     28  C   UNL     1       3.000  12.792  18.354  0.00  0.00    +0.000 A 
ATOM     29  C   UNL     1       2.375  13.350  19.469  0.00  0.00    +0.000 A 
ATOM     30  C   UNL     1       1.349  12.654  20.107  0.00  0.00    +0.000 A 
ATOM     31 CL   UNL     1       0.600  13.344  21.495  0.00  0.00    +0.000 Cl
ATOM     32  C   UNL     1       0.939  11.412  19.616  0.00  0.00    +0.000 A 
ATOM     33  F   UNL     1      -0.033  10.732  20.246  0.00  0.00    +0.000 F 
ENDBRANCH  25  26
ENDBRANCH   8  25
TORSDOF 10
ENDMDL
MODEL 7
REMARK VINA RESULT:      -7.1      4.273      7.202
REMARK  Name = 
REMARK  12 active torsions:
REMARK  status: ('A' for Active; 'I' for Inactive)
REMARK    1  A    between atoms: C_1  and  C_2
REMARK    2  A    between atoms: C_2  and  C_3
REMARK    3  A    between atoms: C_3  and  C_4
REMARK    4  A    between atoms: C_4  and  C_5
REMARK    5  A    between atoms: C_4  and  N_7
REMARK    6  A    between atoms: C_5  and  O_6
REMARK    7  A    between atoms: C_9  and  C_10
REMARK    8  A    between atoms: C_10  and  O_12
REMARK    9  A    between atoms: C_17  and  C_18
REMARK   10  A    between atoms: C_18  and  C_19
REMARK   11  A    between atoms: C_27  and  O_28
REMARK   12  A    between atoms: O_28  and  C_29
REMARK                            x       y       z     vdW  Elec       q    Type
REMARK                         _______ _______ _______ _____ _____    ______ ____
ROOT
ATOM      1  N   UNL     1      -0.424  10.755  19.610  0.00  0.00    +0.000 N 
ATOM      2  C   UNL     1      -0.987  11.393  20.714  0.00  0.00    +0.000 A 
ATOM      3  C   UNL     1      -0.775  11.088  22.003  0.00  0.00    +0.000 A 
ATOM      4  C   UNL     1       0.142   9.967  22.277  0.00  0.00    +0.000 A 
ATOM      5  O   UNL     1       0.380   9.635  23.438  0.00  0.00    +0.000 OA
ATOM      6  C   UNL     1       0.733   9.251  21.136  0.00  0.00    +0.000 A 
ATOM      7  C   UNL     1       1.554   8.150  21.381  0.00  0.00    +0.000 A 
ATOM      8  C   UNL     1       2.077   7.421  20.315  0.00  0.00    +0.000 A 
ATOM      9  C   UNL     1       1.777   7.892  19.037  0.00  0.00    +0.000 A 
ATOM     10  N   UNL     1       0.984   8.971  18.792  0.00  0.00    +0.000 NA
ATOM     11  C   UNL     1       0.442   9.647  19.826  0.00  0.00    +0.000 A 
ENDROOT
BRANCH   3  12
ATOM     12  C   UNL     1      -1.461  11.843  23.074  0.00  0.00    +0.000 C 
ATOM     13  O   UNL     1      -1.091  12.942  23.460  0.00  0.00    +0.000 OA
BRANCH  12  14
ATOM     14  O   UNL     1      -2.544  11.229  23.593  0.00  0.00    +0.000 OA
ATOM     15  H   UNL     1      -2.978  10.576  22.984  0.00  0.00    +0.000 HD
ENDBRANCH  12  14
ENDBRANCH   3  12
BRANCH   9  16
ATOM     16  O   UNL     1       2.290   7.204  17.955  0.00  0.00    +0.000 OA
ATOM     17  C   UNL     1       3.546   7.720  17.509  0.00  0.00    +0.000 C 
ENDBRANCH   9  16
BRANCH   1  18
ATOM     18  C   UNL     1      -0.789  11.070  18.188  0.00  0.00    +0.000 C 
BRANCH  18  19
ATOM     19  C   UNL     1      -1.744   9.986  17.629  0.00  0.00    +0.000 C 
BRANCH  19  21
ATOM     20  C   UNL     1      -4.195  10.463  17.212  0.00  0.00    +0.000 C 
ATOM     21  C   UNL     1      -2.786  10.526  16.640  0.00  0.00    +0.000 C 
ENDBRANCH  19  21
ENDBRANCH  18  19
BRANCH  18  22
ATOM     22  C   UNL     1      -1.401  12.488  18.086  0.00  0.00    +0.000 C 
BRANCH  22  23
ATOM     23  O   UNL     1      -0.518  13.399  17.433  0.00  0.00    +0.000 OA
ATOM     24  H   UNL     1      -1.064  13.920  16.816  0.00  0.00    +0.000 HD
ENDBRANCH  22  23
ENDBRANCH  18  22
ENDBRANCH   1  18
BRANCH   8  25
ATOM     25  C   UNL     1       2.870   6.170  20.606  0.00  0.00    +0.000 C 
BRANCH  25  26
ATOM     26  C   UNL     1       2.270   4.889  20.083  0.00  0.00    +0.000 A 
ATOM     27  C   UNL     1       0.975   4.510  20.465  0.00  0.00    +0.000 A 
ATOM     28  C   UNL     1       0.404   3.330  19.979  0.00  0.00    +0.000 A 
ATOM     29  C   UNL     1       1.119   2.513  19.103  0.00  0.00    +0.000 A 
ATOM     30  C   UNL     1       2.416   2.865  18.733  0.00  0.00    +0.000 A 
ATOM     31 CL   UNL     1       3.295   1.836  17.667  0.00  0.00    +0.000 Cl
ATOM     32  C   UNL     1       2.987   4.041  19.224  0.00  0.00    +0.000 A 
ATOM     33  F   UNL     1       4.245   4.366  18.885  0.00  0.00    +0.000 F 
ENDBRANCH  25  26
ENDBRANCH   8  25
TORSDOF 10
ENDMDL
MODEL 8
REMARK VINA RESULT:      -7.0      4.070      7.059
REMARK  Name = 
REMARK  12 active torsions:
REMARK  status: ('A' for Active; 'I' for Inactive)
REMARK    1  A    between atoms: C_1  and  C_2
REMARK    2  A    between atoms: C_2  and  C_3
REMARK    3  A    between atoms: C_3  and  C_4
REMARK    4  A    between atoms: C_4  and  C_5
REMARK    5  A    between atoms: C_4  and  N_7
REMARK    6  A    between atoms: C_5  and  O_6
REMARK    7  A    between atoms: C_9  and  C_10
REMARK    8  A    between atoms: C_10  and  O_12
REMARK    9  A    between atoms: C_17  and  C_18
REMARK   10  A    between atoms: C_18  and  C_19
REMARK   11  A    between atoms: C_27  and  O_28
REMARK   12  A    between atoms: O_28  and  C_29
REMARK                            x       y       z     vdW  Elec       q    Type
REMARK                         _______ _______ _______ _____ _____    ______ ____
ROOT
ATOM      1  N   UNL     1       0.088  11.308  19.891  0.00  0.00    +0.000 N 
ATOM      2  C   UNL     1      -0.580  11.952  20.932  0.00  0.00    +0.000 A 
ATOM      3  C   UNL     1      -0.725  11.497  22.186  0.00  0.00    +0.000 A 
ATOM      4  C   UNL     1      -0.122  10.187  22.491  0.00  0.00    +0.000 A 
ATOM      5  O   UNL     1      -0.219   9.712  23.621  0.00  0.00    +0.000 OA
ATOM      6  C   UNL     1       0.566   9.466  21.410  0.00  0.00    +0.000 A 
ATOM      7  C   UNL     1       1.088   8.198  21.669  0.00  0.00    +0.000 A 
ATOM      8  C   UNL     1       1.692   7.471  20.645  0.00  0.00    +0.000 A 
ATOM      9  C   UNL     1       1.782   8.105  19.406  0.00  0.00    +0.000 A 
ATOM     10  N   UNL     1       1.283   9.345  19.149  0.00  0.00    +0.000 NA
ATOM     11  C   UNL     1       0.658  10.027  20.132  0.00  0.00    +0.000 A 
ENDROOT
BRANCH   3  12
ATOM     12  C   UNL     1      -1.481  12.285  23.185  0.00  0.00    +0.000 C 
ATOM     13  O   UNL     1      -1.096  13.360  23.619  0.00  0.00    +0.000 OA
BRANCH  12  14
ATOM     14  O   UNL     1      -2.645  11.728  23.579  0.00  0.00    +0.000 OA
ATOM     15  H   UNL     1      -2.670  10.738  23.515  0.00  0.00    +0.000 HD
ENDBRANCH  12  14
ENDBRANCH   3  12
BRANCH   9  16
ATOM     16  O   UNL     1       2.387   7.421  18.370  0.00  0.00    +0.000 OA
ATOM     17  C   UNL     1       3.163   8.268  17.520  0.00  0.00    +0.000 C 
ENDBRANCH   9  16
BRANCH   1  18
ATOM     18  C   UNL     1       0.120  11.817  18.479  0.00  0.00    +0.000 C 
BRANCH  18  19
ATOM     19  C   UNL     1      -1.311  12.175  18.008  0.00  0.00    +0.000 C 
BRANCH  19  21
ATOM     20  C   UNL     1      -1.889   9.908  17.038  0.00  0.00    +0.000 C 
ATOM     21  C   UNL     1      -2.288  10.992  18.030  0.00  0.00    +0.000 C 
ENDBRANCH  19  21
ENDBRANCH  18  19
BRANCH  18  22
ATOM     22  C   UNL     1       1.087  13.020  18.357  0.00  0.00    +0.000 C 
BRANCH  22  23
ATOM     23  O   UNL     1       2.210  12.714  17.533  0.00  0.00    +0.000 OA
ATOM     24  H   UNL     1       3.001  12.828  18.091  0.00  0.00    +0.000 HD
ENDBRANCH  22  23
ENDBRANCH  18  22
ENDBRANCH   1  18
BRANCH   8  25
ATOM     25  C   UNL     1       2.148   6.059  20.924  0.00  0.00    +0.000 C 
BRANCH  25  26
ATOM     26  C   UNL     1       2.351   5.194  19.705  0.00  0.00    +0.000 A 
ATOM     27  C   UNL     1       1.267   4.509  19.138  0.00  0.00    +0.000 A 
ATOM     28  C   UNL     1       1.440   3.712  18.003  0.00  0.00    +0.000 A 
ATOM     29  C   UNL     1       2.701   3.589  17.418  0.00  0.00    +0.000 A 
ATOM     30  C   UNL     1       3.792   4.245  17.984  0.00  0.00    +0.000 A 
ATOM     31 CL   UNL     1       5.347   4.067  17.263  0.00  0.00    +0.000 Cl
ATOM     32  C   UNL     1       3.618   5.036  19.121  0.00  0.00    +0.000 A 
ATOM     33  F   UNL     1       4.676   5.648  19.679  0.00  0.00    +0.000 F 
ENDBRANCH  25  26
ENDBRANCH   8  25
TORSDOF 10
ENDMDL
MODEL 9
REMARK VINA RESULT:      -7.0      3.337      7.580
REMARK  Name = 
REMARK  12 active torsions:
REMARK  status: ('A' for Active; 'I' for Inactive)
REMARK    1  A    between atoms: C_1  and  C_2
REMARK    2  A    between atoms: C_2  and  C_3
REMARK    3  A    between atoms: C_3  and  C_4
REMARK    4  A    between atoms: C_4  and  C_5
REMARK    5  A    between atoms: C_4  and  N_7
REMARK    6  A    between atoms: C_5  and  O_6
REMARK    7  A    between atoms: C_9  and  C_10
REMARK    8  A    between atoms: C_10  and  O_12
REMARK    9  A    between atoms: C_17  and  C_18
REMARK   10  A    between atoms: C_18  and  C_19
REMARK   11  A    between atoms: C_27  and  O_28
REMARK   12  A    between atoms: O_28  and  C_29
REMARK                            x       y       z     vdW  Elec       q    Type
REMARK                         _______ _______ _______ _____ _____    ______ ____
ROOT
ATOM      1  N   UNL     1       3.993   4.705  18.290  0.00  0.00    +0.000 N 
ATOM      2  C   UNL     1       4.828   4.264  17.265  0.00  0.00    +0.000 A 
ATOM      3  C   UNL     1       5.306   5.005  16.254  0.00  0.00    +0.000 A 
ATOM      4  C   UNL     1       4.907   6.424  16.225  0.00  0.00    +0.000 A 
ATOM      5  O   UNL     1       5.311   7.159  15.325  0.00  0.00    +0.000 OA
ATOM      6  C   UNL     1       4.004   6.918  17.274  0.00  0.00    +0.000 A 
ATOM      7  C   UNL     1       3.569   8.243  17.223  0.00  0.00    +0.000 A 
ATOM      8  C   UNL     1       2.667   8.717  18.174  0.00  0.00    +0.000 A 
ATOM      9  C   UNL     1       2.291   7.818  19.172  0.00  0.00    +0.000 A 
ATOM     10  N   UNL     1       2.718   6.527  19.232  0.00  0.00    +0.000 NA
ATOM     11  C   UNL     1       3.556   6.059  18.284  0.00  0.00    +0.000 A 
ENDROOT
BRANCH   3  12
ATOM     12  C   UNL     1       6.171   4.394  15.221  0.00  0.00    +0.000 C 
ATOM     13  O   UNL     1       7.391   4.400  15.282  0.00  0.00    +0.000 OA
BRANCH  12  14
ATOM     14  O   UNL     1       5.508   3.813  14.201  0.00  0.00    +0.000 OA
ATOM     15  H   UNL     1       4.637   4.237  13.982  0.00  0.00    +0.000 HD
ENDBRANCH  12  14
ENDBRANCH   3  12
BRANCH   9  16
ATOM     16  O   UNL     1       1.409   8.256  20.141  0.00  0.00    +0.000 OA
ATOM     17  C   UNL     1       1.157   7.277  21.151  0.00  0.00    +0.000 C 
ENDBRANCH   9  16
BRANCH   1  18
ATOM     18  C   UNL     1       3.399   3.800  19.331  0.00  0.00    +0.000 C 
BRANCH  18  19
ATOM     19  C   UNL     1       2.107   3.139  18.790  0.00  0.00    +0.000 C 
BRANCH  19  21
ATOM     20  C   UNL     1       1.250   3.012  21.169  0.00  0.00    +0.000 C 
ATOM     21  C   UNL     1       0.894   3.295  19.716  0.00  0.00    +0.000 C 
ENDBRANCH  19  21
ENDBRANCH  18  19
BRANCH  18  22
ATOM     22  C   UNL     1       4.437   2.748  19.791  0.00  0.00    +0.000 C 
BRANCH  22  23
ATOM     23  O   UNL     1       4.256   1.500  19.126  0.00  0.00    +0.000 OA
ATOM     24  H   UNL     1       4.963   1.438  18.457  0.00  0.00    +0.000 HD
ENDBRANCH  22  23
ENDBRANCH  18  22
ENDBRANCH   1  18
BRANCH   8  25
ATOM     25  C   UNL     1       2.127  10.119  18.032  0.00  0.00    +0.000 C 
BRANCH  25  26
ATOM     26  C   UNL     1       0.756  10.346  18.617  0.00  0.00    +0.000 A 
ATOM     27  C   UNL     1       0.612  11.018  19.839  0.00  0.00    +0.000 A 
ATOM     28  C   UNL     1      -0.654  11.243  20.386  0.00  0.00    +0.000 A 
ATOM     29  C   UNL     1      -1.796  10.798  19.719  0.00  0.00    +0.000 A 
ATOM     30  C   UNL     1      -1.668  10.108  18.516  0.00  0.00    +0.000 A 
ATOM     31 CL   UNL     1      -3.085   9.547  17.712  0.00  0.00    +0.000 Cl
ATOM     32  C   UNL     1      -0.401   9.879  17.973  0.00  0.00    +0.000 A 
ATOM     33  F   UNL     1      -0.279   9.193  16.825  0.00  0.00    +0.000 F 
ENDBRANCH  25  26
ENDBRANCH   8  25
TORSDOF 10
ENDMDL
