MODEL 1
REMARK VINA RESULT:      -8.0      0.000      0.000
REMARK  Name = 
REMARK  10 active torsions:
REMARK  status: ('A' for Active; 'I' for Inactive)
REMARK    1  A    between atoms: C_1  and  C_2
REMARK    2  A    between atoms: C_2  and  N_3
REMARK    3  A    between atoms: C_4  and  C_5
REMARK    4  A    between atoms: C_5  and  C_6
REMARK    5  A    between atoms: C_9  and  C_10
REMARK    6  A    between atoms: C_12  and  C_13
REMARK    7  A    between atoms: N_16  and  C_17
REMARK    8  A    between atoms: C_17  and  C_18
REMARK    9  A    between atoms: C_21  and  C_22
REMARK   10  A    between atoms: C_24  and  C_25
REMARK                            x       y       z     vdW  Elec       q    Type
REMARK                         _______ _______ _______ _____ _____    ______ ____
ROOT
ATOM      1  C   UNL     1       2.258   5.554  20.366  0.00  0.00    +0.000 C 
ENDROOT
BRANCH   1   3
ATOM      2  N   UNL     1       3.120   4.529  18.183  0.00  0.00    +0.000 N 
ATOM      3  C   UNL     1       3.325   5.200  19.388  0.00  0.00    +0.000 A 
ATOM      4  N   UNL     1       4.567   5.520  19.552  0.00  0.00    +0.000 NA
ATOM      5  N   UNL     1       5.186   5.088  18.413  0.00  0.00    +0.000 N 
ATOM      6  C   UNL     1       6.526   5.218  18.143  0.00  0.00    +0.000 A 
ATOM      7  C   UNL     1       7.486   5.786  19.142  0.00  0.00    +0.000 C 
ATOM      8  C   UNL     1       6.912   4.786  16.931  0.00  0.00    +0.000 A 
ATOM      9  C   UNL     1       5.878   4.218  16.009  0.00  0.00    +0.000 A 
ATOM     10  C   UNL     1       6.347   3.795  14.637  0.00  0.00    +0.000 C 
ATOM     11  N   UNL     1       4.621   4.069  16.301  0.00  0.00    +0.000 NA
ATOM     12  C   UNL     1       4.306   4.532  17.571  0.00  0.00    +0.000 A 
BRANCH   2  14
ATOM     13  C   UNL     1       1.691   2.529  18.230  0.00  0.00    +0.000 C 
ATOM     14  C   UNL     1       1.918   3.907  17.644  0.00  0.00    +0.000 C 
ENDBRANCH   2  14
ENDBRANCH   1   3
BRANCH   1  15
ATOM     15  C   UNL     1       1.825   6.981  20.328  0.00  0.00    +0.000 A 
ATOM     16  N   UNL     1       1.354   7.551  21.390  0.00  0.00    +0.000 NA
ATOM     17  N   UNL     1       1.020   8.809  20.982  0.00  0.00    +0.000 N 
ATOM     18  C   UNL     1       0.449   9.768  21.783  0.00  0.00    +0.000 A 
ATOM     19  C   UNL     1       0.129   9.520  23.222  0.00  0.00    +0.000 C 
ATOM     20  C   UNL     1       0.190  10.937  21.177  0.00  0.00    +0.000 A 
ATOM     21  C   UNL     1       0.535  11.090  19.730  0.00  0.00    +0.000 A 
ATOM     22  C   UNL     1       0.223  12.425  19.096  0.00  0.00    +0.000 C 
ATOM     23  N   UNL     1       1.075  10.167  18.990  0.00  0.00    +0.000 NA
ATOM     24  C   UNL     1       1.306   8.988  19.687  0.00  0.00    +0.000 A 
ATOM     25  N   UNL     1       1.825   7.842  19.229  0.00  0.00    +0.000 N 
BRANCH  25  26
ATOM     26  C   UNL     1       2.196   7.618  17.836  0.00  0.00    +0.000 C 
ATOM     27  C   UNL     1       3.550   8.214  17.497  0.00  0.00    +0.000 C 
ENDBRANCH  25  26
ENDBRANCH   1  15
TORSDOF 4
ENDMDL
MODEL 2
REMARK VINA RESULT:      -7.7      2.401      4.875
REMARK  Name = 
REMARK  10 active torsions:
REMARK  status: ('A' for Active; 'I' for Inactive)
REMARK    1  A    between atoms: C_1  and  C_2
REMARK    2  A    between atoms: C_2  and  N_3
REMARK    3  A    between atoms: C_4  and  C_5
REMARK    4  A    between atoms: C_5  and  C_6
REMARK    5  A    between atoms: C_9  and  C_10
REMARK    6  A    between atoms: C_12  and  C_13
REMARK    7  A    between atoms: N_16  and  C_17
REMARK    8  A    between atoms: C_17  and  C_18
REMARK    9  A    between atoms: C_21  and  C_22
REMARK   10  A    between atoms: C_24  and  C_25
REMARK                            x       y       z     vdW  Elec       q    Type
REMARK                         _______ _______ _______ _____ _____    ______ ____
ROOT
ATOM      1  C   UNL     1       2.015   9.673  18.367  0.00  0.00    +0.000 C 
ENDROOT
BRANCH   1   3
ATOM      2  N   UNL     1       1.841   7.776  20.078  0.00  0.00    +0.000 N 
ATOM      3  C   UNL     1       2.195   8.266  18.822  0.00  0.00    +0.000 A 
ATOM      4  N   UNL     1       2.678   7.336  18.065  0.00  0.00    +0.000 NA
ATOM      5  N   UNL     1       2.602   6.201  18.824  0.00  0.00    +0.000 N 
ATOM      6  C   UNL     1       3.005   4.953  18.420  0.00  0.00    +0.000 A 
ATOM      7  C   UNL     1       3.672   4.720  17.101  0.00  0.00    +0.000 C 
ATOM      8  C   UNL     1       2.775   3.964  19.300  0.00  0.00    +0.000 A 
ATOM      9  C   UNL     1       2.117   4.301  20.602  0.00  0.00    +0.000 A 
ATOM     10  C   UNL     1       1.828   3.150  21.538  0.00  0.00    +0.000 C 
ATOM     11  N   UNL     1       1.779   5.497  20.979  0.00  0.00    +0.000 NA
ATOM     12  C   UNL     1       2.057   6.460  20.018  0.00  0.00    +0.000 A 
BRANCH   2  14
ATOM     13  C   UNL     1      -0.131   8.297  21.450  0.00  0.00    +0.000 C 
ATOM     14  C   UNL     1       1.360   8.477  21.262  0.00  0.00    +0.000 C 
ENDBRANCH   2  14
ENDBRANCH   1   3
BRANCH   1  15
ATOM     15  C   UNL     1       0.650  10.232  18.593  0.00  0.00    +0.000 A 
ATOM     16  N   UNL     1      -0.339   9.867  17.842  0.00  0.00    +0.000 NA
ATOM     17  N   UNL     1      -1.398  10.599  18.294  0.00  0.00    +0.000 N 
ATOM     18  C   UNL     1      -2.663  10.558  17.762  0.00  0.00    +0.000 A 
ATOM     19  C   UNL     1      -3.016   9.680  16.604  0.00  0.00    +0.000 C 
ATOM     20  C   UNL     1      -3.556  11.370  18.350  0.00  0.00    +0.000 A 
ATOM     21  C   UNL     1      -3.110  12.221  19.496  0.00  0.00    +0.000 A 
ATOM     22  C   UNL     1      -4.153  13.116  20.122  0.00  0.00    +0.000 C 
ATOM     23  N   UNL     1      -1.904  12.244  19.982  0.00  0.00    +0.000 NA
ATOM     24  C   UNL     1      -1.041  11.383  19.317  0.00  0.00    +0.000 A 
ATOM     25  N   UNL     1       0.263  11.178  19.544  0.00  0.00    +0.000 N 
BRANCH  25  26
ATOM     26  C   UNL     1       1.039  11.908  20.540  0.00  0.00    +0.000 C 
ATOM     27  C   UNL     1       1.762  13.103  19.948  0.00  0.00    +0.000 C 
ENDBRANCH  25  26
ENDBRANCH   1  15
TORSDOF 4
ENDMDL
MODEL 3
REMARK VINA RESULT:      -7.6      2.963      8.502
REMARK  Name = 
REMARK  10 active torsions:
REMARK  status: ('A' for Active; 'I' for Inactive)
REMARK    1  A    between atoms: C_1  and  C_2
REMARK    2  A    between atoms: C_2  and  N_3
REMARK    3  A    between atoms: C_4  and  C_5
REMARK    4  A    between atoms: C_5  and  C_6
REMARK    5  A    between atoms: C_9  and  C_10
REMARK    6  A    between atoms: C_12  and  C_13
REMARK    7  A    between atoms: N_16  and  C_17
REMARK    8  A    between atoms: C_17  and  C_18
REMARK    9  A    between atoms: C_21  and  C_22
REMARK   10  A    between atoms: C_24  and  C_25
REMARK                            x       y       z     vdW  Elec       q    Type
REMARK                         _______ _______ _______ _____ _____    ______ ____
ROOT
ATOM      1  C   UNL     1       0.920  10.669  19.156  0.00  0.00    +0.000 C 
ENDROOT
BRANCH   1   3
ATOM      2  N   UNL     1      -1.495  11.434  19.529  0.00  0.00    +0.000 N 
ATOM      3  C   UNL     1      -0.511  10.812  18.764  0.00  0.00    +0.000 A 
ATOM      4  N   UNL     1      -0.977  10.391  17.634  0.00  0.00    +0.000 NA
ATOM      5  N   UNL     1      -2.287  10.781  17.637  0.00  0.00    +0.000 N 
ATOM      6  C   UNL     1      -3.184  10.548  16.624  0.00  0.00    +0.000 A 
ATOM      7  C   UNL     1      -2.826   9.739  15.416  0.00  0.00    +0.000 C 
ATOM      8  C   UNL     1      -4.404  11.081  16.804  0.00  0.00    +0.000 A 
ATOM      9  C   UNL     1      -4.669  11.860  18.054  0.00  0.00    +0.000 A 
ATOM     10  C   UNL     1      -6.037  12.487  18.190  0.00  0.00    +0.000 C 
ATOM     11  N   UNL     1      -3.816  12.035  19.018  0.00  0.00    +0.000 NA
ATOM     12  C   UNL     1      -2.586  11.448  18.758  0.00  0.00    +0.000 A 
BRANCH   2  14
ATOM     13  C   UNL     1      -0.933  13.384  20.916  0.00  0.00    +0.000 C 
ATOM     14  C   UNL     1      -1.442  11.959  20.888  0.00  0.00    +0.000 C 
ENDBRANCH   2  14
ENDBRANCH   1   3
BRANCH   1  15
ATOM     15  C   UNL     1       1.352   9.269  19.441  0.00  0.00    +0.000 A 
ATOM     16  N   UNL     1       2.190   8.671  18.656  0.00  0.00    +0.000 NA
ATOM     17  N   UNL     1       2.314   7.419  19.182  0.00  0.00    +0.000 N 
ATOM     18  C   UNL     1       3.089   6.418  18.651  0.00  0.00    +0.000 A 
ATOM     19  C   UNL     1       3.899   6.609  17.408  0.00  0.00    +0.000 C 
ATOM     20  C   UNL     1       3.059   5.255  19.321  0.00  0.00    +0.000 A 
ATOM     21  C   UNL     1       2.212   5.154  20.548  0.00  0.00    +0.000 A 
ATOM     22  C   UNL     1       2.213   3.824  21.265  0.00  0.00    +0.000 C 
ATOM     23  N   UNL     1       1.484   6.115  21.033  0.00  0.00    +0.000 NA
ATOM     24  C   UNL     1       1.564   7.281  20.282  0.00  0.00    +0.000 A 
ATOM     25  N   UNL     1       0.932   8.443  20.485  0.00  0.00    +0.000 N 
BRANCH  25  26
ATOM     26  C   UNL     1      -0.038   8.665  21.551  0.00  0.00    +0.000 C 
ATOM     27  C   UNL     1       0.566   9.390  22.740  0.00  0.00    +0.000 C 
ENDBRANCH  25  26
ENDBRANCH   1  15
TORSDOF 4
ENDMDL
MODEL 4
REMARK VINA RESULT:      -7.5      2.732      5.358
REMARK  Name = 
REMARK  10 active torsions:
REMARK  status: ('A' for Active; 'I' for Inactive)
REMARK    1  A    between atoms: C_1  and  C_2
REMARK    2  A    between atoms: C_2  and  N_3
REMARK    3  A    between atoms: C_4  and  C_5
REMARK    4  A    between atoms: C_5  and  C_6
REMARK    5  A    between atoms: C_9  and  C_10
REMARK    6  A    between atoms: C_12  and  C_13
REMARK    7  A    between atoms: N_16  and  C_17
REMARK    8  A    between atoms: C_17  and  C_18
REMARK    9  A    between atoms: C_21  and  C_22
REMARK   10  A    between atoms: C_24  and  C_25
REMARK                            x       y       z     vdW  Elec       q    Type
REMARK                         _______ _______ _______ _____ _____    ______ ____
ROOT
ATOM      1  C   UNL     1       1.483  10.280  18.708  0.00  0.00    +0.000 C 
ENDROOT
BRANCH   1   3
ATOM      2  N   UNL     1       1.352   8.189  20.182  0.00  0.00    +0.000 N 
ATOM      3  C   UNL     1       1.815   8.869  19.057  0.00  0.00    +0.000 A 
ATOM      4  N   UNL     1       2.556   8.115  18.313  0.00  0.00    +0.000 NA
ATOM      5  N   UNL     1       2.546   6.900  18.939  0.00  0.00    +0.000 N 
ATOM      6  C   UNL     1       3.206   5.779  18.500  0.00  0.00    +0.000 A 
ATOM      7  C   UNL     1       4.101   5.802  17.301  0.00  0.00    +0.000 C 
ATOM      8  C   UNL     1       3.003   4.670  19.232  0.00  0.00    +0.000 A 
ATOM      9  C   UNL     1       2.102   4.753  20.425  0.00  0.00    +0.000 A 
ATOM     10  C   UNL     1       1.860   3.471  21.186  0.00  0.00    +0.000 C 
ATOM     11  N   UNL     1       1.519   5.835  20.844  0.00  0.00    +0.000 NA
ATOM     12  C   UNL     1       1.785   6.934  20.039  0.00  0.00    +0.000 A 
BRANCH   2  14
ATOM     13  C   UNL     1       1.477   9.276  22.384  0.00  0.00    +0.000 C 
ATOM     14  C   UNL     1       0.583   8.669  21.323  0.00  0.00    +0.000 C 
ENDBRANCH   2  14
ENDBRANCH   1   3
BRANCH   1  15
ATOM     15  C   UNL     1       0.022  10.568  18.604  0.00  0.00    +0.000 A 
ATOM     16  N   UNL     1      -0.670  10.095  17.618  0.00  0.00    +0.000 NA
ATOM     17  N   UNL     1      -1.925  10.590  17.814  0.00  0.00    +0.000 N 
ATOM     18  C   UNL     1      -2.995  10.368  16.982  0.00  0.00    +0.000 A 
ATOM     19  C   UNL     1      -2.886   9.534  15.745  0.00  0.00    +0.000 C 
ATOM     20  C   UNL     1      -4.140  10.961  17.354  0.00  0.00    +0.000 A 
ATOM     21  C   UNL     1      -4.152  11.784  18.602  0.00  0.00    +0.000 A 
ATOM     22  C   UNL     1      -5.465  12.430  18.975  0.00  0.00    +0.000 C 
ATOM     23  N   UNL     1      -3.125  11.983  19.374  0.00  0.00    +0.000 NA
ATOM     24  C   UNL     1      -1.980  11.343  18.919  0.00  0.00    +0.000 A 
ATOM     25  N   UNL     1      -0.754  11.354  19.457  0.00  0.00    +0.000 N 
BRANCH  25  26
ATOM     26  C   UNL     1      -0.393  12.129  20.639  0.00  0.00    +0.000 C 
ATOM     27  C   UNL     1       0.240  13.462  20.285  0.00  0.00    +0.000 C 
ENDBRANCH  25  26
ENDBRANCH   1  15
TORSDOF 4
ENDMDL
MODEL 5
REMARK VINA RESULT:      -7.5      1.795      7.492
REMARK  Name = 
REMARK  10 active torsions:
REMARK  status: ('A' for Active; 'I' for Inactive)
REMARK    1  A    between atoms: C_1  and  C_2
REMARK    2  A    between atoms: C_2  and  N_3
REMARK    3  A    between atoms: C_4  and  C_5
REMARK    4  A    between atoms: C_5  and  C_6
REMARK    5  A    between atoms: C_9  and  C_10
REMARK    6  A    between atoms: C_12  and  C_13
REMARK    7  A    between atoms: N_16  and  C_17
REMARK    8  A    between atoms: C_17  and  C_18
REMARK    9  A    between atoms: C_21  and  C_22
REMARK   10  A    between atoms: C_24  and  C_25
REMARK                            x       y       z     vdW  Elec       q    Type
REMARK                         _______ _______ _______ _____ _____    ______ ____
ROOT
ATOM      1  C   UNL     1       4.369   3.899  18.009  0.00  0.00    +0.000 C 
ENDROOT
BRANCH   1   3
ATOM      2  N   UNL     1       2.798   4.963  19.729  0.00  0.00    +0.000 N 
ATOM      3  C   UNL     1       3.530   5.009  18.544  0.00  0.00    +0.000 A 
ATOM      4  N   UNL     1       3.428   6.159  17.962  0.00  0.00    +0.000 NA
ATOM      5  N   UNL     1       2.645   6.900  18.802  0.00  0.00    +0.000 N 
ATOM      6  C   UNL     1       2.269   8.203  18.588  0.00  0.00    +0.000 A 
ATOM      7  C   UNL     1       2.617   8.934  17.329  0.00  0.00    +0.000 C 
ATOM      8  C   UNL     1       1.554   8.764  19.578  0.00  0.00    +0.000 A 
ATOM      9  C   UNL     1       1.243   7.944  20.791  0.00  0.00    +0.000 A 
ATOM     10  C   UNL     1       0.484   8.631  21.903  0.00  0.00    +0.000 C 
ATOM     11  N   UNL     1       1.576   6.699  20.955  0.00  0.00    +0.000 NA
ATOM     12  C   UNL     1       2.304   6.194  19.886  0.00  0.00    +0.000 A 
BRANCH   2  14
ATOM     13  C   UNL     1       1.270   3.122  20.294  0.00  0.00    +0.000 C 
ATOM     14  C   UNL     1       2.549   3.855  20.641  0.00  0.00    +0.000 C 
ENDBRANCH   2  14
ENDBRANCH   1   3
BRANCH   1  15
ATOM     15  C   UNL     1       5.148   4.241  16.783  0.00  0.00    +0.000 A 
ATOM     16  N   UNL     1       4.776   3.795  15.626  0.00  0.00    +0.000 NA
ATOM     17  N   UNL     1       5.727   4.253  14.763  0.00  0.00    +0.000 N 
ATOM     18  C   UNL     1       5.753   3.993  13.414  0.00  0.00    +0.000 A 
ATOM     19  C   UNL     1       4.711   3.159  12.740  0.00  0.00    +0.000 C 
ATOM     20  C   UNL     1       6.787   4.532  12.749  0.00  0.00    +0.000 A 
ATOM     21  C   UNL     1       7.787   5.344  13.508  0.00  0.00    +0.000 A 
ATOM     22  C   UNL     1       8.930   5.928  12.713  0.00  0.00    +0.000 C 
ATOM     23  N   UNL     1       7.743   5.576  14.787  0.00  0.00    +0.000 NA
ATOM     24  C   UNL     1       6.650   4.980  15.403  0.00  0.00    +0.000 A 
ATOM     25  N   UNL     1       6.316   5.000  16.699  0.00  0.00    +0.000 N 
BRANCH  25  26
ATOM     26  C   UNL     1       7.122   5.635  17.736  0.00  0.00    +0.000 C 
ATOM     27  C   UNL     1       7.176   7.144  17.583  0.00  0.00    +0.000 C 
ENDBRANCH  25  26
ENDBRANCH   1  15
TORSDOF 4
ENDMDL
MODEL 6
REMARK VINA RESULT:      -7.3      3.316      6.418
REMARK  Name = 
REMARK  10 active torsions:
REMARK  status: ('A' for Active; 'I' for Inactive)
REMARK    1  A    between atoms: C_1  and  C_2
REMARK    2  A    between atoms: C_2  and  N_3
REMARK    3  A    between atoms: C_4  and  C_5
REMARK    4  A    between atoms: C_5  and  C_6
REMARK    5  A    between atoms: C_9  and  C_10
REMARK    6  A    between atoms: C_12  and  C_13
REMARK    7  A    between atoms: N_16  and  C_17
REMARK    8  A    between atoms: C_17  and  C_18
REMARK    9  A    between atoms: C_21  and  C_22
REMARK   10  A    between atoms: C_24  and  C_25
REMARK                            x       y       z     vdW  Elec       q    Type
REMARK                         _______ _______ _______ _____ _____    ______ ____
ROOT
ATOM      1  C   UNL     1       0.147  11.438  19.650  0.00  0.00    +0.000 C 
ENDROOT
BRANCH   1   3
ATOM      2  N   UNL     1       0.466   9.152  20.760  0.00  0.00    +0.000 N 
ATOM      3  C   UNL     1       0.747  10.078  19.756  0.00  0.00    +0.000 A 
ATOM      4  N   UNL     1       1.580   9.604  18.888  0.00  0.00    +0.000 NA
ATOM      5  N   UNL     1       1.820   8.325  19.305  0.00  0.00    +0.000 N 
ATOM      6  C   UNL     1       2.653   7.433  18.677  0.00  0.00    +0.000 A 
ATOM      7  C   UNL     1       3.475   7.815  17.486  0.00  0.00    +0.000 C 
ATOM      8  C   UNL     1       2.690   6.204  19.218  0.00  0.00    +0.000 A 
ATOM      9  C   UNL     1       1.842   5.924  20.421  0.00  0.00    +0.000 A 
ATOM     10  C   UNL     1       1.873   4.514  20.963  0.00  0.00    +0.000 C 
ATOM     11  N   UNL     1       1.091   6.796  21.022  0.00  0.00    +0.000 NA
ATOM     12  C   UNL     1       1.115   8.040  20.406  0.00  0.00    +0.000 A 
BRANCH   2  14
ATOM     13  C   UNL     1       0.548   9.535  23.187  0.00  0.00    +0.000 C 
ATOM     14  C   UNL     1      -0.326   9.290  21.975  0.00  0.00    +0.000 C 
ENDBRANCH   2  14
ENDBRANCH   1   3
BRANCH   1  15
ATOM     15  C   UNL     1      -1.237  11.467  19.091  0.00  0.00    +0.000 A 
ATOM     16  N   UNL     1      -1.460  11.081  17.876  0.00  0.00    +0.000 NA
ATOM     17  N   UNL     1      -2.796  11.287  17.694  0.00  0.00    +0.000 N 
ATOM     18  C   UNL     1      -3.475  11.042  16.526  0.00  0.00    +0.000 A 
ATOM     19  C   UNL     1      -2.798  10.507  15.304  0.00  0.00    +0.000 C 
ATOM     20  C   UNL     1      -4.787  11.326  16.558  0.00  0.00    +0.000 A 
ATOM     21  C   UNL     1      -5.375  11.867  17.821  0.00  0.00    +0.000 A 
ATOM     22  C   UNL     1      -6.855  12.171  17.804  0.00  0.00    +0.000 C 
ATOM     23  N   UNL     1      -4.712  12.093  18.916  0.00  0.00    +0.000 NA
ATOM     24  C   UNL     1      -3.364  11.780  18.801  0.00  0.00    +0.000 A 
ATOM     25  N   UNL     1      -2.401  11.909  19.722  0.00  0.00    +0.000 N 
BRANCH  25  26
ATOM     26  C   UNL     1      -2.614  12.485  21.045  0.00  0.00    +0.000 C 
ATOM     27  C   UNL     1      -2.412  13.989  21.060  0.00  0.00    +0.000 C 
ENDBRANCH  25  26
ENDBRANCH   1  15
TORSDOF 4
ENDMDL
MODEL 7
REMARK VINA RESULT:      -7.3      2.389      8.270
REMARK  Name = 
REMARK  10 active torsions:
REMARK  status: ('A' for Active; 'I' for Inactive)
REMARK    1  A    between atoms: C_1  and  C_2
REMARK    2  A    between atoms: C_2  and  N_3
REMARK    3  A    between atoms: C_4  and  C_5
REMARK    4  A    between atoms: C_5  and  C_6
REMARK    5  A    between atoms: C_9  and  C_10
REMARK    6  A    between atoms: C_12  and  C_13
REMARK    7  A    between atoms: N_16  and  C_17
REMARK    8  A    between atoms: C_17  and  C_18
REMARK    9  A    between atoms: C_21  and  C_22
REMARK   10  A    between atoms: C_24  and  C_25
REMARK                            x       y       z     vdW  Elec       q    Type
REMARK                         _______ _______ _______ _____ _____    ______ ____
ROOT
ATOM      1  C   UNL     1       1.937   9.566  18.416  0.00  0.00    +0.000 C 
ENDROOT
BRANCH   1   3
ATOM      2  N   UNL     1       0.305  11.098  19.659  0.00  0.00    +0.000 N 
ATOM      3  C   UNL     1       0.592  10.149  18.680  0.00  0.00    +0.000 A 
ATOM      4  N   UNL     1      -0.456   9.847  17.985  0.00  0.00    +0.000 NA
ATOM      5  N   UNL     1      -1.445  10.645  18.491  0.00  0.00    +0.000 N 
ATOM      6  C   UNL     1      -2.745  10.667  18.051  0.00  0.00    +0.000 A 
ATOM      7  C   UNL     1      -3.245   9.725  17.001  0.00  0.00    +0.000 C 
ATOM      8  C   UNL     1      -3.535  11.579  18.642  0.00  0.00    +0.000 A 
ATOM      9  C   UNL     1      -2.945  12.465  19.695  0.00  0.00    +0.000 A 
ATOM     10  C   UNL     1      -3.854  13.511  20.294  0.00  0.00    +0.000 C 
ATOM     11  N   UNL     1      -1.720  12.400  20.122  0.00  0.00    +0.000 NA
ATOM     12  C   UNL     1      -0.974  11.429  19.468  0.00  0.00    +0.000 A 
BRANCH   2  14
ATOM     13  C   UNL     1       1.815  12.934  20.286  0.00  0.00    +0.000 C 
ATOM     14  C   UNL     1       1.146  11.646  20.716  0.00  0.00    +0.000 C 
ENDBRANCH   2  14
ENDBRANCH   1   3
BRANCH   1  15
ATOM     15  C   UNL     1       2.118   8.168  18.906  0.00  0.00    +0.000 A 
ATOM     16  N   UNL     1       2.588   7.254  18.119  0.00  0.00    +0.000 NA
ATOM     17  N   UNL     1       2.569   6.116  18.869  0.00  0.00    +0.000 N 
ATOM     18  C   UNL     1       2.957   4.876  18.424  0.00  0.00    +0.000 A 
ATOM     19  C   UNL     1       3.455   4.646  17.032  0.00  0.00    +0.000 C 
ATOM     20  C   UNL     1       2.847   3.886  19.323  0.00  0.00    +0.000 A 
ATOM     21  C   UNL     1       2.329   4.208  20.688  0.00  0.00    +0.000 A 
ATOM     22  C   UNL     1       2.224   3.058  21.662  0.00  0.00    +0.000 C 
ATOM     23  N   UNL     1       1.965   5.391  21.088  0.00  0.00    +0.000 NA
ATOM     24  C   UNL     1       2.103   6.357  20.100  0.00  0.00    +0.000 A 
ATOM     25  N   UNL     1       1.804   7.660  20.168  0.00  0.00    +0.000 N 
BRANCH  25  26
ATOM     26  C   UNL     1       1.199   8.295  21.333  0.00  0.00    +0.000 C 
ATOM     27  C   UNL     1      -0.304   8.090  21.388  0.00  0.00    +0.000 C 
ENDBRANCH  25  26
ENDBRANCH   1  15
TORSDOF 4
ENDMDL
MODEL 8
REMARK VINA RESULT:      -7.2      1.799      4.390
REMARK  Name = 
REMARK  10 active torsions:
REMARK  status: ('A' for Active; 'I' for Inactive)
REMARK    1  A    between atoms: C_1  and  C_2
REMARK    2  A    between atoms: C_2  and  N_3
REMARK    3  A    between atoms: C_4  and  C_5
REMARK    4  A    between atoms: C_5  and  C_6
REMARK    5  A    between atoms: C_9  and  C_10
REMARK    6  A    between atoms: C_12  and  C_13
REMARK    7  A    between atoms: N_16  and  C_17
REMARK    8  A    between atoms: C_17  and  C_18
REMARK    9  A    between atoms: C_21  and  C_22
REMARK   10  A    between atoms: C_24  and  C_25
REMARK                            x       y       z     vdW  Elec       q    Type
REMARK                         _______ _______ _______ _____ _____    ______ ____
ROOT
ATOM      1  C   UNL     1       4.296   3.818  18.078  0.00  0.00    +0.000 C 
ENDROOT
BRANCH   1   3
ATOM      2  N   UNL     1       6.130   5.039  16.773  0.00  0.00    +0.000 N 
ATOM      3  C   UNL     1       5.028   4.188  16.834  0.00  0.00    +0.000 A 
ATOM      4  N   UNL     1       4.723   3.717  15.669  0.00  0.00    +0.000 NA
ATOM      5  N   UNL     1       5.670   4.235  14.830  0.00  0.00    +0.000 N 
ATOM      6  C   UNL     1       5.742   4.000  13.480  0.00  0.00    +0.000 A 
ATOM      7  C   UNL     1       4.706   3.199  12.755  0.00  0.00    +0.000 C 
ATOM      8  C   UNL     1       6.796   4.555  12.857  0.00  0.00    +0.000 A 
ATOM      9  C   UNL     1       7.770   5.353  13.667  0.00  0.00    +0.000 A 
ATOM     10  C   UNL     1       8.968   5.912  12.937  0.00  0.00    +0.000 C 
ATOM     11  N   UNL     1       7.659   5.595  14.939  0.00  0.00    +0.000 NA
ATOM     12  C   UNL     1       6.542   4.995  15.504  0.00  0.00    +0.000 A 
BRANCH   2  14
ATOM     13  C   UNL     1       7.818   5.093  18.560  0.00  0.00    +0.000 C 
ATOM     14  C   UNL     1       6.748   5.857  17.809  0.00  0.00    +0.000 C 
ENDBRANCH   2  14
ENDBRANCH   1   3
BRANCH   1  15
ATOM     15  C   UNL     1       3.470   4.913  18.665  0.00  0.00    +0.000 A 
ATOM     16  N   UNL     1       3.361   6.050  18.055  0.00  0.00    +0.000 NA
ATOM     17  N   UNL     1       2.592   6.809  18.885  0.00  0.00    +0.000 N 
ATOM     18  C   UNL     1       2.239   8.116  18.651  0.00  0.00    +0.000 A 
ATOM     19  C   UNL     1       2.676   8.855  17.427  0.00  0.00    +0.000 C 
ATOM     20  C   UNL     1       1.485   8.684  19.606  0.00  0.00    +0.000 A 
ATOM     21  C   UNL     1       1.105   7.870  20.801  0.00  0.00    +0.000 A 
ATOM     22  C   UNL     1       0.255   8.556  21.845  0.00  0.00    +0.000 C 
ATOM     23  N   UNL     1       1.451   6.633  21.003  0.00  0.00    +0.000 NA
ATOM     24  C   UNL     1       2.234   6.122  19.976  0.00  0.00    +0.000 A 
ATOM     25  N   UNL     1       2.774   4.900  19.875  0.00  0.00    +0.000 N 
BRANCH  25  26
ATOM     26  C   UNL     1       2.669   3.878  20.909  0.00  0.00    +0.000 C 
ATOM     27  C   UNL     1       1.418   3.033  20.762  0.00  0.00    +0.000 C 
ENDBRANCH  25  26
ENDBRANCH   1  15
TORSDOF 4
ENDMDL
MODEL 9
REMARK VINA RESULT:      -7.1      0.246      7.163
REMARK  Name = 
REMARK  10 active torsions:
REMARK  status: ('A' for Active; 'I' for Inactive)
REMARK    1  A    between atoms: C_1  and  C_2
REMARK    2  A    between atoms: C_2  and  N_3
REMARK    3  A    between atoms: C_4  and  C_5
REMARK    4  A    between atoms: C_5  and  C_6
REMARK    5  A    between atoms: C_9  and  C_10
REMARK    6  A    between atoms: C_12  and  C_13
REMARK    7  A    between atoms: N_16  and  C_17
REMARK    8  A    between atoms: C_17  and  C_18
REMARK    9  A    between atoms: C_21  and  C_22
REMARK   10  A    between atoms: C_24  and  C_25
REMARK                            x       y       z     vdW  Elec       q    Type
REMARK                         _______ _______ _______ _____ _____    ______ ____
ROOT
ATOM      1  C   UNL     1       2.383   5.520  20.417  0.00  0.00    +0.000 C 
ENDROOT
BRANCH   1   3
ATOM      2  N   UNL     1       1.793   7.729  19.263  0.00  0.00    +0.000 N 
ATOM      3  C   UNL     1       1.870   6.919  20.395  0.00  0.00    +0.000 A 
ATOM      4  N   UNL     1       1.405   7.516  21.444  0.00  0.00    +0.000 NA
ATOM      5  N   UNL     1       0.974   8.730  20.984  0.00  0.00    +0.000 N 
ATOM      6  C   UNL     1       0.398   9.708  21.757  0.00  0.00    +0.000 A 
ATOM      7  C   UNL     1       0.263   9.572  23.241  0.00  0.00    +0.000 C 
ATOM      8  C   UNL     1      -0.016  10.797  21.088  0.00  0.00    +0.000 A 
ATOM      9  C   UNL     1       0.180  10.846  19.604  0.00  0.00    +0.000 A 
ATOM     10  C   UNL     1      -0.349  12.065  18.886  0.00  0.00    +0.000 C 
ATOM     11  N   UNL     1       0.763   9.924  18.899  0.00  0.00    +0.000 NA
ATOM     12  C   UNL     1       1.168   8.838  19.665  0.00  0.00    +0.000 A 
BRANCH   2  14
ATOM     13  C   UNL     1       3.483   8.377  17.600  0.00  0.00    +0.000 C 
ATOM     14  C   UNL     1       2.284   7.506  17.910  0.00  0.00    +0.000 C 
ENDBRANCH   2  14
ENDBRANCH   1   3
BRANCH   1  15
ATOM     15  C   UNL     1       3.369   5.201  19.344  0.00  0.00    +0.000 A 
ATOM     16  N   UNL     1       4.604   5.569  19.459  0.00  0.00    +0.000 NA
ATOM     17  N   UNL     1       5.191   5.163  18.298  0.00  0.00    +0.000 N 
ATOM     18  C   UNL     1       6.507   5.373  17.968  0.00  0.00    +0.000 A 
ATOM     19  C   UNL     1       7.455   6.088  18.878  0.00  0.00    +0.000 C 
ATOM     20  C   UNL     1       6.878   4.900  16.767  0.00  0.00    +0.000 A 
ATOM     21  C   UNL     1       5.859   4.208  15.921  0.00  0.00    +0.000 A 
ATOM     22  C   UNL     1       6.327   3.696  14.580  0.00  0.00    +0.000 C 
ATOM     23  N   UNL     1       4.616   4.021  16.253  0.00  0.00    +0.000 NA
ATOM     24  C   UNL     1       4.310   4.543  17.503  0.00  0.00    +0.000 A 
ATOM     25  N   UNL     1       3.130   4.543  18.136  0.00  0.00    +0.000 N 
BRANCH  25  26
ATOM     26  C   UNL     1       1.898   4.020  17.557  0.00  0.00    +0.000 C 
ATOM     27  C   UNL     1       1.399   2.783  18.282  0.00  0.00    +0.000 C 
ENDBRANCH  25  26
ENDBRANCH   1  15
TORSDOF 4
ENDMDL
