MODEL 1
REMARK VINA RESULT:      -8.4      0.000      0.000
REMARK  Name = 
REMARK  4 active torsions:
REMARK  status: ('A' for Active; 'I' for Inactive)
REMARK    1  A    between atoms: C_1  and  C_2
REMARK    2  A    between atoms: C_5  and  N_6
REMARK    3  A    between atoms: C_12  and  S_13
REMARK    4  A    between atoms: S_13  and  N_16
REMARK                            x       y       z     vdW  Elec       q    Type
REMARK                         _______ _______ _______ _____ _____    ______ ____
ROOT
ATOM      1  N   UNL     1       3.209   5.684  18.449  0.00  0.00    +0.000 N 
ATOM      2  C   UNL     1       2.670   4.557  19.229  0.00  0.00    +0.000 C 
ATOM      3  C   UNL     1       2.629   4.945  20.702  0.00  0.00    +0.000 C 
ATOM      4  O   UNL     1       1.739   6.038  20.939  0.00  0.00    +0.000 OA
ATOM      5  C   UNL     1       1.886   7.053  20.022  0.00  0.00    +0.000 A 
ATOM      6  C   UNL     1       1.238   8.243  20.358  0.00  0.00    +0.000 A 
ATOM      7  C   UNL     1       1.308   9.335  19.493  0.00  0.00    +0.000 A 
ATOM      8  C   UNL     1       1.991   9.234  18.284  0.00  0.00    +0.000 A 
ATOM      9  C   UNL     1       2.620   8.029  17.945  0.00  0.00    +0.000 A 
ATOM     10  C   UNL     1       2.595   6.918  18.805  0.00  0.00    +0.000 A 
ENDROOT
BRANCH   1  15
ATOM     11  C   UNL     1       7.363   4.697  14.591  0.00  0.00    +0.000 C 
ATOM     12  C   UNL     1       6.285   4.925  15.603  0.00  0.00    +0.000 A 
ATOM     13  C   UNL     1       5.102   4.188  15.585  0.00  0.00    +0.000 A 
ATOM     14  C   UNL     1       4.095   4.450  16.524  0.00  0.00    +0.000 A 
ATOM     15  C   UNL     1       4.241   5.428  17.524  0.00  0.00    +0.000 A 
ATOM     16  C   UNL     1       5.446   6.144  17.537  0.00  0.00    +0.000 A 
ATOM     17  C   UNL     1       6.439   5.899  16.587  0.00  0.00    +0.000 A 
ATOM     18  F   UNL     1       7.563   6.630  16.629  0.00  0.00    +0.000 F 
ENDBRANCH   1  15
BRANCH   7  19
ATOM     19  S   UNL     1       0.382  10.798  19.865  0.00  0.00    +0.000 S 
ATOM     20  O   UNL     1      -0.830  10.385  20.540  0.00  0.00    +0.000 OA
ATOM     21  O   UNL     1       1.288  11.744  20.477  0.00  0.00    +0.000 OA
BRANCH  19  22
ATOM     22  N   UNL     1      -0.108  11.308  18.325  0.00  0.00    +0.000 N 
ATOM     23  C   UNL     1      -1.440  10.924  18.057  0.00  0.00    +0.000 A 
ATOM     24  N   UNL     1      -1.660   9.873  17.309  0.00  0.00    +0.000 NA
ATOM     25  C   UNL     1      -3.025   9.674  17.216  0.00  0.00    +0.000 A 
ATOM     26  C   UNL     1      -3.810  10.650  17.794  0.00  0.00    +0.000 A 
ATOM     27  S   UNL     1      -2.807  11.829  18.537  0.00  0.00    +0.000 S 
ATOM     28  H   UNL     1       0.503  10.820  17.670  0.00  0.00    +0.000 HD
ENDBRANCH  19  22
ENDBRANCH   7  19
TORSDOF 3
ENDMDL
MODEL 2
REMARK VINA RESULT:      -8.2      1.777      2.472
REMARK  Name = 
REMARK  4 active torsions:
REMARK  status: ('A' for Active; 'I' for Inactive)
REMARK    1  A    between atoms: C_1  and  C_2
REMARK    2  A    between atoms: C_5  and  N_6
REMARK    3  A    between atoms: C_12  and  S_13
REMARK    4  A    between atoms: S_13  and  N_16
REMARK                            x       y       z     vdW  Elec       q    Type
REMARK                         _______ _______ _______ _____ _____    ______ ____
ROOT
ATOM      1  N   UNL     1       3.188   5.691  18.478  0.00  0.00    +0.000 N 
ATOM      2  C   UNL     1       2.632   4.551  19.226  0.00  0.00    +0.000 C 
ATOM      3  C   UNL     1       2.584   4.903  20.708  0.00  0.00    +0.000 C 
ATOM      4  O   UNL     1       1.705   5.999  20.966  0.00  0.00    +0.000 OA
ATOM      5  C   UNL     1       1.868   7.034  20.075  0.00  0.00    +0.000 A 
ATOM      6  C   UNL     1       1.231   8.223  20.436  0.00  0.00    +0.000 A 
ATOM      7  C   UNL     1       1.319   9.335  19.598  0.00  0.00    +0.000 A 
ATOM      8  C   UNL     1       2.010   9.256  18.392  0.00  0.00    +0.000 A 
ATOM      9  C   UNL     1       2.628   8.054  18.028  0.00  0.00    +0.000 A 
ATOM     10  C   UNL     1       2.585   6.922  18.860  0.00  0.00    +0.000 A 
ENDROOT
BRANCH   1  15
ATOM     11  C   UNL     1       7.358   4.752  14.624  0.00  0.00    +0.000 C 
ATOM     12  C   UNL     1       6.276   4.967  15.636  0.00  0.00    +0.000 A 
ATOM     13  C   UNL     1       5.097   4.225  15.609  0.00  0.00    +0.000 A 
ATOM     14  C   UNL     1       4.086   4.475  16.547  0.00  0.00    +0.000 A 
ATOM     15  C   UNL     1       4.224   5.446  17.554  0.00  0.00    +0.000 A 
ATOM     16  C   UNL     1       5.425   6.168  17.575  0.00  0.00    +0.000 A 
ATOM     17  C   UNL     1       6.422   5.935  16.626  0.00  0.00    +0.000 A 
ATOM     18  F   UNL     1       7.543   6.671  16.677  0.00  0.00    +0.000 F 
ENDBRANCH   1  15
BRANCH   7  19
ATOM     19  S   UNL     1       0.406  10.799  20.000  0.00  0.00    +0.000 S 
ATOM     20  O   UNL     1      -0.959  10.398  20.267  0.00  0.00    +0.000 OA
ATOM     21  O   UNL     1       1.170  11.533  20.983  0.00  0.00    +0.000 OA
BRANCH  19  22
ATOM     22  N   UNL     1       0.359  11.607  18.511  0.00  0.00    +0.000 N 
ATOM     23  C   UNL     1       0.902  12.906  18.615  0.00  0.00    +0.000 A 
ATOM     24  N   UNL     1       0.089  13.927  18.709  0.00  0.00    +0.000 NA
ATOM     25  C   UNL     1       0.842  15.080  18.833  0.00  0.00    +0.000 A 
ATOM     26  C   UNL     1       2.206  14.918  18.706  0.00  0.00    +0.000 A 
ATOM     27  S   UNL     1       2.569  13.255  18.488  0.00  0.00    +0.000 S 
ATOM     28  H   UNL     1      -0.631  11.691  18.279  0.00  0.00    +0.000 HD
ENDBRANCH  19  22
ENDBRANCH   7  19
TORSDOF 3
ENDMDL
MODEL 3
REMARK VINA RESULT:      -8.1      2.082      2.841
REMARK  Name = 
REMARK  4 active torsions:
REMARK  status: ('A' for Active; 'I' for Inactive)
REMARK    1  A    between atoms: C_1  and  C_2
REMARK    2  A    between atoms: C_5  and  N_6
REMARK    3  A    between atoms: C_12  and  S_13
REMARK    4  A    between atoms: S_13  and  N_16
REMARK                            x       y       z     vdW  Elec       q    Type
REMARK                         _______ _______ _______ _____ _____    ______ ____
ROOT
ATOM      1  N   UNL     1       3.015   5.878  18.276  0.00  0.00    +0.000 N 
ATOM      2  C   UNL     1       2.509   4.746  19.071  0.00  0.00    +0.000 C 
ATOM      3  C   UNL     1       2.590   5.101  20.551  0.00  0.00    +0.000 C 
ATOM      4  O   UNL     1       1.749   6.208  20.879  0.00  0.00    +0.000 OA
ATOM      5  C   UNL     1       1.850   7.240  19.975  0.00  0.00    +0.000 A 
ATOM      6  C   UNL     1       1.260   8.437  20.385  0.00  0.00    +0.000 A 
ATOM      7  C   UNL     1       1.291   9.546  19.541  0.00  0.00    +0.000 A 
ATOM      8  C   UNL     1       1.877   9.458  18.281  0.00  0.00    +0.000 A 
ATOM      9  C   UNL     1       2.448   8.247  17.870  0.00  0.00    +0.000 A 
ATOM     10  C   UNL     1       2.461   7.117  18.704  0.00  0.00    +0.000 A 
ENDROOT
BRANCH   1  15
ATOM     11  C   UNL     1       6.986   4.856  14.238  0.00  0.00    +0.000 C 
ATOM     12  C   UNL     1       5.936   5.135  15.267  0.00  0.00    +0.000 A 
ATOM     13  C   UNL     1       5.530   6.436  15.558  0.00  0.00    +0.000 A 
ATOM     14  C   UNL     1       4.570   6.668  16.553  0.00  0.00    +0.000 A 
ATOM     15  C   UNL     1       3.967   5.620  17.269  0.00  0.00    +0.000 A 
ATOM     16  C   UNL     1       4.375   4.318  16.948  0.00  0.00    +0.000 A 
ATOM     17  C   UNL     1       5.347   4.089  15.973  0.00  0.00    +0.000 A 
ATOM     18  F   UNL     1       5.720   2.824  15.722  0.00  0.00    +0.000 F 
ENDBRANCH   1  15
BRANCH   7  19
ATOM     19  S   UNL     1       0.433  11.022  20.014  0.00  0.00    +0.000 S 
ATOM     20  O   UNL     1      -0.924  10.646  20.348  0.00  0.00    +0.000 OA
ATOM     21  O   UNL     1       1.265  11.724  20.965  0.00  0.00    +0.000 OA
BRANCH  19  22
ATOM     22  N   UNL     1       0.324  11.856  18.542  0.00  0.00    +0.000 N 
ATOM     23  C   UNL     1       0.966  13.111  18.615  0.00  0.00    +0.000 A 
ATOM     24  N   UNL     1       0.241  14.186  18.786  0.00  0.00    +0.000 NA
ATOM     25  C   UNL     1       1.083  15.280  18.859  0.00  0.00    +0.000 A 
ATOM     26  C   UNL     1       2.417  15.023  18.619  0.00  0.00    +0.000 A 
ATOM     27  S   UNL     1       2.638  13.341  18.354  0.00  0.00    +0.000 S 
ATOM     28  H   UNL     1      -0.673  12.014  18.394  0.00  0.00    +0.000 HD
ENDBRANCH  19  22
ENDBRANCH   7  19
TORSDOF 3
ENDMDL
MODEL 4
REMARK VINA RESULT:      -8.1      1.866      2.204
REMARK  Name = 
REMARK  4 active torsions:
REMARK  status: ('A' for Active; 'I' for Inactive)
REMARK    1  A    between atoms: C_1  and  C_2
REMARK    2  A    between atoms: C_5  and  N_6
REMARK    3  A    between atoms: C_12  and  S_13
REMARK    4  A    between atoms: S_13  and  N_16
REMARK                            x       y       z     vdW  Elec       q    Type
REMARK                         _______ _______ _______ _____ _____    ______ ____
ROOT
ATOM      1  N   UNL     1       3.419   4.844  18.471  0.00  0.00    +0.000 N 
ATOM      2  C   UNL     1       2.977   3.533  18.978  0.00  0.00    +0.000 C 
ATOM      3  C   UNL     1       2.984   3.560  20.502  0.00  0.00    +0.000 C 
ATOM      4  O   UNL     1       2.051   4.510  21.021  0.00  0.00    +0.000 OA
ATOM      5  C   UNL     1       2.102   5.719  20.367  0.00  0.00    +0.000 A 
ATOM      6  C   UNL     1       1.409   6.754  20.998  0.00  0.00    +0.000 A 
ATOM      7  C   UNL     1       1.382   8.021  20.415  0.00  0.00    +0.000 A 
ATOM      8  C   UNL     1       2.013   8.250  19.195  0.00  0.00    +0.000 A 
ATOM      9  C   UNL     1       2.687   7.200  18.560  0.00  0.00    +0.000 A 
ATOM     10  C   UNL     1       2.760   5.918  19.130  0.00  0.00    +0.000 A 
ENDROOT
BRANCH   1  15
ATOM     11  C   UNL     1       7.434   5.047  14.352  0.00  0.00    +0.000 C 
ATOM     12  C   UNL     1       6.395   4.964  15.426  0.00  0.00    +0.000 A 
ATOM     13  C   UNL     1       5.279   4.140  15.297  0.00  0.00    +0.000 A 
ATOM     14  C   UNL     1       4.304   4.112  16.304  0.00  0.00    +0.000 A 
ATOM     15  C   UNL     1       4.419   4.877  17.478  0.00  0.00    +0.000 A 
ATOM     16  C   UNL     1       5.559   5.684  17.597  0.00  0.00    +0.000 A 
ATOM     17  C   UNL     1       6.518   5.729  16.584  0.00  0.00    +0.000 A 
ATOM     18  F   UNL     1       7.578   6.537  16.738  0.00  0.00    +0.000 F 
ENDBRANCH   1  15
BRANCH   7  19
ATOM     19  S   UNL     1       0.400   9.296  21.155  0.00  0.00    +0.000 S 
ATOM     20  O   UNL     1      -0.651   8.649  21.913  0.00  0.00    +0.000 OA
ATOM     21  O   UNL     1       1.303  10.231  21.787  0.00  0.00    +0.000 OA
BRANCH  19  22
ATOM     22  N   UNL     1      -0.367   9.979  19.807  0.00  0.00    +0.000 N 
ATOM     23  C   UNL     1      -0.097  11.361  19.709  0.00  0.00    +0.000 A 
ATOM     24  N   UNL     1      -1.000  12.215  20.119  0.00  0.00    +0.000 NA
ATOM     25  C   UNL     1      -0.503  13.495  19.956  0.00  0.00    +0.000 A 
ATOM     26  C   UNL     1       0.715  13.585  19.314  0.00  0.00    +0.000 A 
ATOM     27  S   UNL     1       1.292  12.009  18.955  0.00  0.00    +0.000 S 
ATOM     28  H   UNL     1      -1.367   9.859  19.975  0.00  0.00    +0.000 HD
ENDBRANCH  19  22
ENDBRANCH   7  19
TORSDOF 3
ENDMDL
MODEL 5
REMARK VINA RESULT:      -8.1      1.035      1.377
REMARK  Name = 
REMARK  4 active torsions:
REMARK  status: ('A' for Active; 'I' for Inactive)
REMARK    1  A    between atoms: C_1  and  C_2
REMARK    2  A    between atoms: C_5  and  N_6
REMARK    3  A    between atoms: C_12  and  S_13
REMARK    4  A    between atoms: S_13  and  N_16
REMARK                            x       y       z     vdW  Elec       q    Type
REMARK                         _______ _______ _______ _____ _____    ______ ____
ROOT
ATOM      1  N   UNL     1       3.619   5.534  18.047  0.00  0.00    +0.000 N 
ATOM      2  C   UNL     1       3.209   4.334  18.795  0.00  0.00    +0.000 C 
ATOM      3  C   UNL     1       3.210   4.651  20.286  0.00  0.00    +0.000 C 
ATOM      4  O   UNL     1       2.251   5.658  20.616  0.00  0.00    +0.000 OA
ATOM      5  C   UNL     1       2.273   6.720  19.743  0.00  0.00    +0.000 A 
ATOM      6  C   UNL     1       1.552   7.839  20.166  0.00  0.00    +0.000 A 
ATOM      7  C   UNL     1       1.494   8.970  19.352  0.00  0.00    +0.000 A 
ATOM      8  C   UNL     1       2.123   8.978  18.110  0.00  0.00    +0.000 A 
ATOM      9  C   UNL     1       2.826   7.844  17.685  0.00  0.00    +0.000 A 
ATOM     10  C   UNL     1       2.930   6.697  18.490  0.00  0.00    +0.000 A 
ENDROOT
BRANCH   1  15
ATOM     11  C   UNL     1       7.766   4.919  14.104  0.00  0.00    +0.000 C 
ATOM     12  C   UNL     1       6.689   5.109  15.126  0.00  0.00    +0.000 A 
ATOM     13  C   UNL     1       6.909   5.848  16.286  0.00  0.00    +0.000 A 
ATOM     14  C   UNL     1       5.892   5.977  17.243  0.00  0.00    +0.000 A 
ATOM     15  C   UNL     1       4.622   5.403  17.065  0.00  0.00    +0.000 A 
ATOM     16  C   UNL     1       4.415   4.681  15.882  0.00  0.00    +0.000 A 
ATOM     17  C   UNL     1       5.435   4.532  14.941  0.00  0.00    +0.000 A 
ATOM     18  F   UNL     1       5.191   3.810  13.837  0.00  0.00    +0.000 F 
ENDBRANCH   1  15
BRANCH   7  19
ATOM     19  S   UNL     1       0.477  10.337  19.836  0.00  0.00    +0.000 S 
ATOM     20  O   UNL     1      -0.744   9.793  20.392  0.00  0.00    +0.000 OA
ATOM     21  O   UNL     1       1.301  11.245  20.601  0.00  0.00    +0.000 OA
BRANCH  19  22
ATOM     22  N   UNL     1       0.038  11.000  18.339  0.00  0.00    +0.000 N 
ATOM     23  C   UNL     1      -1.330  10.786  18.065  0.00  0.00    +0.000 A 
ATOM     24  N   UNL     1      -1.671   9.819  17.253  0.00  0.00    +0.000 NA
ATOM     25  C   UNL     1      -3.051   9.781  17.165  0.00  0.00    +0.000 A 
ATOM     26  C   UNL     1      -3.717  10.799  17.816  0.00  0.00    +0.000 A 
ATOM     27  S   UNL     1      -2.583  11.805  18.621  0.00  0.00    +0.000 S 
ATOM     28  H   UNL     1       0.587  10.490  17.646  0.00  0.00    +0.000 HD
ENDBRANCH  19  22
ENDBRANCH   7  19
TORSDOF 3
ENDMDL
MODEL 6
REMARK VINA RESULT:      -8.0      2.117      2.635
REMARK  Name = 
REMARK  4 active torsions:
REMARK  status: ('A' for Active; 'I' for Inactive)
REMARK    1  A    between atoms: C_1  and  C_2
REMARK    2  A    between atoms: C_5  and  N_6
REMARK    3  A    between atoms: C_12  and  S_13
REMARK    4  A    between atoms: S_13  and  N_16
REMARK                            x       y       z     vdW  Elec       q    Type
REMARK                         _______ _______ _______ _____ _____    ______ ____
ROOT
ATOM      1  N   UNL     1       3.019   6.015  18.570  0.00  0.00    +0.000 N 
ATOM      2  C   UNL     1       2.417   4.973  19.420  0.00  0.00    +0.000 C 
ATOM      3  C   UNL     1       2.340   5.483  20.854  0.00  0.00    +0.000 C 
ATOM      4  O   UNL     1       1.480   6.619  20.969  0.00  0.00    +0.000 OA
ATOM      5  C   UNL     1       1.691   7.549  19.977  0.00  0.00    +0.000 A 
ATOM      6  C   UNL     1       1.073   8.782  20.191  0.00  0.00    +0.000 A 
ATOM      7  C   UNL     1       1.209   9.796  19.243  0.00  0.00    +0.000 A 
ATOM      8  C   UNL     1       1.928   9.574  18.072  0.00  0.00    +0.000 A 
ATOM      9  C   UNL     1       2.527   8.327  17.856  0.00  0.00    +0.000 A 
ATOM     10  C   UNL     1       2.436   7.292  18.802  0.00  0.00    +0.000 A 
ENDROOT
BRANCH   1  15
ATOM     11  C   UNL     1       7.261   4.577  14.956  0.00  0.00    +0.000 C 
ATOM     12  C   UNL     1       6.160   4.923  15.909  0.00  0.00    +0.000 A 
ATOM     13  C   UNL     1       4.984   4.178  15.964  0.00  0.00    +0.000 A 
ATOM     14  C   UNL     1       3.956   4.550  16.841  0.00  0.00    +0.000 A 
ATOM     15  C   UNL     1       4.072   5.651  17.707  0.00  0.00    +0.000 A 
ATOM     16  C   UNL     1       5.271   6.376  17.649  0.00  0.00    +0.000 A 
ATOM     17  C   UNL     1       6.285   6.020  16.759  0.00  0.00    +0.000 A 
ATOM     18  F   UNL     1       7.403   6.762  16.728  0.00  0.00    +0.000 F 
ENDBRANCH   1  15
BRANCH   7  19
ATOM     19  S   UNL     1       0.320  11.313  19.460  0.00  0.00    +0.000 S 
ATOM     20  O   UNL     1       0.876  12.277  18.534  0.00  0.00    +0.000 OA
ATOM     21  O   UNL     1      -1.090  10.998  19.448  0.00  0.00    +0.000 OA
BRANCH  19  22
ATOM     22  N   UNL     1       0.838  11.809  20.996  0.00  0.00    +0.000 N 
ATOM     23  C   UNL     1      -0.255  11.998  21.869  0.00  0.00    +0.000 A 
ATOM     24  N   UNL     1      -0.686  13.213  22.093  0.00  0.00    +0.000 NA
ATOM     25  C   UNL     1      -1.773  13.146  22.945  0.00  0.00    +0.000 A 
ATOM     26  C   UNL     1      -2.064  11.893  23.443  0.00  0.00    +0.000 A 
ATOM     27  S   UNL     1      -0.978  10.743  22.774  0.00  0.00    +0.000 S 
ATOM     28  H   UNL     1       1.291  12.712  20.850  0.00  0.00    +0.000 HD
ENDBRANCH  19  22
ENDBRANCH   7  19
TORSDOF 3
ENDMDL
MODEL 7
REMARK VINA RESULT:      -7.9      1.751      2.169
REMARK  Name = 
REMARK  4 active torsions:
REMARK  status: ('A' for Active; 'I' for Inactive)
REMARK    1  A    between atoms: C_1  and  C_2
REMARK    2  A    between atoms: C_5  and  N_6
REMARK    3  A    between atoms: C_12  and  S_13
REMARK    4  A    between atoms: S_13  and  N_16
REMARK                            x       y       z     vdW  Elec       q    Type
REMARK                         _______ _______ _______ _____ _____    ______ ____
ROOT
ATOM      1  N   UNL     1       3.830   4.682  17.902  0.00  0.00    +0.000 N 
ATOM      2  C   UNL     1       3.459   3.340  18.382  0.00  0.00    +0.000 C 
ATOM      3  C   UNL     1       3.567   3.306  19.902  0.00  0.00    +0.000 C 
ATOM      4  O   UNL     1       2.645   4.206  20.520  0.00  0.00    +0.000 OA
ATOM      5  C   UNL     1       2.618   5.441  19.915  0.00  0.00    +0.000 A 
ATOM      6  C   UNL     1       1.941   6.429  20.633  0.00  0.00    +0.000 A 
ATOM      7  C   UNL     1       1.840   7.716  20.106  0.00  0.00    +0.000 A 
ATOM      8  C   UNL     1       2.381   8.013  18.858  0.00  0.00    +0.000 A 
ATOM      9  C   UNL     1       3.040   7.010  18.136  0.00  0.00    +0.000 A 
ATOM     10  C   UNL     1       3.186   5.709  18.647  0.00  0.00    +0.000 A 
ENDROOT
BRANCH   1  15
ATOM     11  C   UNL     1       7.687   5.013  13.644  0.00  0.00    +0.000 C 
ATOM     12  C   UNL     1       6.684   4.957  14.753  0.00  0.00    +0.000 A 
ATOM     13  C   UNL     1       6.972   5.461  16.020  0.00  0.00    +0.000 A 
ATOM     14  C   UNL     1       6.026   5.361  17.049  0.00  0.00    +0.000 A 
ATOM     15  C   UNL     1       4.760   4.785  16.848  0.00  0.00    +0.000 A 
ATOM     16  C   UNL     1       4.483   4.302  15.561  0.00  0.00    +0.000 A 
ATOM     17  C   UNL     1       5.434   4.381  14.543  0.00  0.00    +0.000 A 
ATOM     18  F   UNL     1       5.126   3.881  13.336  0.00  0.00    +0.000 F 
ENDBRANCH   1  15
BRANCH   7  19
ATOM     19  S   UNL     1       0.874   8.931  20.962  0.00  0.00    +0.000 S 
ATOM     20  O   UNL     1      -0.509   8.511  20.893  0.00  0.00    +0.000 OA
ATOM     21  O   UNL     1       1.513   9.178  22.235  0.00  0.00    +0.000 OA
BRANCH  19  22
ATOM     22  N   UNL     1       0.994  10.269  19.930  0.00  0.00    +0.000 N 
ATOM     23  C   UNL     1      -0.281  10.756  19.571  0.00  0.00    +0.000 A 
ATOM     24  N   UNL     1      -0.776  10.439  18.402  0.00  0.00    +0.000 NA
ATOM     25  C   UNL     1      -2.036  10.997  18.289  0.00  0.00    +0.000 A 
ATOM     26  C   UNL     1      -2.417  11.825  19.325  0.00  0.00    +0.000 A 
ATOM     27  S   UNL     1      -1.181  11.858  20.516  0.00  0.00    +0.000 S 
ATOM     28  H   UNL     1       1.453   9.922  19.087  0.00  0.00    +0.000 HD
ENDBRANCH  19  22
ENDBRANCH   7  19
TORSDOF 3
ENDMDL
MODEL 8
REMARK VINA RESULT:      -7.9      2.366      2.806
REMARK  Name = 
REMARK  4 active torsions:
REMARK  status: ('A' for Active; 'I' for Inactive)
REMARK    1  A    between atoms: C_1  and  C_2
REMARK    2  A    between atoms: C_5  and  N_6
REMARK    3  A    between atoms: C_12  and  S_13
REMARK    4  A    between atoms: S_13  and  N_16
REMARK                            x       y       z     vdW  Elec       q    Type
REMARK                         _______ _______ _______ _____ _____    ______ ____
ROOT
ATOM      1  N   UNL     1       3.776   4.561  18.108  0.00  0.00    +0.000 N 
ATOM      2  C   UNL     1       3.439   3.203  18.567  0.00  0.00    +0.000 C 
ATOM      3  C   UNL     1       3.537   3.152  20.087  0.00  0.00    +0.000 C 
ATOM      4  O   UNL     1       2.584   4.017  20.710  0.00  0.00    +0.000 OA
ATOM      5  C   UNL     1       2.527   5.258  20.121  0.00  0.00    +0.000 A 
ATOM      6  C   UNL     1       1.816   6.217  20.846  0.00  0.00    +0.000 A 
ATOM      7  C   UNL     1       1.683   7.508  20.335  0.00  0.00    +0.000 A 
ATOM      8  C   UNL     1       2.225   7.836  19.096  0.00  0.00    +0.000 A 
ATOM      9  C   UNL     1       2.918   6.863  18.366  0.00  0.00    +0.000 A 
ATOM     10  C   UNL     1       3.097   5.560  18.861  0.00  0.00    +0.000 A 
ENDROOT
BRANCH   1  15
ATOM     11  C   UNL     1       7.650   5.052  13.881  0.00  0.00    +0.000 C 
ATOM     12  C   UNL     1       6.644   4.955  14.985  0.00  0.00    +0.000 A 
ATOM     13  C   UNL     1       6.952   5.347  16.286  0.00  0.00    +0.000 A 
ATOM     14  C   UNL     1       6.000   5.209  17.306  0.00  0.00    +0.000 A 
ATOM     15  C   UNL     1       4.711   4.705  17.063  0.00  0.00    +0.000 A 
ATOM     16  C   UNL     1       4.416   4.334  15.744  0.00  0.00    +0.000 A 
ATOM     17  C   UNL     1       5.371   4.450  14.733  0.00  0.00    +0.000 A 
ATOM     18  F   UNL     1       5.044   4.058  13.492  0.00  0.00    +0.000 F 
ENDBRANCH   1  15
BRANCH   7  19
ATOM     19  S   UNL     1       0.676   8.683  21.198  0.00  0.00    +0.000 S 
ATOM     20  O   UNL     1      -0.537   8.002  21.601  0.00  0.00    +0.000 OA
ATOM     21  O   UNL     1       1.515   9.344  22.173  0.00  0.00    +0.000 OA
BRANCH  19  22
ATOM     22  N   UNL     1       0.213   9.735  19.953  0.00  0.00    +0.000 N 
ATOM     23  C   UNL     1      -0.022  11.038  20.443  0.00  0.00    +0.000 A 
ATOM     24  N   UNL     1      -1.255  11.426  20.648  0.00  0.00    +0.000 NA
ATOM     25  C   UNL     1      -1.235  12.712  21.156  0.00  0.00    +0.000 A 
ATOM     26  C   UNL     1       0.006  13.313  21.208  0.00  0.00    +0.000 A 
ATOM     27  S   UNL     1       1.202  12.209  20.663  0.00  0.00    +0.000 S 
ATOM     28  H   UNL     1      -0.668   9.363  19.597  0.00  0.00    +0.000 HD
ENDBRANCH  19  22
ENDBRANCH   7  19
TORSDOF 3
ENDMDL
MODEL 9
REMARK VINA RESULT:      -7.9      2.003      2.426
REMARK  Name = 
REMARK  4 active torsions:
REMARK  status: ('A' for Active; 'I' for Inactive)
REMARK    1  A    between atoms: C_1  and  C_2
REMARK    2  A    between atoms: C_5  and  N_6
REMARK    3  A    between atoms: C_12  and  S_13
REMARK    4  A    between atoms: S_13  and  N_16
REMARK                            x       y       z     vdW  Elec       q    Type
REMARK                         _______ _______ _______ _____ _____    ______ ____
ROOT
ATOM      1  N   UNL     1       3.119   5.086  18.471  0.00  0.00    +0.000 N 
ATOM      2  C   UNL     1       2.683   3.790  19.018  0.00  0.00    +0.000 C 
ATOM      3  C   UNL     1       2.783   3.831  20.538  0.00  0.00    +0.000 C 
ATOM      4  O   UNL     1       1.901   4.804  21.102  0.00  0.00    +0.000 OA
ATOM      5  C   UNL     1       1.935   6.005  20.433  0.00  0.00    +0.000 A 
ATOM      6  C   UNL     1       1.302   7.060  21.093  0.00  0.00    +0.000 A 
ATOM      7  C   UNL     1       1.264   8.322  20.499  0.00  0.00    +0.000 A 
ATOM      8  C   UNL     1       1.824   8.526  19.241  0.00  0.00    +0.000 A 
ATOM      9  C   UNL     1       2.439   7.458  18.578  0.00  0.00    +0.000 A 
ATOM     10  C   UNL     1       2.521   6.180  19.157  0.00  0.00    +0.000 A 
ENDROOT
BRANCH   1  15
ATOM     11  C   UNL     1       7.037   5.127  14.255  0.00  0.00    +0.000 C 
ATOM     12  C   UNL     1       5.999   5.133  15.334  0.00  0.00    +0.000 A 
ATOM     13  C   UNL     1       5.512   6.323  15.869  0.00  0.00    +0.000 A 
ATOM     14  C   UNL     1       4.567   6.295  16.904  0.00  0.00    +0.000 A 
ATOM     15  C   UNL     1       4.058   5.090  17.420  0.00  0.00    +0.000 A 
ATOM     16  C   UNL     1       4.547   3.905  16.854  0.00  0.00    +0.000 A 
ATOM     17  C   UNL     1       5.506   3.933  15.840  0.00  0.00    +0.000 A 
ATOM     18  F   UNL     1       5.958   2.768  15.351  0.00  0.00    +0.000 F 
ENDBRANCH   1  15
BRANCH   7  19
ATOM     19  S   UNL     1       0.352   9.623  21.283  0.00  0.00    +0.000 S 
ATOM     20  O   UNL     1      -0.576   9.006  22.207  0.00  0.00    +0.000 OA
ATOM     21  O   UNL     1       1.305  10.611  21.736  0.00  0.00    +0.000 OA
BRANCH  19  22
ATOM     22  N   UNL     1      -0.598  10.208  20.007  0.00  0.00    +0.000 N 
ATOM     23  C   UNL     1      -0.389  11.588  19.802  0.00  0.00    +0.000 A 
ATOM     24  N   UNL     1      -1.262  12.440  20.276  0.00  0.00    +0.000 NA
ATOM     25  C   UNL     1      -0.831  13.721  19.984  0.00  0.00    +0.000 A 
ATOM     26  C   UNL     1       0.294  13.807  19.191  0.00  0.00    +0.000 A 
ATOM     27  S   UNL     1       0.874  12.229  18.847  0.00  0.00    +0.000 S 
ATOM     28  H   UNL     1      -1.565  10.071  20.304  0.00  0.00    +0.000 HD
ENDBRANCH  19  22
ENDBRANCH   7  19
TORSDOF 3
ENDMDL
