MODEL 1
REMARK VINA RESULT:      -7.7      0.000      0.000
REMARK  Name = 
REMARK  6 active torsions:
REMARK  status: ('A' for Active; 'I' for Inactive)
REMARK    1  A    between atoms: C_1  and  C_2
REMARK    2  A    between atoms: C_2  and  C_3
REMARK    3  A    between atoms: C_2  and  N_4
REMARK    4  A    between atoms: N_4  and  C_5
REMARK    5  A    between atoms: N_13  and  C_14
REMARK    6  A    between atoms: C_14  and  C_15
REMARK                            x       y       z     vdW  Elec       q    Type
REMARK                         _______ _______ _______ _____ _____    ______ ____
ROOT
ATOM      1  C   UNL     1       6.491   6.439  16.557  0.00  0.00    +0.000 A 
ATOM      2  N   UNL     1       7.220   5.508  15.895  0.00  0.00    +0.000 NA
ATOM      3  C   UNL     1       6.709   4.270  15.724  0.00  0.00    +0.000 A 
ATOM      4  N   UNL     1       5.517   3.803  16.133  0.00  0.00    +0.000 NA
ATOM      5  C   UNL     1       4.815   4.751  16.769  0.00  0.00    +0.000 A 
ATOM      6  C   UNL     1       5.221   6.053  17.014  0.00  0.00    +0.000 A 
ATOM      7  C   UNL     1       4.140   6.626  17.714  0.00  0.00    +0.000 A 
ATOM      8  N   UNL     1       3.129   5.773  17.915  0.00  0.00    +0.000 NA
ATOM      9  N   UNL     1       3.570   4.626  17.333  0.00  0.00    +0.000 N 
ENDROOT
BRANCH   1  10
ATOM     10  N   UNL     1       7.014   7.714  16.787  0.00  0.00    +0.000 N 
ATOM     11  H   UNL     1       7.065   8.265  15.938  0.00  0.00    +0.000 HD
BRANCH  10  13
ATOM     12  C   UNL     1       8.304   9.260  18.152  0.00  0.00    +0.000 C 
ATOM     13  C   UNL     1       8.186   7.814  17.659  0.00  0.00    +0.000 C 
ATOM     14  C   UNL     1       8.055   6.879  18.861  0.00  0.00    +0.000 C 
ENDBRANCH  10  13
ENDBRANCH   1  10
BRANCH   9  15
ATOM     15  C   UNL     1       2.798   3.394  17.464  0.00  0.00    +0.000 C 
BRANCH  15  16
ATOM     16  C   UNL     1       2.326   3.152  18.880  0.00  0.00    +0.000 A 
ATOM     17  C   UNL     1       0.957   3.295  19.181  0.00  0.00    +0.000 A 
ATOM     18  C   UNL     1       0.470   3.064  20.469  0.00  0.00    +0.000 A 
ATOM     19  C   UNL     1       1.344   2.696  21.487  0.00  0.00    +0.000 A 
ATOM     20  C   UNL     1       2.707   2.582  21.219  0.00  0.00    +0.000 A 
ATOM     21  C   UNL     1       3.198   2.816  19.928  0.00  0.00    +0.000 A 
ATOM     22 CL   UNL     1       4.908   2.699  19.708  0.00  0.00    +0.000 Cl
ENDBRANCH  15  16
ENDBRANCH   9  15
TORSDOF 4
ENDMDL
MODEL 2
REMARK VINA RESULT:      -7.5      0.786      1.100
REMARK  Name = 
REMARK  6 active torsions:
REMARK  status: ('A' for Active; 'I' for Inactive)
REMARK    1  A    between atoms: C_1  and  C_2
REMARK    2  A    between atoms: C_2  and  C_3
REMARK    3  A    between atoms: C_2  and  N_4
REMARK    4  A    between atoms: N_4  and  C_5
REMARK    5  A    between atoms: N_13  and  C_14
REMARK    6  A    between atoms: C_14  and  C_15
REMARK                            x       y       z     vdW  Elec       q    Type
REMARK                         _______ _______ _______ _____ _____    ______ ____
ROOT
ATOM      1  C   UNL     1       6.782   5.926  16.409  0.00  0.00    +0.000 A 
ATOM      2  N   UNL     1       7.285   4.841  15.773  0.00  0.00    +0.000 NA
ATOM      3  C   UNL     1       6.500   3.756  15.598  0.00  0.00    +0.000 A 
ATOM      4  N   UNL     1       5.223   3.589  15.981  0.00  0.00    +0.000 NA
ATOM      5  C   UNL     1       4.751   4.685  16.592  0.00  0.00    +0.000 A 
ATOM      6  C   UNL     1       5.447   5.857  16.838  0.00  0.00    +0.000 A 
ATOM      7  C   UNL     1       4.517   6.678  17.507  0.00  0.00    +0.000 A 
ATOM      8  N   UNL     1       3.328   6.090  17.688  0.00  0.00    +0.000 NA
ATOM      9  N   UNL     1       3.499   4.865  17.126  0.00  0.00    +0.000 N 
ENDROOT
BRANCH   1  10
ATOM     10  N   UNL     1       7.587   7.044  16.643  0.00  0.00    +0.000 N 
ATOM     11  H   UNL     1       8.504   6.949  16.222  0.00  0.00    +0.000 HD
BRANCH  10  13
ATOM     12  C   UNL     1       8.213   6.583  18.948  0.00  0.00    +0.000 C 
ATOM     13  C   UNL     1       7.584   7.605  17.996  0.00  0.00    +0.000 C 
ATOM     14  C   UNL     1       8.386   8.906  18.051  0.00  0.00    +0.000 C 
ENDBRANCH  10  13
ENDBRANCH   1  10
BRANCH   9  15
ATOM     15  C   UNL     1       2.454   3.852  17.246  0.00  0.00    +0.000 C 
BRANCH  15  16
ATOM     16  C   UNL     1       2.161   3.488  18.684  0.00  0.00    +0.000 A 
ATOM     17  C   UNL     1       1.332   4.331  19.450  0.00  0.00    +0.000 A 
ATOM     18  C   UNL     1       1.017   4.027  20.776  0.00  0.00    +0.000 A 
ATOM     19  C   UNL     1       1.534   2.880  21.368  0.00  0.00    +0.000 A 
ATOM     20  C   UNL     1       2.385   2.050  20.640  0.00  0.00    +0.000 A 
ATOM     21  C   UNL     1       2.704   2.354  19.310  0.00  0.00    +0.000 A 
ATOM     22 CL   UNL     1       3.806   1.291  18.508  0.00  0.00    +0.000 Cl
ENDBRANCH  15  16
ENDBRANCH   9  15
TORSDOF 4
ENDMDL
MODEL 3
REMARK VINA RESULT:      -7.2      4.229      6.251
REMARK  Name = 
REMARK  6 active torsions:
REMARK  status: ('A' for Active; 'I' for Inactive)
REMARK    1  A    between atoms: C_1  and  C_2
REMARK    2  A    between atoms: C_2  and  C_3
REMARK    3  A    between atoms: C_2  and  N_4
REMARK    4  A    between atoms: N_4  and  C_5
REMARK    5  A    between atoms: N_13  and  C_14
REMARK    6  A    between atoms: C_14  and  C_15
REMARK                            x       y       z     vdW  Elec       q    Type
REMARK                         _______ _______ _______ _____ _____    ______ ____
ROOT
ATOM      1  C   UNL     1       0.430   9.775  19.480  0.00  0.00    +0.000 A 
ATOM      2  N   UNL     1       0.066   9.655  20.780  0.00  0.00    +0.000 NA
ATOM      3  C   UNL     1       0.613   8.674  21.529  0.00  0.00    +0.000 A 
ATOM      4  N   UNL     1       1.516   7.751  21.154  0.00  0.00    +0.000 NA
ATOM      5  C   UNL     1       1.866   7.908  19.869  0.00  0.00    +0.000 A 
ATOM      6  C   UNL     1       1.381   8.865  18.993  0.00  0.00    +0.000 A 
ATOM      7  C   UNL     1       2.049   8.595  17.781  0.00  0.00    +0.000 A 
ATOM      8  N   UNL     1       2.883   7.551  17.859  0.00  0.00    +0.000 NA
ATOM      9  N   UNL     1       2.746   7.141  19.148  0.00  0.00    +0.000 N 
ENDROOT
BRANCH   1  10
ATOM     10  N   UNL     1      -0.154  10.754  18.671  0.00  0.00    +0.000 N 
ATOM     11  H   UNL     1       0.175  11.684  18.899  0.00  0.00    +0.000 HD
BRANCH  10  13
ATOM     12  C   UNL     1      -2.193  12.062  18.455  0.00  0.00    +0.000 C 
ATOM     13  C   UNL     1      -1.594  10.652  18.423  0.00  0.00    +0.000 C 
ATOM     14  C   UNL     1      -1.871  10.017  17.060  0.00  0.00    +0.000 C 
ENDBRANCH  10  13
ENDBRANCH   1  10
BRANCH   9  15
ATOM     15  C   UNL     1       3.398   5.915  19.599  0.00  0.00    +0.000 C 
BRANCH  15  16
ATOM     16  C   UNL     1       2.579   4.679  19.305  0.00  0.00    +0.000 A 
ATOM     17  C   UNL     1       1.587   4.279  20.222  0.00  0.00    +0.000 A 
ATOM     18  C   UNL     1       0.792   3.155  19.986  0.00  0.00    +0.000 A 
ATOM     19  C   UNL     1       0.981   2.401  18.832  0.00  0.00    +0.000 A 
ATOM     20  C   UNL     1       1.979   2.759  17.928  0.00  0.00    +0.000 A 
ATOM     21  C   UNL     1       2.779   3.884  18.165  0.00  0.00    +0.000 A 
ATOM     22 CL   UNL     1       4.023   4.216  17.011  0.00  0.00    +0.000 Cl
ENDBRANCH  15  16
ENDBRANCH   9  15
TORSDOF 4
ENDMDL
MODEL 4
REMARK VINA RESULT:      -7.2      2.351      3.449
REMARK  Name = 
REMARK  6 active torsions:
REMARK  status: ('A' for Active; 'I' for Inactive)
REMARK    1  A    between atoms: C_1  and  C_2
REMARK    2  A    between atoms: C_2  and  C_3
REMARK    3  A    between atoms: C_2  and  N_4
REMARK    4  A    between atoms: N_4  and  C_5
REMARK    5  A    between atoms: N_13  and  C_14
REMARK    6  A    between atoms: C_14  and  C_15
REMARK                            x       y       z     vdW  Elec       q    Type
REMARK                         _______ _______ _______ _____ _____    ______ ____
ROOT
ATOM      1  C   UNL     1       7.065   5.204  15.780  0.00  0.00    +0.000 A 
ATOM      2  N   UNL     1       7.983   4.504  16.490  0.00  0.00    +0.000 NA
ATOM      3  C   UNL     1       7.755   4.257  17.798  0.00  0.00    +0.000 A 
ATOM      4  N   UNL     1       6.694   4.622  18.537  0.00  0.00    +0.000 NA
ATOM      5  C   UNL     1       5.799   5.298  17.802  0.00  0.00    +0.000 A 
ATOM      6  C   UNL     1       5.909   5.621  16.460  0.00  0.00    +0.000 A 
ATOM      7  C   UNL     1       4.727   6.334  16.177  0.00  0.00    +0.000 A 
ATOM      8  N   UNL     1       3.926   6.472  17.240  0.00  0.00    +0.000 NA
ATOM      9  N   UNL     1       4.610   5.835  18.228  0.00  0.00    +0.000 N 
ENDROOT
BRANCH   1  10
ATOM     10  N   UNL     1       7.297   5.512  14.437  0.00  0.00    +0.000 N 
ATOM     11  H   UNL     1       6.839   6.371  14.158  0.00  0.00    +0.000 HD
BRANCH  10  13
ATOM     12  C   UNL     1       5.780   3.841  13.530  0.00  0.00    +0.000 C 
ATOM     13  C   UNL     1       7.198   4.418  13.468  0.00  0.00    +0.000 C 
ATOM     14  C   UNL     1       7.479   4.914  12.050  0.00  0.00    +0.000 C 
ENDBRANCH  10  13
ENDBRANCH   1  10
BRANCH   9  15
ATOM     15  C   UNL     1       4.125   5.887  19.604  0.00  0.00    +0.000 C 
BRANCH  15  16
ATOM     16  C   UNL     1       3.065   4.848  19.886  0.00  0.00    +0.000 A 
ATOM     17  C   UNL     1       3.323   3.500  19.565  0.00  0.00    +0.000 A 
ATOM     18  C   UNL     1       2.382   2.500  19.824  0.00  0.00    +0.000 A 
ATOM     19  C   UNL     1       1.159   2.829  20.399  0.00  0.00    +0.000 A 
ATOM     20  C   UNL     1       0.870   4.161  20.694  0.00  0.00    +0.000 A 
ATOM     21  C   UNL     1       1.811   5.165  20.432  0.00  0.00    +0.000 A 
ATOM     22 CL   UNL     1       1.339   6.790  20.786  0.00  0.00    +0.000 Cl
ENDBRANCH  15  16
ENDBRANCH   9  15
TORSDOF 4
ENDMDL
MODEL 5
REMARK VINA RESULT:      -7.1      2.035      3.114
REMARK  Name = 
REMARK  6 active torsions:
REMARK  status: ('A' for Active; 'I' for Inactive)
REMARK    1  A    between atoms: C_1  and  C_2
REMARK    2  A    between atoms: C_2  and  C_3
REMARK    3  A    between atoms: C_2  and  N_4
REMARK    4  A    between atoms: N_4  and  C_5
REMARK    5  A    between atoms: N_13  and  C_14
REMARK    6  A    between atoms: C_14  and  C_15
REMARK                            x       y       z     vdW  Elec       q    Type
REMARK                         _______ _______ _______ _____ _____    ______ ____
ROOT
ATOM      1  C   UNL     1       6.947   5.183  15.760  0.00  0.00    +0.000 A 
ATOM      2  N   UNL     1       7.974   4.578  16.403  0.00  0.00    +0.000 NA
ATOM      3  C   UNL     1       7.857   4.301  17.719  0.00  0.00    +0.000 A 
ATOM      4  N   UNL     1       6.812   4.551  18.527  0.00  0.00    +0.000 NA
ATOM      5  C   UNL     1       5.808   5.135  17.858  0.00  0.00    +0.000 A 
ATOM      6  C   UNL     1       5.800   5.475  16.515  0.00  0.00    +0.000 A 
ATOM      7  C   UNL     1       4.535   6.064  16.315  0.00  0.00    +0.000 A 
ATOM      8  N   UNL     1       3.794   6.113  17.428  0.00  0.00    +0.000 NA
ATOM      9  N   UNL     1       4.600   5.544  18.363  0.00  0.00    +0.000 N 
ENDROOT
BRANCH   1  10
ATOM     10  N   UNL     1       7.060   5.521  14.408  0.00  0.00    +0.000 N 
ATOM     11  H   UNL     1       6.458   6.296  14.157  0.00  0.00    +0.000 HD
BRANCH  10  13
ATOM     12  C   UNL     1       5.692   3.795  13.375  0.00  0.00    +0.000 C 
ATOM     13  C   UNL     1       7.088   4.423  13.440  0.00  0.00    +0.000 C 
ATOM     14  C   UNL     1       7.479   4.928  12.051  0.00  0.00    +0.000 C 
ENDBRANCH  10  13
ENDBRANCH   1  10
BRANCH   9  15
ATOM     15  C   UNL     1       4.201   5.538  19.768  0.00  0.00    +0.000 C 
BRANCH  15  16
ATOM     16  C   UNL     1       3.030   4.621  20.035  0.00  0.00    +0.000 A 
ATOM     17  C   UNL     1       1.751   5.180  20.229  0.00  0.00    +0.000 A 
ATOM     18  C   UNL     1       0.634   4.373  20.461  0.00  0.00    +0.000 A 
ATOM     19  C   UNL     1       0.776   2.991  20.514  0.00  0.00    +0.000 A 
ATOM     20  C   UNL     1       2.037   2.418  20.359  0.00  0.00    +0.000 A 
ATOM     21  C   UNL     1       3.158   3.226  20.130  0.00  0.00    +0.000 A 
ATOM     22 CL   UNL     1       4.685   2.426  20.001  0.00  0.00    +0.000 Cl
ENDBRANCH  15  16
ENDBRANCH   9  15
TORSDOF 4
ENDMDL
MODEL 6
REMARK VINA RESULT:      -7.0      0.965      1.012
REMARK  Name = 
REMARK  6 active torsions:
REMARK  status: ('A' for Active; 'I' for Inactive)
REMARK    1  A    between atoms: C_1  and  C_2
REMARK    2  A    between atoms: C_2  and  C_3
REMARK    3  A    between atoms: C_2  and  N_4
REMARK    4  A    between atoms: N_4  and  C_5
REMARK    5  A    between atoms: N_13  and  C_14
REMARK    6  A    between atoms: C_14  and  C_15
REMARK                            x       y       z     vdW  Elec       q    Type
REMARK                         _______ _______ _______ _____ _____    ______ ____
ROOT
ATOM      1  C   UNL     1       6.021   6.593  16.753  0.00  0.00    +0.000 A 
ATOM      2  N   UNL     1       6.602   5.503  16.194  0.00  0.00    +0.000 NA
ATOM      3  C   UNL     1       5.896   4.356  16.101  0.00  0.00    +0.000 A 
ATOM      4  N   UNL     1       4.634   4.125  16.500  0.00  0.00    +0.000 NA
ATOM      5  C   UNL     1       4.084   5.226  17.032  0.00  0.00    +0.000 A 
ATOM      6  C   UNL     1       4.694   6.459  17.191  0.00  0.00    +0.000 A 
ATOM      7  C   UNL     1       3.707   7.258  17.802  0.00  0.00    +0.000 A 
ATOM      8  N   UNL     1       2.563   6.601  18.029  0.00  0.00    +0.000 NA
ATOM      9  N   UNL     1       2.822   5.354  17.556  0.00  0.00    +0.000 N 
ENDROOT
BRANCH   1  10
ATOM     10  N   UNL     1       6.744   7.780  16.903  0.00  0.00    +0.000 N 
ATOM     11  H   UNL     1       6.762   8.325  16.049  0.00  0.00    +0.000 HD
BRANCH  10  13
ATOM     12  C   UNL     1       8.341   9.093  18.183  0.00  0.00    +0.000 C 
ATOM     13  C   UNL     1       8.020   7.706  17.616  0.00  0.00    +0.000 C 
ATOM     14  C   UNL     1       7.950   6.696  18.762  0.00  0.00    +0.000 C 
ENDBRANCH  10  13
ENDBRANCH   1  10
BRANCH   9  15
ATOM     15  C   UNL     1       1.852   4.280  17.754  0.00  0.00    +0.000 C 
BRANCH  15  16
ATOM     16  C   UNL     1       1.964   3.640  19.118  0.00  0.00    +0.000 A 
ATOM     17  C   UNL     1       1.360   4.272  20.224  0.00  0.00    +0.000 A 
ATOM     18  C   UNL     1       1.420   3.710  21.501  0.00  0.00    +0.000 A 
ATOM     19  C   UNL     1       2.094   2.510  21.702  0.00  0.00    +0.000 A 
ATOM     20  C   UNL     1       2.728   1.885  20.629  0.00  0.00    +0.000 A 
ATOM     21  C   UNL     1       2.671   2.449  19.347  0.00  0.00    +0.000 A 
ATOM     22 CL   UNL     1       3.530   1.626  18.093  0.00  0.00    +0.000 Cl
ENDBRANCH  15  16
ENDBRANCH   9  15
TORSDOF 4
ENDMDL
MODEL 7
REMARK VINA RESULT:      -7.0      5.636      7.666
REMARK  Name = 
REMARK  6 active torsions:
REMARK  status: ('A' for Active; 'I' for Inactive)
REMARK    1  A    between atoms: C_1  and  C_2
REMARK    2  A    between atoms: C_2  and  C_3
REMARK    3  A    between atoms: C_2  and  N_4
REMARK    4  A    between atoms: N_4  and  C_5
REMARK    5  A    between atoms: N_13  and  C_14
REMARK    6  A    between atoms: C_14  and  C_15
REMARK                            x       y       z     vdW  Elec       q    Type
REMARK                         _______ _______ _______ _____ _____    ______ ____
ROOT
ATOM      1  C   UNL     1       2.437   6.457  20.026  0.00  0.00    +0.000 A 
ATOM      2  N   UNL     1       3.105   6.294  18.858  0.00  0.00    +0.000 NA
ATOM      3  C   UNL     1       3.058   7.273  17.930  0.00  0.00    +0.000 A 
ATOM      4  N   UNL     1       2.411   8.449  17.999  0.00  0.00    +0.000 NA
ATOM      5  C   UNL     1       1.775   8.585  19.172  0.00  0.00    +0.000 A 
ATOM      6  C   UNL     1       1.740   7.662  20.203  0.00  0.00    +0.000 A 
ATOM      7  C   UNL     1       0.938   8.274  21.188  0.00  0.00    +0.000 A 
ATOM      8  N   UNL     1       0.486   9.480  20.826  0.00  0.00    +0.000 NA
ATOM      9  N   UNL     1       1.005   9.645  19.581  0.00  0.00    +0.000 N 
ENDROOT
BRANCH   1  10
ATOM     10  N   UNL     1       2.433   5.440  20.985  0.00  0.00    +0.000 N 
ATOM     11  H   UNL     1       3.193   5.539  21.648  0.00  0.00    +0.000 HD
BRANCH  10  13
ATOM     12  C   UNL     1       2.433   3.112  21.687  0.00  0.00    +0.000 C 
ATOM     13  C   UNL     1       2.195   4.073  20.518  0.00  0.00    +0.000 C 
ATOM     14  C   UNL     1       0.762   3.909  20.012  0.00  0.00    +0.000 C 
ENDBRANCH  10  13
ENDBRANCH   1  10
BRANCH   9  15
ATOM     15  C   UNL     1       0.618  10.799  18.774  0.00  0.00    +0.000 C 
BRANCH  15  16
ATOM     16  C   UNL     1      -0.853  10.801  18.430  0.00  0.00    +0.000 A 
ATOM     17  C   UNL     1      -1.336   9.883  17.476  0.00  0.00    +0.000 A 
ATOM     18  C   UNL     1      -2.691   9.834  17.138  0.00  0.00    +0.000 A 
ATOM     19  C   UNL     1      -3.589  10.708  17.740  0.00  0.00    +0.000 A 
ATOM     20  C   UNL     1      -3.128  11.647  18.662  0.00  0.00    +0.000 A 
ATOM     21  C   UNL     1      -1.769  11.700  18.999  0.00  0.00    +0.000 A 
ATOM     22 CL   UNL     1      -1.288  12.931  20.113  0.00  0.00    +0.000 Cl
ENDBRANCH  15  16
ENDBRANCH   9  15
TORSDOF 4
ENDMDL
MODEL 8
REMARK VINA RESULT:      -7.0      1.510      1.779
REMARK  Name = 
REMARK  6 active torsions:
REMARK  status: ('A' for Active; 'I' for Inactive)
REMARK    1  A    between atoms: C_1  and  C_2
REMARK    2  A    between atoms: C_2  and  C_3
REMARK    3  A    between atoms: C_2  and  N_4
REMARK    4  A    between atoms: N_4  and  C_5
REMARK    5  A    between atoms: N_13  and  C_14
REMARK    6  A    between atoms: C_14  and  C_15
REMARK                            x       y       z     vdW  Elec       q    Type
REMARK                         _______ _______ _______ _____ _____    ______ ____
ROOT
ATOM      1  C   UNL     1       6.235   5.902  16.637  0.00  0.00    +0.000 A 
ATOM      2  N   UNL     1       6.510   4.647  16.207  0.00  0.00    +0.000 NA
ATOM      3  C   UNL     1       5.538   3.710  16.243  0.00  0.00    +0.000 A 
ATOM      4  N   UNL     1       4.270   3.849  16.665  0.00  0.00    +0.000 NA
ATOM      5  C   UNL     1       4.026   5.105  17.068  0.00  0.00    +0.000 A 
ATOM      6  C   UNL     1       4.928   6.155  17.086  0.00  0.00    +0.000 A 
ATOM      7  C   UNL     1       4.189   7.238  17.601  0.00  0.00    +0.000 A 
ATOM      8  N   UNL     1       2.924   6.919  17.900  0.00  0.00    +0.000 NA
ATOM      9  N   UNL     1       2.851   5.602  17.572  0.00  0.00    +0.000 N 
ENDROOT
BRANCH   1  10
ATOM     10  N   UNL     1       7.234   6.879  16.652  0.00  0.00    +0.000 N 
ATOM     11  H   UNL     1       8.075   6.572  16.178  0.00  0.00    +0.000 HD
BRANCH  10  13
ATOM     12  C   UNL     1       8.195   6.657  18.875  0.00  0.00    +0.000 C 
ATOM     13  C   UNL     1       7.460   7.593  17.910  0.00  0.00    +0.000 C 
ATOM     14  C   UNL     1       8.304   8.848  17.684  0.00  0.00    +0.000 C 
ENDBRANCH  10  13
ENDBRANCH   1  10
BRANCH   9  15
ATOM     15  C   UNL     1       1.650   4.834  17.889  0.00  0.00    +0.000 C 
BRANCH  15  16
ATOM     16  C   UNL     1       1.796   4.022  19.155  0.00  0.00    +0.000 A 
ATOM     17  C   UNL     1       1.879   2.618  19.064  0.00  0.00    +0.000 A 
ATOM     18  C   UNL     1       2.033   1.825  20.203  0.00  0.00    +0.000 A 
ATOM     19  C   UNL     1       2.098   2.419  21.459  0.00  0.00    +0.000 A 
ATOM     20  C   UNL     1       1.984   3.804  21.576  0.00  0.00    +0.000 A 
ATOM     21  C   UNL     1       1.826   4.600  20.435  0.00  0.00    +0.000 A 
ATOM     22 CL   UNL     1       1.644   6.300  20.687  0.00  0.00    +0.000 Cl
ENDBRANCH  15  16
ENDBRANCH   9  15
TORSDOF 4
ENDMDL
MODEL 9
REMARK VINA RESULT:      -6.9      2.130      3.074
REMARK  Name = 
REMARK  6 active torsions:
REMARK  status: ('A' for Active; 'I' for Inactive)
REMARK    1  A    between atoms: C_1  and  C_2
REMARK    2  A    between atoms: C_2  and  C_3
REMARK    3  A    between atoms: C_2  and  N_4
REMARK    4  A    between atoms: N_4  and  C_5
REMARK    5  A    between atoms: N_13  and  C_14
REMARK    6  A    between atoms: C_14  and  C_15
REMARK                            x       y       z     vdW  Elec       q    Type
REMARK                         _______ _______ _______ _____ _____    ______ ____
ROOT
ATOM      1  C   UNL     1       6.817   5.386  16.785  0.00  0.00    +0.000 A 
ATOM      2  N   UNL     1       7.416   4.613  17.722  0.00  0.00    +0.000 NA
ATOM      3  C   UNL     1       6.787   4.394  18.897  0.00  0.00    +0.000 A 
ATOM      4  N   UNL     1       5.587   4.854  19.292  0.00  0.00    +0.000 NA
ATOM      5  C   UNL     1       5.015   5.601  18.337  0.00  0.00    +0.000 A 
ATOM      6  C   UNL     1       5.550   5.905  17.096  0.00  0.00    +0.000 A 
ATOM      7  C   UNL     1       4.572   6.717  16.487  0.00  0.00    +0.000 A 
ATOM      8  N   UNL     1       3.503   6.930  17.265  0.00  0.00    +0.000 NA
ATOM      9  N   UNL     1       3.803   6.241  18.398  0.00  0.00    +0.000 N 
ENDROOT
BRANCH   1  10
ATOM     10  N   UNL     1       7.466   5.666  15.579  0.00  0.00    +0.000 N 
ATOM     11  H   UNL     1       7.819   6.614  15.546  0.00  0.00    +0.000 HD
BRANCH  10  13
ATOM     12  C   UNL     1       7.862   5.230  13.219  0.00  0.00    +0.000 C 
ATOM     13  C   UNL     1       6.825   5.203  14.346  0.00  0.00    +0.000 C 
ATOM     14  C   UNL     1       6.292   3.779  14.508  0.00  0.00    +0.000 C 
ENDBRANCH  10  13
ENDBRANCH   1  10
BRANCH   9  15
ATOM     15  C   UNL     1       2.933   6.343  19.567  0.00  0.00    +0.000 C 
BRANCH  15  16
ATOM     16  C   UNL     1       2.356   5.008  19.979  0.00  0.00    +0.000 A 
ATOM     17  C   UNL     1       2.584   4.536  21.287  0.00  0.00    +0.000 A 
ATOM     18  C   UNL     1       2.056   3.318  21.721  0.00  0.00    +0.000 A 
ATOM     19  C   UNL     1       1.298   2.541  20.851  0.00  0.00    +0.000 A 
ATOM     20  C   UNL     1       1.088   2.972  19.543  0.00  0.00    +0.000 A 
ATOM     21  C   UNL     1       1.619   4.192  19.105  0.00  0.00    +0.000 A 
ATOM     22 CL   UNL     1       1.347   4.615  17.451  0.00  0.00    +0.000 Cl
ENDBRANCH  15  16
ENDBRANCH   9  15
TORSDOF 4
ENDMDL
