MODEL 1
REMARK VINA RESULT:      -6.7      0.000      0.000
REMARK  Name = 
REMARK  6 active torsions:
REMARK  status: ('A' for Active; 'I' for Inactive)
REMARK    1  A    between atoms: C_1  and  C_2
REMARK    2  A    between atoms: C_6  and  C_7
REMARK    3  A    between atoms: C_8  and  C_9
REMARK    4  A    between atoms: C_16  and  N_17
REMARK    5  A    between atoms: N_17  and  C_18
REMARK    6  A    between atoms: N_17  and  C_19
REMARK                            x       y       z     vdW  Elec       q    Type
REMARK                         _______ _______ _______ _____ _____    ______ ____
ROOT
ATOM      1  C   UNL     1       2.563   6.900  18.585  0.00  0.00    +0.000 A 
ATOM      2  C   UNL     1       2.515   6.973  19.990  0.00  0.00    +0.000 A 
ATOM      3  C   UNL     1       1.716   7.902  20.669  0.00  0.00    +0.000 A 
ATOM      4  C   UNL     1       1.060   8.895  19.963  0.00  0.00    +0.000 A 
ATOM      5  C   UNL     1       1.218   8.965  18.582  0.00  0.00    +0.000 A 
ATOM      6  C   UNL     1       1.853   7.910  17.909  0.00  0.00    +0.000 A 
ATOM      7  C   UNL     1       0.748  10.172  17.817  0.00  0.00    +0.000 C 
ATOM      8  C   UNL     1       0.505  11.356  18.779  0.00  0.00    +0.000 C 
ATOM      9  C   UNL     1      -0.392  10.739  19.883  0.00  0.00    +0.000 C 
ATOM     10  O   UNL     1       0.322   9.790  20.689  0.00  0.00    +0.000 OA
ENDROOT
BRANCH   1  18
ATOM     11  C   UNL     1       1.419   4.063  18.111  0.00  0.00    +0.000 C 
ATOM     12  C   UNL     1       2.792   4.512  17.656  0.00  0.00    +0.000 A 
ATOM     13  C   UNL     1       3.550   3.514  17.005  0.00  0.00    +0.000 A 
ATOM     14  C   UNL     1       4.803   3.789  16.485  0.00  0.00    +0.000 A 
ATOM     15  C   UNL     1       5.327   5.056  16.622  0.00  0.00    +0.000 A 
ATOM     16  C   UNL     1       4.632   6.079  17.308  0.00  0.00    +0.000 A 
ATOM     17  C   UNL     1       5.367   7.398  17.408  0.00  0.00    +0.000 C 
ATOM     18  C   UNL     1       3.326   5.831  17.847  0.00  0.00    +0.000 A 
ENDBRANCH   1  18
BRANCH   8  19
ATOM     19  N   UNL     1       1.752  11.977  19.320  0.00  0.00    +0.000 NA
ATOM     20  C   UNL     1       2.583  12.614  18.301  0.00  0.00    +0.000 C 
ATOM     21  C   UNL     1       1.486  12.926  20.401  0.00  0.00    +0.000 C 
ENDBRANCH   8  19
TORSDOF 2
ENDMDL
MODEL 2
REMARK VINA RESULT:      -6.7      0.095      1.925
REMARK  Name = 
REMARK  6 active torsions:
REMARK  status: ('A' for Active; 'I' for Inactive)
REMARK    1  A    between atoms: C_1  and  C_2
REMARK    2  A    between atoms: C_6  and  C_7
REMARK    3  A    between atoms: C_8  and  C_9
REMARK    4  A    between atoms: C_16  and  N_17
REMARK    5  A    between atoms: N_17  and  C_18
REMARK    6  A    between atoms: N_17  and  C_19
REMARK                            x       y       z     vdW  Elec       q    Type
REMARK                         _______ _______ _______ _____ _____    ______ ____
ROOT
ATOM      1  C   UNL     1       2.560   6.975  18.593  0.00  0.00    +0.000 A 
ATOM      2  C   UNL     1       2.505   7.041  19.998  0.00  0.00    +0.000 A 
ATOM      3  C   UNL     1       1.698   7.963  20.678  0.00  0.00    +0.000 A 
ATOM      4  C   UNL     1       1.041   8.957  19.972  0.00  0.00    +0.000 A 
ATOM      5  C   UNL     1       1.206   9.033  18.592  0.00  0.00    +0.000 A 
ATOM      6  C   UNL     1       1.849   7.985  17.919  0.00  0.00    +0.000 A 
ATOM      7  C   UNL     1       0.735  10.242  17.831  0.00  0.00    +0.000 C 
ATOM      8  C   UNL     1       0.483  11.421  18.797  0.00  0.00    +0.000 C 
ATOM      9  C   UNL     1      -0.418  10.795  19.894  0.00  0.00    +0.000 C 
ATOM     10  O   UNL     1       0.296   9.845  20.699  0.00  0.00    +0.000 OA
ENDROOT
BRANCH   1  18
ATOM     11  C   UNL     1       5.345   7.499  17.348  0.00  0.00    +0.000 C 
ATOM     12  C   UNL     1       4.611   6.177  17.261  0.00  0.00    +0.000 A 
ATOM     13  C   UNL     1       5.289   5.177  16.530  0.00  0.00    +0.000 A 
ATOM     14  C   UNL     1       4.769   3.900  16.410  0.00  0.00    +0.000 A 
ATOM     15  C   UNL     1       3.559   3.605  16.998  0.00  0.00    +0.000 A 
ATOM     16  C   UNL     1       2.814   4.583  17.699  0.00  0.00    +0.000 A 
ATOM     17  C   UNL     1       1.486   4.108  18.245  0.00  0.00    +0.000 C 
ATOM     18  C   UNL     1       3.331   5.912  17.854  0.00  0.00    +0.000 A 
ENDBRANCH   1  18
BRANCH   8  19
ATOM     19  N   UNL     1       1.724  12.044  19.347  0.00  0.00    +0.000 NA
ATOM     20  C   UNL     1       2.600  12.614  18.325  0.00  0.00    +0.000 C 
ATOM     21  C   UNL     1       1.444  13.051  20.371  0.00  0.00    +0.000 C 
ENDBRANCH   8  19
TORSDOF 2
ENDMDL
MODEL 3
REMARK VINA RESULT:      -5.9      2.177      3.434
REMARK  Name = 
REMARK  6 active torsions:
REMARK  status: ('A' for Active; 'I' for Inactive)
REMARK    1  A    between atoms: C_1  and  C_2
REMARK    2  A    between atoms: C_6  and  C_7
REMARK    3  A    between atoms: C_8  and  C_9
REMARK    4  A    between atoms: C_16  and  N_17
REMARK    5  A    between atoms: N_17  and  C_18
REMARK    6  A    between atoms: N_17  and  C_19
REMARK                            x       y       z     vdW  Elec       q    Type
REMARK                         _______ _______ _______ _____ _____    ______ ____
ROOT
ATOM      1  C   UNL     1       1.115   8.787  20.560  0.00  0.00    +0.000 A 
ATOM      2  C   UNL     1       1.369   8.734  21.943  0.00  0.00    +0.000 A 
ATOM      3  C   UNL     1       0.588   9.423  22.879  0.00  0.00    +0.000 A 
ATOM      4  C   UNL     1      -0.376  10.318  22.449  0.00  0.00    +0.000 A 
ATOM      5  C   UNL     1      -0.545  10.531  21.084  0.00  0.00    +0.000 A 
ATOM      6  C   UNL     1       0.103   9.684  20.172  0.00  0.00    +0.000 A 
ATOM      7  C   UNL     1      -1.382  11.677  20.585  0.00  0.00    +0.000 C 
ATOM      8  C   UNL     1      -1.612  12.705  21.715  0.00  0.00    +0.000 C 
ATOM      9  C   UNL     1      -2.115  11.832  22.893  0.00  0.00    +0.000 C 
ATOM     10  O   UNL     1      -1.081  10.983  23.415  0.00  0.00    +0.000 OA
ENDROOT
BRANCH   1  18
ATOM     11  C   UNL     1       1.652   5.765  20.962  0.00  0.00    +0.000 C 
ATOM     12  C   UNL     1       2.136   6.561  19.769  0.00  0.00    +0.000 A 
ATOM     13  C   UNL     1       2.893   5.820  18.835  0.00  0.00    +0.000 A 
ATOM     14  C   UNL     1       3.357   6.398  17.666  0.00  0.00    +0.000 A 
ATOM     15  C   UNL     1       3.091   7.726  17.418  0.00  0.00    +0.000 A 
ATOM     16  C   UNL     1       2.380   8.528  18.342  0.00  0.00    +0.000 A 
ATOM     17  C   UNL     1       2.213   9.977  17.938  0.00  0.00    +0.000 C 
ATOM     18  C   UNL     1       1.873   7.957  19.556  0.00  0.00    +0.000 A 
ENDBRANCH   1  18
BRANCH   8  19
ATOM     19  N   UNL     1      -0.408  13.518  22.063  0.00  0.00    +0.000 NA
ATOM     20  C   UNL     1       0.248  14.125  20.907  0.00  0.00    +0.000 C 
ATOM     21  C   UNL     1      -0.693  14.548  23.063  0.00  0.00    +0.000 C 
ENDBRANCH   8  19
TORSDOF 2
ENDMDL
MODEL 4
REMARK VINA RESULT:      -5.8      2.194      3.809
REMARK  Name = 
REMARK  6 active torsions:
REMARK  status: ('A' for Active; 'I' for Inactive)
REMARK    1  A    between atoms: C_1  and  C_2
REMARK    2  A    between atoms: C_6  and  C_7
REMARK    3  A    between atoms: C_8  and  C_9
REMARK    4  A    between atoms: C_16  and  N_17
REMARK    5  A    between atoms: N_17  and  C_18
REMARK    6  A    between atoms: N_17  and  C_19
REMARK                            x       y       z     vdW  Elec       q    Type
REMARK                         _______ _______ _______ _____ _____    ______ ____
ROOT
ATOM      1  C   UNL     1       1.097   8.814  20.565  0.00  0.00    +0.000 A 
ATOM      2  C   UNL     1       1.342   8.753  21.950  0.00  0.00    +0.000 A 
ATOM      3  C   UNL     1       0.554   9.437  22.885  0.00  0.00    +0.000 A 
ATOM      4  C   UNL     1      -0.408  10.334  22.453  0.00  0.00    +0.000 A 
ATOM      5  C   UNL     1      -0.567  10.554  21.088  0.00  0.00    +0.000 A 
ATOM      6  C   UNL     1       0.088   9.713  20.176  0.00  0.00    +0.000 A 
ATOM      7  C   UNL     1      -1.401  11.703  20.590  0.00  0.00    +0.000 C 
ATOM      8  C   UNL     1      -1.640  12.724  21.724  0.00  0.00    +0.000 C 
ATOM      9  C   UNL     1      -2.151  11.844  22.894  0.00  0.00    +0.000 C 
ATOM     10  O   UNL     1      -1.120  10.993  23.418  0.00  0.00    +0.000 OA
ENDROOT
BRANCH   1  18
ATOM     11  C   UNL     1       2.254  10.016  17.958  0.00  0.00    +0.000 C 
ATOM     12  C   UNL     1       2.372   8.557  18.345  0.00  0.00    +0.000 A 
ATOM     13  C   UNL     1       3.042   7.751  17.399  0.00  0.00    +0.000 A 
ATOM     14  C   UNL     1       3.275   6.407  17.637  0.00  0.00    +0.000 A 
ATOM     15  C   UNL     1       2.828   5.843  18.812  0.00  0.00    +0.000 A 
ATOM     16  C   UNL     1       2.109   6.592  19.772  0.00  0.00    +0.000 A 
ATOM     17  C   UNL     1       1.651   5.812  20.984  0.00  0.00    +0.000 C 
ATOM     18  C   UNL     1       1.862   7.990  19.562  0.00  0.00    +0.000 A 
ENDBRANCH   1  18
BRANCH   8  19
ATOM     19  N   UNL     1      -0.438  13.536  22.086  0.00  0.00    +0.000 NA
ATOM     20  C   UNL     1       0.216  14.163  20.940  0.00  0.00    +0.000 C 
ATOM     21  C   UNL     1      -0.727  14.548  23.102  0.00  0.00    +0.000 C 
ENDBRANCH   8  19
TORSDOF 2
ENDMDL
MODEL 5
REMARK VINA RESULT:      -5.6      7.270      9.181
REMARK  Name = 
REMARK  6 active torsions:
REMARK  status: ('A' for Active; 'I' for Inactive)
REMARK    1  A    between atoms: C_1  and  C_2
REMARK    2  A    between atoms: C_6  and  C_7
REMARK    3  A    between atoms: C_8  and  C_9
REMARK    4  A    between atoms: C_16  and  N_17
REMARK    5  A    between atoms: N_17  and  C_18
REMARK    6  A    between atoms: N_17  and  C_19
REMARK                            x       y       z     vdW  Elec       q    Type
REMARK                         _______ _______ _______ _____ _____    ______ ____
ROOT
ATOM      1  C   UNL     1       8.253  14.845  19.108  0.00  0.00    +0.000 A 
ATOM      2  C   UNL     1       8.328  16.061  18.403  0.00  0.00    +0.000 A 
ATOM      3  C   UNL     1       7.442  17.122  18.634  0.00  0.00    +0.000 A 
ATOM      4  C   UNL     1       6.351  16.941  19.466  0.00  0.00    +0.000 A 
ATOM      5  C   UNL     1       6.142  15.696  20.052  0.00  0.00    +0.000 A 
ATOM      6  C   UNL     1       7.146  14.720  19.967  0.00  0.00    +0.000 A 
ATOM      7  C   UNL     1       4.840  15.381  20.737  0.00  0.00    +0.000 C 
ATOM      8  C   UNL     1       3.756  16.402  20.325  0.00  0.00    +0.000 C 
ATOM      9  C   UNL     1       4.446  17.770  20.562  0.00  0.00    +0.000 C 
ATOM     10  O   UNL     1       5.507  18.007  19.624  0.00  0.00    +0.000 OA
ENDROOT
BRANCH   1  18
ATOM     11  C   UNL     1      10.885  14.766  20.735  0.00  0.00    +0.000 C 
ATOM     12  C   UNL     1      10.498  13.735  19.696  0.00  0.00    +0.000 A 
ATOM     13  C   UNL     1      11.456  12.718  19.492  0.00  0.00    +0.000 A 
ATOM     14  C   UNL     1      11.221  11.675  18.613  0.00  0.00    +0.000 A 
ATOM     15  C   UNL     1      10.037  11.639  17.910  0.00  0.00    +0.000 A 
ATOM     16  C   UNL     1       9.063  12.657  18.039  0.00  0.00    +0.000 A 
ATOM     17  C   UNL     1       7.841  12.491  17.164  0.00  0.00    +0.000 C 
ATOM     18  C   UNL     1       9.270  13.745  18.951  0.00  0.00    +0.000 A 
ENDBRANCH   1  18
BRANCH   8  19
ATOM     19  N   UNL     1       3.253  16.236  18.928  0.00  0.00    +0.000 NA
ATOM     20  C   UNL     1       2.849  14.869  18.605  0.00  0.00    +0.000 C 
ATOM     21  C   UNL     1       2.163  17.159  18.608  0.00  0.00    +0.000 C 
ENDBRANCH   8  19
TORSDOF 2
ENDMDL
MODEL 6
REMARK VINA RESULT:      -5.5      7.286      9.069
REMARK  Name = 
REMARK  6 active torsions:
REMARK  status: ('A' for Active; 'I' for Inactive)
REMARK    1  A    between atoms: C_1  and  C_2
REMARK    2  A    between atoms: C_6  and  C_7
REMARK    3  A    between atoms: C_8  and  C_9
REMARK    4  A    between atoms: C_16  and  N_17
REMARK    5  A    between atoms: N_17  and  C_18
REMARK    6  A    between atoms: N_17  and  C_19
REMARK                            x       y       z     vdW  Elec       q    Type
REMARK                         _______ _______ _______ _____ _____    ______ ____
ROOT
ATOM      1  C   UNL     1       8.262  14.855  19.134  0.00  0.00    +0.000 A 
ATOM      2  C   UNL     1       8.321  16.055  18.401  0.00  0.00    +0.000 A 
ATOM      3  C   UNL     1       7.446  17.124  18.634  0.00  0.00    +0.000 A 
ATOM      4  C   UNL     1       6.378  16.966  19.500  0.00  0.00    +0.000 A 
ATOM      5  C   UNL     1       6.182  15.735  20.118  0.00  0.00    +0.000 A 
ATOM      6  C   UNL     1       7.180  14.753  20.027  0.00  0.00    +0.000 A 
ATOM      7  C   UNL     1       4.899  15.439  20.846  0.00  0.00    +0.000 C 
ATOM      8  C   UNL     1       3.807  16.455  20.443  0.00  0.00    +0.000 C 
ATOM      9  C   UNL     1       4.508  17.825  20.630  0.00  0.00    +0.000 C 
ATOM     10  O   UNL     1       5.543  18.038  19.658  0.00  0.00    +0.000 OA
ENDROOT
BRANCH   1  18
ATOM     11  C   UNL     1       7.859  12.507  17.157  0.00  0.00    +0.000 C 
ATOM     12  C   UNL     1       9.059  12.652  18.070  0.00  0.00    +0.000 A 
ATOM     13  C   UNL     1       9.998  11.602  17.977  0.00  0.00    +0.000 A 
ATOM     14  C   UNL     1      11.172  11.621  18.709  0.00  0.00    +0.000 A 
ATOM     15  C   UNL     1      11.420  12.677  19.559  0.00  0.00    +0.000 A 
ATOM     16  C   UNL     1      10.492  13.731  19.728  0.00  0.00    +0.000 A 
ATOM     17  C   UNL     1      10.896  14.788  20.732  0.00  0.00    +0.000 C 
ATOM     18  C   UNL     1       9.271  13.748  18.973  0.00  0.00    +0.000 A 
ENDBRANCH   1  18
BRANCH   8  19
ATOM     19  N   UNL     1       3.264  16.261  19.064  0.00  0.00    +0.000 NA
ATOM     20  C   UNL     1       2.884  14.881  18.770  0.00  0.00    +0.000 C 
ATOM     21  C   UNL     1       2.142  17.153  18.769  0.00  0.00    +0.000 C 
ENDBRANCH   8  19
TORSDOF 2
ENDMDL
MODEL 7
REMARK VINA RESULT:      -5.5      3.009      6.873
REMARK  Name = 
REMARK  6 active torsions:
REMARK  status: ('A' for Active; 'I' for Inactive)
REMARK    1  A    between atoms: C_1  and  C_2
REMARK    2  A    between atoms: C_6  and  C_7
REMARK    3  A    between atoms: C_8  and  C_9
REMARK    4  A    between atoms: C_16  and  N_17
REMARK    5  A    between atoms: N_17  and  C_18
REMARK    6  A    between atoms: N_17  and  C_19
REMARK                            x       y       z     vdW  Elec       q    Type
REMARK                         _______ _______ _______ _____ _____    ______ ____
ROOT
ATOM      1  C   UNL     1       1.785   7.313  20.172  0.00  0.00    +0.000 A 
ATOM      2  C   UNL     1       0.903   6.286  20.554  0.00  0.00    +0.000 A 
ATOM      3  C   UNL     1       1.323   4.962  20.737  0.00  0.00    +0.000 A 
ATOM      4  C   UNL     1       2.609   4.591  20.385  0.00  0.00    +0.000 A 
ATOM      5  C   UNL     1       3.466   5.542  19.840  0.00  0.00    +0.000 A 
ATOM      6  C   UNL     1       3.091   6.894  19.857  0.00  0.00    +0.000 A 
ATOM      7  C   UNL     1       4.764   5.128  19.202  0.00  0.00    +0.000 C 
ATOM      8  C   UNL     1       4.754   3.613  18.900  0.00  0.00    +0.000 C 
ATOM      9  C   UNL     1       4.316   2.984  20.248  0.00  0.00    +0.000 C 
ATOM     10  O   UNL     1       2.945   3.275  20.558  0.00  0.00    +0.000 OA
ENDROOT
BRANCH   1  18
ATOM     11  C   UNL     1       1.057   8.985  22.673  0.00  0.00    +0.000 C 
ATOM     12  C   UNL     1       1.011   9.515  21.255  0.00  0.00    +0.000 A 
ATOM     13  C   UNL     1       0.577  10.854  21.142  0.00  0.00    +0.000 A 
ATOM     14  C   UNL     1       0.535  11.494  19.915  0.00  0.00    +0.000 A 
ATOM     15  C   UNL     1       0.906  10.805  18.782  0.00  0.00    +0.000 A 
ATOM     16  C   UNL     1       1.302   9.448  18.831  0.00  0.00    +0.000 A 
ATOM     17  C   UNL     1       1.634   8.827  17.492  0.00  0.00    +0.000 C 
ATOM     18  C   UNL     1       1.370   8.759  20.088  0.00  0.00    +0.000 A 
ENDBRANCH   1  18
BRANCH   8  19
ATOM     19  N   UNL     1       3.874   3.217  17.759  0.00  0.00    +0.000 NA
ATOM     20  C   UNL     1       4.373   3.647  16.454  0.00  0.00    +0.000 C 
ATOM     21  C   UNL     1       3.600   1.780  17.730  0.00  0.00    +0.000 C 
ENDBRANCH   8  19
TORSDOF 2
ENDMDL
MODEL 8
REMARK VINA RESULT:      -5.4      5.537      8.295
REMARK  Name = 
REMARK  6 active torsions:
REMARK  status: ('A' for Active; 'I' for Inactive)
REMARK    1  A    between atoms: C_1  and  C_2
REMARK    2  A    between atoms: C_6  and  C_7
REMARK    3  A    between atoms: C_8  and  C_9
REMARK    4  A    between atoms: C_16  and  N_17
REMARK    5  A    between atoms: N_17  and  C_18
REMARK    6  A    between atoms: N_17  and  C_19
REMARK                            x       y       z     vdW  Elec       q    Type
REMARK                         _______ _______ _______ _____ _____    ______ ____
ROOT
ATOM      1  C   UNL     1      -2.139  12.631  20.215  0.00  0.00    +0.000 A 
ATOM      2  C   UNL     1      -1.496  13.871  20.042  0.00  0.00    +0.000 A 
ATOM      3  C   UNL     1      -1.186  14.716  21.115  0.00  0.00    +0.000 A 
ATOM      4  C   UNL     1      -1.656  14.420  22.384  0.00  0.00    +0.000 A 
ATOM      5  C   UNL     1      -2.445  13.289  22.570  0.00  0.00    +0.000 A 
ATOM      6  C   UNL     1      -2.568  12.359  21.527  0.00  0.00    +0.000 A 
ATOM      7  C   UNL     1      -3.191  13.080  23.859  0.00  0.00    +0.000 C 
ATOM      8  C   UNL     1      -3.269  14.402  24.655  0.00  0.00    +0.000 C 
ATOM      9  C   UNL     1      -1.797  14.890  24.680  0.00  0.00    +0.000 C 
ATOM     10  O   UNL     1      -1.345  15.304  23.382  0.00  0.00    +0.000 OA
ENDROOT
BRANCH   1  18
ATOM     11  C   UNL     1       0.105  10.823  19.085  0.00  0.00    +0.000 C 
ATOM     12  C   UNL     1      -1.312  10.849  18.554  0.00  0.00    +0.000 A 
ATOM     13  C   UNL     1      -1.545   9.988  17.459  0.00  0.00    +0.000 A 
ATOM     14  C   UNL     1      -2.805   9.862  16.900  0.00  0.00    +0.000 A 
ATOM     15  C   UNL     1      -3.847  10.605  17.409  0.00  0.00    +0.000 A 
ATOM     16  C   UNL     1      -3.660  11.519  18.472  0.00  0.00    +0.000 A 
ATOM     17  C   UNL     1      -4.896  12.289  18.882  0.00  0.00    +0.000 C 
ATOM     18  C   UNL     1      -2.370  11.664  19.084  0.00  0.00    +0.000 A 
ENDBRANCH   1  18
BRANCH   8  19
ATOM     19  N   UNL     1      -4.209  15.411  24.082  0.00  0.00    +0.000 NA
ATOM     20  C   UNL     1      -5.548  14.887  23.818  0.00  0.00    +0.000 C 
ATOM     21  C   UNL     1      -4.308  16.619  24.902  0.00  0.00    +0.000 C 
ENDBRANCH   8  19
TORSDOF 2
ENDMDL
MODEL 9
REMARK VINA RESULT:      -5.4      4.998      9.926
REMARK  Name = 
REMARK  6 active torsions:
REMARK  status: ('A' for Active; 'I' for Inactive)
REMARK    1  A    between atoms: C_1  and  C_2
REMARK    2  A    between atoms: C_6  and  C_7
REMARK    3  A    between atoms: C_8  and  C_9
REMARK    4  A    between atoms: C_16  and  N_17
REMARK    5  A    between atoms: N_17  and  C_18
REMARK    6  A    between atoms: N_17  and  C_19
REMARK                            x       y       z     vdW  Elec       q    Type
REMARK                         _______ _______ _______ _____ _____    ______ ____
ROOT
ATOM      1  C   UNL     1      -3.413  13.122  22.403  0.00  0.00    +0.000 A 
ATOM      2  C   UNL     1      -2.846  12.121  23.214  0.00  0.00    +0.000 A 
ATOM      3  C   UNL     1      -1.539  11.652  23.028  0.00  0.00    +0.000 A 
ATOM      4  C   UNL     1      -0.812  12.055  21.922  0.00  0.00    +0.000 A 
ATOM      5  C   UNL     1      -1.399  12.914  20.998  0.00  0.00    +0.000 A 
ATOM      6  C   UNL     1      -2.623  13.525  21.310  0.00  0.00    +0.000 A 
ATOM      7  C   UNL     1      -0.754  13.160  19.662  0.00  0.00    +0.000 C 
ATOM      8  C   UNL     1       0.304  12.072  19.369  0.00  0.00    +0.000 C 
ATOM      9  C   UNL     1       1.167  12.059  20.657  0.00  0.00    +0.000 C 
ATOM     10  O   UNL     1       0.446  11.534  21.782  0.00  0.00    +0.000 OA
ENDROOT
BRANCH   1  18
ATOM     11  C   UNL     1      -5.966  12.159  20.941  0.00  0.00    +0.000 C 
ATOM     12  C   UNL     1      -5.943  13.276  21.963  0.00  0.00    +0.000 A 
ATOM     13  C   UNL     1      -7.196  13.887  22.195  0.00  0.00    +0.000 A 
ATOM     14  C   UNL     1      -7.343  14.886  23.141  0.00  0.00    +0.000 A 
ATOM     15  C   UNL     1      -6.244  15.306  23.856  0.00  0.00    +0.000 A 
ATOM     16  C   UNL     1      -4.957  14.764  23.630  0.00  0.00    +0.000 A 
ATOM     17  C   UNL     1      -3.851  15.366  24.468  0.00  0.00    +0.000 C 
ATOM     18  C   UNL     1      -4.772  13.717  22.667  0.00  0.00    +0.000 A 
ENDBRANCH   1  18
BRANCH   8  19
ATOM     19  N   UNL     1      -0.266  10.732  19.034  0.00  0.00    +0.000 NA
ATOM     20  C   UNL     1      -1.365  10.783  18.072  0.00  0.00    +0.000 C 
ATOM     21  C   UNL     1       0.750   9.788  18.569  0.00  0.00    +0.000 C 
ENDBRANCH   8  19
TORSDOF 2
ENDMDL
