MODEL 1
REMARK VINA RESULT:      -7.7      0.000      0.000
REMARK  Name = 
REMARK  3 active torsions:
REMARK  status: ('A' for Active; 'I' for Inactive)
REMARK    1  A    between atoms: C_2  and  C_13
REMARK    2  A    between atoms: N_3  and  N_4
REMARK    3  A    between atoms: C_5  and  C_6
REMARK                            x       y       z     vdW  Elec       q    Type
REMARK                         _______ _______ _______ _____ _____    ______ ____
ROOT
ATOM      1  O   UNL     1       4.883   5.759  15.907  0.00  0.00    +0.000 OA
ATOM      2  C   UNL     1       5.383   4.668  15.641  0.00  0.00    +0.000 C 
ATOM      3  N   UNL     1       5.303   3.541  16.449  0.00  0.00    +0.000 N 
ATOM      4  H   UNL     1       5.627   2.635  16.138  0.00  0.00    +0.000 HD
ENDROOT
BRANCH   2   5
ATOM      5  C   UNL     1       6.114   4.507  14.354  0.00  0.00    +0.000 A 
ATOM      6  C   UNL     1       7.275   5.230  14.053  0.00  0.00    +0.000 A 
ATOM      7  C   UNL     1       7.895   5.068  12.811  0.00  0.00    +0.000 A 
ATOM      8  C   UNL     1       7.356   4.195  11.866  0.00  0.00    +0.000 A 
ATOM      9  C   UNL     1       6.197   3.478  12.157  0.00  0.00    +0.000 A 
ATOM     10  C   UNL     1       5.576   3.635  13.397  0.00  0.00    +0.000 A 
ENDBRANCH   2   5
BRANCH   3  11
ATOM     11  N   UNL     1       4.667   3.649  17.644  0.00  0.00    +0.000 NA
ATOM     12  C   UNL     1       3.569   2.984  17.797  0.00  0.00    +0.000 C 
BRANCH  12  13
ATOM     13  C   UNL     1       2.835   3.071  19.071  0.00  0.00    +0.000 A 
ATOM     14  C   UNL     1       3.386   2.542  20.243  0.00  0.00    +0.000 A 
ATOM     15  C   UNL     1       2.691   2.647  21.448  0.00  0.00    +0.000 A 
ATOM     16  C   UNL     1       1.450   3.280  21.485  0.00  0.00    +0.000 A 
ATOM     17  C   UNL     1       0.895   3.802  20.314  0.00  0.00    +0.000 A 
ATOM     18  C   UNL     1       1.591   3.693  19.111  0.00  0.00    +0.000 A 
ATOM     19  F   UNL     1       1.042   4.200  17.998  0.00  0.00    +0.000 F 
ENDBRANCH  12  13
ENDBRANCH   3  11
TORSDOF 3
ENDMDL
MODEL 2
REMARK VINA RESULT:      -7.7      1.136      1.608
REMARK  Name = 
REMARK  3 active torsions:
REMARK  status: ('A' for Active; 'I' for Inactive)
REMARK    1  A    between atoms: C_2  and  C_13
REMARK    2  A    between atoms: N_3  and  N_4
REMARK    3  A    between atoms: C_5  and  C_6
REMARK                            x       y       z     vdW  Elec       q    Type
REMARK                         _______ _______ _______ _____ _____    ______ ____
ROOT
ATOM      1  O   UNL     1       4.938   5.822  15.923  0.00  0.00    +0.000 OA
ATOM      2  C   UNL     1       5.381   4.709  15.648  0.00  0.00    +0.000 C 
ATOM      3  N   UNL     1       5.237   3.578  16.442  0.00  0.00    +0.000 N 
ATOM      4  H   UNL     1       5.514   2.660  16.122  0.00  0.00    +0.000 HD
ENDROOT
BRANCH   2   5
ATOM      5  C   UNL     1       6.110   4.524  14.363  0.00  0.00    +0.000 A 
ATOM      6  C   UNL     1       7.271   5.239  14.047  0.00  0.00    +0.000 A 
ATOM      7  C   UNL     1       7.890   5.055  12.807  0.00  0.00    +0.000 A 
ATOM      8  C   UNL     1       7.349   4.165  11.879  0.00  0.00    +0.000 A 
ATOM      9  C   UNL     1       6.189   3.456  12.184  0.00  0.00    +0.000 A 
ATOM     10  C   UNL     1       5.570   3.636  13.421  0.00  0.00    +0.000 A 
ENDBRANCH   2   5
BRANCH   3  11
ATOM     11  N   UNL     1       4.600   3.706  17.634  0.00  0.00    +0.000 NA
ATOM     12  C   UNL     1       3.588   2.932  17.856  0.00  0.00    +0.000 C 
BRANCH  12  13
ATOM     13  C   UNL     1       2.857   3.035  19.130  0.00  0.00    +0.000 A 
ATOM     14  C   UNL     1       1.590   3.627  19.174  0.00  0.00    +0.000 A 
ATOM     15  C   UNL     1       0.898   3.702  20.383  0.00  0.00    +0.000 A 
ATOM     16  C   UNL     1       1.467   3.185  21.546  0.00  0.00    +0.000 A 
ATOM     17  C   UNL     1       2.735   2.600  21.505  0.00  0.00    +0.000 A 
ATOM     18  C   UNL     1       3.425   2.530  20.296  0.00  0.00    +0.000 A 
ATOM     19  F   UNL     1       4.641   1.965  20.276  0.00  0.00    +0.000 F 
ENDBRANCH  12  13
ENDBRANCH   3  11
TORSDOF 3
ENDMDL
MODEL 3
REMARK VINA RESULT:      -7.5      0.123      1.145
REMARK  Name = 
REMARK  3 active torsions:
REMARK  status: ('A' for Active; 'I' for Inactive)
REMARK    1  A    between atoms: C_2  and  C_13
REMARK    2  A    between atoms: N_3  and  N_4
REMARK    3  A    between atoms: C_5  and  C_6
REMARK                            x       y       z     vdW  Elec       q    Type
REMARK                         _______ _______ _______ _____ _____    ______ ____
ROOT
ATOM      1  O   UNL     1       4.912   5.671  15.980  0.00  0.00    +0.000 OA
ATOM      2  C   UNL     1       5.378   4.587  15.632  0.00  0.00    +0.000 C 
ATOM      3  N   UNL     1       5.302   3.416  16.375  0.00  0.00    +0.000 N 
ATOM      4  H   UNL     1       5.595   2.524  16.000  0.00  0.00    +0.000 HD
ENDROOT
BRANCH   2   5
ATOM      5  C   UNL     1       6.059   4.489  14.312  0.00  0.00    +0.000 A 
ATOM      6  C   UNL     1       5.611   3.637  13.296  0.00  0.00    +0.000 A 
ATOM      7  C   UNL     1       6.315   3.555  12.092  0.00  0.00    +0.000 A 
ATOM      8  C   UNL     1       7.470   4.315  11.901  0.00  0.00    +0.000 A 
ATOM      9  C   UNL     1       7.925   5.160  12.911  0.00  0.00    +0.000 A 
ATOM     10  C   UNL     1       7.224   5.245  14.114  0.00  0.00    +0.000 A 
ENDBRANCH   2   5
BRANCH   3  11
ATOM     11  N   UNL     1       4.711   3.465  17.597  0.00  0.00    +0.000 NA
ATOM     12  C   UNL     1       3.490   3.049  17.686  0.00  0.00    +0.000 C 
BRANCH  12  13
ATOM     13  C   UNL     1       2.800   3.087  18.986  0.00  0.00    +0.000 A 
ATOM     14  C   UNL     1       3.414   2.565  20.129  0.00  0.00    +0.000 A 
ATOM     15  C   UNL     1       2.760   2.623  21.360  0.00  0.00    +0.000 A 
ATOM     16  C   UNL     1       1.495   3.204  21.451  0.00  0.00    +0.000 A 
ATOM     17  C   UNL     1       0.878   3.720  20.308  0.00  0.00    +0.000 A 
ATOM     18  C   UNL     1       1.534   3.657  19.080  0.00  0.00    +0.000 A 
ATOM     19  F   UNL     1       0.926   4.156  17.995  0.00  0.00    +0.000 F 
ENDBRANCH  12  13
ENDBRANCH   3  11
TORSDOF 3
ENDMDL
MODEL 4
REMARK VINA RESULT:      -7.4      1.302      2.067
REMARK  Name = 
REMARK  3 active torsions:
REMARK  status: ('A' for Active; 'I' for Inactive)
REMARK    1  A    between atoms: C_2  and  C_13
REMARK    2  A    between atoms: N_3  and  N_4
REMARK    3  A    between atoms: C_5  and  C_6
REMARK                            x       y       z     vdW  Elec       q    Type
REMARK                         _______ _______ _______ _____ _____    ______ ____
ROOT
ATOM      1  O   UNL     1       6.577   4.383  16.742  0.00  0.00    +0.000 OA
ATOM      2  C   UNL     1       5.765   4.361  15.820  0.00  0.00    +0.000 C 
ATOM      3  N   UNL     1       4.385   4.375  15.977  0.00  0.00    +0.000 N 
ATOM      4  H   UNL     1       3.757   4.474  15.190  0.00  0.00    +0.000 HD
ENDROOT
BRANCH   2   5
ATOM      5  C   UNL     1       6.270   4.341  14.419  0.00  0.00    +0.000 A 
ATOM      6  C   UNL     1       5.751   3.481  13.444  0.00  0.00    +0.000 A 
ATOM      7  C   UNL     1       6.293   3.477  12.156  0.00  0.00    +0.000 A 
ATOM      8  C   UNL     1       7.357   4.323  11.840  0.00  0.00    +0.000 A 
ATOM      9  C   UNL     1       7.883   5.176  12.808  0.00  0.00    +0.000 A 
ATOM     10  C   UNL     1       7.343   5.184  14.095  0.00  0.00    +0.000 A 
ENDBRANCH   2   5
BRANCH   3  11
ATOM     11  N   UNL     1       3.880   4.368  17.237  0.00  0.00    +0.000 NA
ATOM     12  C   UNL     1       3.326   3.276  17.652  0.00  0.00    +0.000 C 
BRANCH  12  13
ATOM     13  C   UNL     1       2.755   3.217  19.008  0.00  0.00    +0.000 A 
ATOM     14  C   UNL     1       1.486   3.747  19.265  0.00  0.00    +0.000 A 
ATOM     15  C   UNL     1       0.946   3.669  20.549  0.00  0.00    +0.000 A 
ATOM     16  C   UNL     1       1.670   3.061  21.575  0.00  0.00    +0.000 A 
ATOM     17  C   UNL     1       2.940   2.537  21.320  0.00  0.00    +0.000 A 
ATOM     18  C   UNL     1       3.477   2.620  20.036  0.00  0.00    +0.000 A 
ATOM     19  F   UNL     1       4.697   2.112  19.811  0.00  0.00    +0.000 F 
ENDBRANCH  12  13
ENDBRANCH   3  11
TORSDOF 3
ENDMDL
MODEL 5
REMARK VINA RESULT:      -7.1      1.280      1.445
REMARK  Name = 
REMARK  3 active torsions:
REMARK  status: ('A' for Active; 'I' for Inactive)
REMARK    1  A    between atoms: C_2  and  C_13
REMARK    2  A    between atoms: N_3  and  N_4
REMARK    3  A    between atoms: C_5  and  C_6
REMARK                            x       y       z     vdW  Elec       q    Type
REMARK                         _______ _______ _______ _____ _____    ______ ____
ROOT
ATOM      1  O   UNL     1       7.011   4.508  16.720  0.00  0.00    +0.000 OA
ATOM      2  C   UNL     1       6.158   4.424  15.839  0.00  0.00    +0.000 C 
ATOM      3  N   UNL     1       4.789   4.357  16.064  0.00  0.00    +0.000 N 
ATOM      4  H   UNL     1       4.118   4.407  15.309  0.00  0.00    +0.000 HD
ENDROOT
BRANCH   2   5
ATOM      5  C   UNL     1       6.594   4.417  14.415  0.00  0.00    +0.000 A 
ATOM      6  C   UNL     1       7.565   5.297  13.922  0.00  0.00    +0.000 A 
ATOM      7  C   UNL     1       7.905   5.273  12.566  0.00  0.00    +0.000 A 
ATOM      8  C   UNL     1       7.273   4.380  11.701  0.00  0.00    +0.000 A 
ATOM      9  C   UNL     1       6.300   3.507  12.184  0.00  0.00    +0.000 A 
ATOM     10  C   UNL     1       5.960   3.527  13.537  0.00  0.00    +0.000 A 
ENDBRANCH   2   5
BRANCH   3  11
ATOM     11  N   UNL     1       4.347   4.335  17.348  0.00  0.00    +0.000 NA
ATOM     12  C   UNL     1       3.238   3.715  17.587  0.00  0.00    +0.000 C 
BRANCH  12  13
ATOM     13  C   UNL     1       2.710   3.668  18.961  0.00  0.00    +0.000 A 
ATOM     14  C   UNL     1       2.648   4.832  19.735  0.00  0.00    +0.000 A 
ATOM     15  C   UNL     1       2.129   4.781  21.029  0.00  0.00    +0.000 A 
ATOM     16  C   UNL     1       1.670   3.571  21.549  0.00  0.00    +0.000 A 
ATOM     17  C   UNL     1       1.738   2.407  20.779  0.00  0.00    +0.000 A 
ATOM     18  C   UNL     1       2.261   2.462  19.488  0.00  0.00    +0.000 A 
ATOM     19  F   UNL     1       2.319   1.335  18.765  0.00  0.00    +0.000 F 
ENDBRANCH  12  13
ENDBRANCH   3  11
TORSDOF 3
ENDMDL
MODEL 6
REMARK VINA RESULT:      -7.1      2.045      7.644
REMARK  Name = 
REMARK  3 active torsions:
REMARK  status: ('A' for Active; 'I' for Inactive)
REMARK    1  A    between atoms: C_2  and  C_13
REMARK    2  A    between atoms: N_3  and  N_4
REMARK    3  A    between atoms: C_5  and  C_6
REMARK                            x       y       z     vdW  Elec       q    Type
REMARK                         _______ _______ _______ _____ _____    ______ ____
ROOT
ATOM      1  O   UNL     1       2.330   2.970  16.722  0.00  0.00    +0.000 OA
ATOM      2  C   UNL     1       3.007   3.455  17.625  0.00  0.00    +0.000 C 
ATOM      3  N   UNL     1       4.153   4.217  17.437  0.00  0.00    +0.000 N 
ATOM      4  H   UNL     1       4.611   4.694  18.202  0.00  0.00    +0.000 HD
ENDROOT
BRANCH   2   5
ATOM      5  C   UNL     1       2.576   3.248  19.036  0.00  0.00    +0.000 A 
ATOM      6  C   UNL     1       3.444   2.766  20.023  0.00  0.00    +0.000 A 
ATOM      7  C   UNL     1       2.973   2.551  21.322  0.00  0.00    +0.000 A 
ATOM      8  C   UNL     1       1.637   2.807  21.635  0.00  0.00    +0.000 A 
ATOM      9  C   UNL     1       0.768   3.280  20.654  0.00  0.00    +0.000 A 
ATOM     10  C   UNL     1       1.235   3.497  19.358  0.00  0.00    +0.000 A 
ENDBRANCH   2   5
BRANCH   3  11
ATOM     11  N   UNL     1       4.596   4.411  16.168  0.00  0.00    +0.000 NA
ATOM     12  C   UNL     1       5.723   3.870  15.840  0.00  0.00    +0.000 C 
BRANCH  12  13
ATOM     13  C   UNL     1       6.253   4.055  14.479  0.00  0.00    +0.000 A 
ATOM     14  C   UNL     1       5.733   3.318  13.410  0.00  0.00    +0.000 A 
ATOM     15  C   UNL     1       6.229   3.514  12.121  0.00  0.00    +0.000 A 
ATOM     16  C   UNL     1       7.241   4.448  11.898  0.00  0.00    +0.000 A 
ATOM     17  C   UNL     1       7.765   5.179  12.966  0.00  0.00    +0.000 A 
ATOM     18  C   UNL     1       7.270   4.978  14.253  0.00  0.00    +0.000 A 
ATOM     19  F   UNL     1       7.787   5.689  15.265  0.00  0.00    +0.000 F 
ENDBRANCH  12  13
ENDBRANCH   3  11
TORSDOF 3
ENDMDL
MODEL 7
REMARK VINA RESULT:      -7.1      1.140      1.153
REMARK  Name = 
REMARK  3 active torsions:
REMARK  status: ('A' for Active; 'I' for Inactive)
REMARK    1  A    between atoms: C_2  and  C_13
REMARK    2  A    between atoms: N_3  and  N_4
REMARK    3  A    between atoms: C_5  and  C_6
REMARK                            x       y       z     vdW  Elec       q    Type
REMARK                         _______ _______ _______ _____ _____    ______ ____
ROOT
ATOM      1  O   UNL     1       6.871   4.194  16.708  0.00  0.00    +0.000 OA
ATOM      2  C   UNL     1       6.061   4.303  15.790  0.00  0.00    +0.000 C 
ATOM      3  N   UNL     1       4.684   4.393  15.953  0.00  0.00    +0.000 N 
ATOM      4  H   UNL     1       4.066   4.598  15.180  0.00  0.00    +0.000 HD
ENDROOT
BRANCH   2   5
ATOM      5  C   UNL     1       6.566   4.370  14.391  0.00  0.00    +0.000 A 
ATOM      6  C   UNL     1       7.541   5.289  13.986  0.00  0.00    +0.000 A 
ATOM      7  C   UNL     1       7.947   5.334  12.649  0.00  0.00    +0.000 A 
ATOM      8  C   UNL     1       7.377   4.470  11.714  0.00  0.00    +0.000 A 
ATOM      9  C   UNL     1       6.401   3.557  12.109  0.00  0.00    +0.000 A 
ATOM     10  C   UNL     1       5.994   3.508  13.443  0.00  0.00    +0.000 A 
ENDBRANCH   2   5
BRANCH   3  11
ATOM     11  N   UNL     1       4.178   4.311  17.210  0.00  0.00    +0.000 NA
ATOM     12  C   UNL     1       3.030   3.734  17.354  0.00  0.00    +0.000 C 
BRANCH  12  13
ATOM     13  C   UNL     1       2.431   3.625  18.695  0.00  0.00    +0.000 A 
ATOM     14  C   UNL     1       2.286   2.375  19.306  0.00  0.00    +0.000 A 
ATOM     15  C   UNL     1       1.735   2.285  20.585  0.00  0.00    +0.000 A 
ATOM     16  C   UNL     1       1.332   3.440  21.254  0.00  0.00    +0.000 A 
ATOM     17  C   UNL     1       1.471   4.688  20.642  0.00  0.00    +0.000 A 
ATOM     18  C   UNL     1       2.018   4.774  19.363  0.00  0.00    +0.000 A 
ATOM     19  F   UNL     1       2.143   5.980  18.792  0.00  0.00    +0.000 F 
ENDBRANCH  12  13
ENDBRANCH   3  11
TORSDOF 3
ENDMDL
MODEL 8
REMARK VINA RESULT:      -7.1      6.730      8.402
REMARK  Name = 
REMARK  3 active torsions:
REMARK  status: ('A' for Active; 'I' for Inactive)
REMARK    1  A    between atoms: C_2  and  C_13
REMARK    2  A    between atoms: N_3  and  N_4
REMARK    3  A    between atoms: C_5  and  C_6
REMARK                            x       y       z     vdW  Elec       q    Type
REMARK                         _______ _______ _______ _____ _____    ______ ____
ROOT
ATOM      1  O   UNL     1       8.156   5.941  19.256  0.00  0.00    +0.000 OA
ATOM      2  C   UNL     1       7.630   6.440  18.264  0.00  0.00    +0.000 C 
ATOM      3  N   UNL     1       7.825   7.747  17.835  0.00  0.00    +0.000 N 
ATOM      4  H   UNL     1       7.467   8.080  16.950  0.00  0.00    +0.000 HD
ENDROOT
BRANCH   2   5
ATOM      5  C   UNL     1       6.733   5.597  17.426  0.00  0.00    +0.000 A 
ATOM      6  C   UNL     1       6.819   5.564  16.030  0.00  0.00    +0.000 A 
ATOM      7  C   UNL     1       5.922   4.785  15.293  0.00  0.00    +0.000 A 
ATOM      8  C   UNL     1       4.934   4.047  15.945  0.00  0.00    +0.000 A 
ATOM      9  C   UNL     1       4.839   4.082  17.335  0.00  0.00    +0.000 A 
ATOM     10  C   UNL     1       5.733   4.857  18.074  0.00  0.00    +0.000 A 
ENDBRANCH   2   5
BRANCH   3  11
ATOM     11  N   UNL     1       8.616   8.559  18.582  0.00  0.00    +0.000 NA
ATOM     12  C   UNL     1       8.653   9.812  18.265  0.00  0.00    +0.000 C 
BRANCH  12  13
ATOM     13  C   UNL     1       9.501  10.735  19.038  0.00  0.00    +0.000 A 
ATOM     14  C   UNL     1       9.262  10.942  20.401  0.00  0.00    +0.000 A 
ATOM     15  C   UNL     1      10.083  11.805  21.128  0.00  0.00    +0.000 A 
ATOM     16  C   UNL     1      11.143  12.457  20.498  0.00  0.00    +0.000 A 
ATOM     17  C   UNL     1      11.377  12.256  19.136  0.00  0.00    +0.000 A 
ATOM     18  C   UNL     1      10.553  11.396  18.411  0.00  0.00    +0.000 A 
ATOM     19  F   UNL     1      10.794  11.217  17.105  0.00  0.00    +0.000 F 
ENDBRANCH  12  13
ENDBRANCH   3  11
TORSDOF 3
ENDMDL
MODEL 9
REMARK VINA RESULT:      -7.0      1.953      7.635
REMARK  Name = 
REMARK  3 active torsions:
REMARK  status: ('A' for Active; 'I' for Inactive)
REMARK    1  A    between atoms: C_2  and  C_13
REMARK    2  A    between atoms: N_3  and  N_4
REMARK    3  A    between atoms: C_5  and  C_6
REMARK                            x       y       z     vdW  Elec       q    Type
REMARK                         _______ _______ _______ _____ _____    ______ ____
ROOT
ATOM      1  O   UNL     1       2.629   2.707  16.715  0.00  0.00    +0.000 OA
ATOM      2  C   UNL     1       3.277   3.037  17.706  0.00  0.00    +0.000 C 
ATOM      3  N   UNL     1       4.622   3.385  17.694  0.00  0.00    +0.000 N 
ATOM      4  H   UNL     1       5.084   3.763  18.510  0.00  0.00    +0.000 HD
ENDROOT
BRANCH   2   5
ATOM      5  C   UNL     1       2.589   3.102  19.024  0.00  0.00    +0.000 A 
ATOM      6  C   UNL     1       1.343   3.717  19.194  0.00  0.00    +0.000 A 
ATOM      7  C   UNL     1       0.765   3.784  20.464  0.00  0.00    +0.000 A 
ATOM      8  C   UNL     1       1.429   3.247  21.567  0.00  0.00    +0.000 A 
ATOM      9  C   UNL     1       2.672   2.639  21.406  0.00  0.00    +0.000 A 
ATOM     10  C   UNL     1       3.252   2.568  20.139  0.00  0.00    +0.000 A 
ENDBRANCH   2   5
BRANCH   3  11
ATOM     11  N   UNL     1       5.295   3.316  16.517  0.00  0.00    +0.000 NA
ATOM     12  C   UNL     1       5.169   4.309  15.699  0.00  0.00    +0.000 C 
BRANCH  12  13
ATOM     13  C   UNL     1       5.871   4.282  14.405  0.00  0.00    +0.000 A 
ATOM     14  C   UNL     1       5.337   3.571  13.325  0.00  0.00    +0.000 A 
ATOM     15  C   UNL     1       6.001   3.567  12.097  0.00  0.00    +0.000 A 
ATOM     16  C   UNL     1       7.194   4.274  11.947  0.00  0.00    +0.000 A 
ATOM     17  C   UNL     1       7.731   4.978  13.027  0.00  0.00    +0.000 A 
ATOM     18  C   UNL     1       7.067   4.977  14.253  0.00  0.00    +0.000 A 
ATOM     19  F   UNL     1       7.598   5.659  15.278  0.00  0.00    +0.000 F 
ENDBRANCH  12  13
ENDBRANCH   3  11
TORSDOF 3
ENDMDL
