MODEL 1
REMARK VINA RESULT:      -8.2      0.000      0.000
REMARK  Name = 
REMARK  3 active torsions:
REMARK  status: ('A' for Active; 'I' for Inactive)
REMARK    1  A    between atoms: C_5  and  C_6
REMARK    2  A    between atoms: C_9  and  S_10
REMARK    3  A    between atoms: S_10  and  N_13
REMARK                            x       y       z     vdW  Elec       q    Type
REMARK                         _______ _______ _______ _____ _____    ______ ____
ROOT
ATOM      1  C   UNL     1       6.170   4.676  16.625  0.00  0.00    +0.000 A 
ATOM      2  C   UNL     1       6.603   5.492  17.658  0.00  0.00    +0.000 A 
ATOM      3  S   UNL     1       5.938   5.055  19.174  0.00  0.00    +0.000 S 
ATOM      4  C   UNL     1       5.021   3.797  18.474  0.00  0.00    +0.000 A 
ATOM      5  C   UNL     1       5.154   3.778  17.103  0.00  0.00    +0.000 A 
ENDROOT
BRANCH   1  10
ATOM      6  O   UNL     1       7.670   4.971  11.431  0.00  0.00    +0.000 OA
ATOM      7  C   UNL     1       7.368   4.850  12.611  0.00  0.00    +0.000 A 
ATOM      8  C   UNL     1       6.326   3.891  13.026  0.00  0.00    +0.000 A 
ATOM      9  C   UNL     1       5.985   3.772  14.312  0.00  0.00    +0.000 A 
ATOM     10  C   UNL     1       6.672   4.676  15.257  0.00  0.00    +0.000 A 
ATOM     11  N   UNL     1       7.595   5.528  14.941  0.00  0.00    +0.000 NA
ATOM     12  N   UNL     1       7.952   5.573  13.620  0.00  0.00    +0.000 N 
ATOM     13  H   UNL     1       8.659   6.254  13.364  0.00  0.00    +0.000 HD
ENDBRANCH   1  10
BRANCH   4  14
ATOM     14  S   UNL     1       4.144   2.734  19.594  0.00  0.00    +0.000 S 
ATOM     15  O   UNL     1       3.297   1.904  18.764  0.00  0.00    +0.000 OA
ATOM     16  O   UNL     1       5.164   2.162  20.445  0.00  0.00    +0.000 OA
BRANCH  14  17
ATOM     17  N   UNL     1       3.151   3.731  20.560  0.00  0.00    +0.000 NA
ATOM     18  C   UNL     1       2.383   3.045  21.635  0.00  0.00    +0.000 C 
ATOM     19  C   UNL     1       0.990   2.886  21.058  0.00  0.00    +0.000 C 
ATOM     20  C   UNL     1       0.792   4.160  20.262  0.00  0.00    +0.000 C 
ATOM     21  C   UNL     1       2.186   4.564  19.796  0.00  0.00    +0.000 C 
ENDBRANCH  14  17
ENDBRANCH   4  14
TORSDOF 3
ENDMDL
MODEL 2
REMARK VINA RESULT:      -7.8      1.685      1.911
REMARK  Name = 
REMARK  3 active torsions:
REMARK  status: ('A' for Active; 'I' for Inactive)
REMARK    1  A    between atoms: C_5  and  C_6
REMARK    2  A    between atoms: C_9  and  S_10
REMARK    3  A    between atoms: S_10  and  N_13
REMARK                            x       y       z     vdW  Elec       q    Type
REMARK                         _______ _______ _______ _____ _____    ______ ____
ROOT
ATOM      1  C   UNL     1       6.117   5.082  16.540  0.00  0.00    +0.000 A 
ATOM      2  C   UNL     1       6.868   5.061  17.703  0.00  0.00    +0.000 A 
ATOM      3  S   UNL     1       5.909   5.178  19.117  0.00  0.00    +0.000 S 
ATOM      4  C   UNL     1       4.474   5.309  18.202  0.00  0.00    +0.000 A 
ATOM      5  C   UNL     1       4.739   5.354  16.851  0.00  0.00    +0.000 A 
ENDROOT
BRANCH   1  10
ATOM      6  O   UNL     1       7.602   4.468  11.369  0.00  0.00    +0.000 OA
ATOM      7  C   UNL     1       7.299   4.551  12.553  0.00  0.00    +0.000 A 
ATOM      8  C   UNL     1       6.189   3.750  13.103  0.00  0.00    +0.000 A 
ATOM      9  C   UNL     1       5.848   3.854  14.390  0.00  0.00    +0.000 A 
ATOM     10  C   UNL     1       6.608   4.836  15.190  0.00  0.00    +0.000 A 
ATOM     11  N   UNL     1       7.592   5.555  14.754  0.00  0.00    +0.000 NA
ATOM     12  N   UNL     1       7.944   5.372  13.444  0.00  0.00    +0.000 N 
ATOM     13  H   UNL     1       8.700   5.949  13.090  0.00  0.00    +0.000 HD
ENDBRANCH   1  10
BRANCH   4  14
ATOM     14  S   UNL     1       2.948   5.297  19.109  0.00  0.00    +0.000 S 
ATOM     15  O   UNL     1       2.895   6.567  19.801  0.00  0.00    +0.000 OA
ATOM     16  O   UNL     1       1.939   4.919  18.144  0.00  0.00    +0.000 OA
BRANCH  14  17
ATOM     17  N   UNL     1       3.061   4.049  20.268  0.00  0.00    +0.000 NA
ATOM     18  C   UNL     1       3.052   2.659  19.737  0.00  0.00    +0.000 C 
ATOM     19  C   UNL     1       1.627   2.188  19.943  0.00  0.00    +0.000 C 
ATOM     20  C   UNL     1       1.234   2.820  21.263  0.00  0.00    +0.000 C 
ATOM     21  C   UNL     1       2.036   4.114  21.343  0.00  0.00    +0.000 C 
ENDBRANCH  14  17
ENDBRANCH   4  14
TORSDOF 3
ENDMDL
MODEL 3
REMARK VINA RESULT:      -7.7      0.813      1.273
REMARK  Name = 
REMARK  3 active torsions:
REMARK  status: ('A' for Active; 'I' for Inactive)
REMARK    1  A    between atoms: C_5  and  C_6
REMARK    2  A    between atoms: C_9  and  S_10
REMARK    3  A    between atoms: S_10  and  N_13
REMARK                            x       y       z     vdW  Elec       q    Type
REMARK                         _______ _______ _______ _____ _____    ______ ____
ROOT
ATOM      1  C   UNL     1       5.891   4.485  16.680  0.00  0.00    +0.000 A 
ATOM      2  C   UNL     1       6.292   5.211  17.789  0.00  0.00    +0.000 A 
ATOM      3  S   UNL     1       5.517   4.706  19.230  0.00  0.00    +0.000 S 
ATOM      4  C   UNL     1       4.595   3.539  18.394  0.00  0.00    +0.000 A 
ATOM      5  C   UNL     1       4.811   3.603  17.035  0.00  0.00    +0.000 A 
ENDROOT
BRANCH   1  10
ATOM      6  O   UNL     1       7.706   5.033  11.608  0.00  0.00    +0.000 OA
ATOM      7  C   UNL     1       7.332   4.854  12.761  0.00  0.00    +0.000 A 
ATOM      8  C   UNL     1       6.267   3.878  13.063  0.00  0.00    +0.000 A 
ATOM      9  C   UNL     1       5.848   3.697  14.318  0.00  0.00    +0.000 A 
ATOM     10  C   UNL     1       6.475   4.551  15.346  0.00  0.00    +0.000 A 
ATOM     11  N   UNL     1       7.416   5.415  15.131  0.00  0.00    +0.000 NA
ATOM     12  N   UNL     1       7.853   5.525  13.838  0.00  0.00    +0.000 N 
ATOM     13  H   UNL     1       8.574   6.215  13.660  0.00  0.00    +0.000 HD
ENDBRANCH   1  10
BRANCH   4  14
ATOM     14  S   UNL     1       3.607   2.446  19.386  0.00  0.00    +0.000 S 
ATOM     15  O   UNL     1       3.320   1.306  18.543  0.00  0.00    +0.000 OA
ATOM     16  O   UNL     1       4.336   2.305  20.628  0.00  0.00    +0.000 OA
BRANCH  14  17
ATOM     17  N   UNL     1       2.144   3.257  19.724  0.00  0.00    +0.000 NA
ATOM     18  C   UNL     1       1.596   4.104  18.630  0.00  0.00    +0.000 C 
ATOM     19  C   UNL     1       2.008   5.513  19.004  0.00  0.00    +0.000 C 
ATOM     20  C   UNL     1       1.888   5.526  20.515  0.00  0.00    +0.000 C 
ATOM     21  C   UNL     1       2.174   4.094  20.952  0.00  0.00    +0.000 C 
ENDBRANCH  14  17
ENDBRANCH   4  14
TORSDOF 3
ENDMDL
MODEL 4
REMARK VINA RESULT:      -7.6      2.139      2.336
REMARK  Name = 
REMARK  3 active torsions:
REMARK  status: ('A' for Active; 'I' for Inactive)
REMARK    1  A    between atoms: C_5  and  C_6
REMARK    2  A    between atoms: C_9  and  S_10
REMARK    3  A    between atoms: S_10  and  N_13
REMARK                            x       y       z     vdW  Elec       q    Type
REMARK                         _______ _______ _______ _____ _____    ______ ____
ROOT
ATOM      1  C   UNL     1       5.898   5.013  16.667  0.00  0.00    +0.000 A 
ATOM      2  C   UNL     1       6.447   4.581  17.863  0.00  0.00    +0.000 A 
ATOM      3  S   UNL     1       5.386   4.780  19.193  0.00  0.00    +0.000 S 
ATOM      4  C   UNL     1       4.190   5.492  18.206  0.00  0.00    +0.000 A 
ATOM      5  C   UNL     1       4.634   5.655  16.912  0.00  0.00    +0.000 A 
ENDROOT
BRANCH   1  10
ATOM      6  O   UNL     1       7.674   4.628  11.567  0.00  0.00    +0.000 OA
ATOM      7  C   UNL     1       7.307   4.660  12.735  0.00  0.00    +0.000 A 
ATOM      8  C   UNL     1       6.208   3.793  13.202  0.00  0.00    +0.000 A 
ATOM      9  C   UNL     1       5.798   3.842  14.472  0.00  0.00    +0.000 A 
ATOM     10  C   UNL     1       6.469   4.831  15.339  0.00  0.00    +0.000 A 
ATOM     11  N   UNL     1       7.440   5.608  14.976  0.00  0.00    +0.000 NA
ATOM     12  N   UNL     1       7.866   5.481  13.682  0.00  0.00    +0.000 N 
ATOM     13  H   UNL     1       8.611   6.102  13.386  0.00  0.00    +0.000 HD
ENDBRANCH   1  10
BRANCH   4  14
ATOM     14  S   UNL     1       2.623   5.824  18.971  0.00  0.00    +0.000 S 
ATOM     15  O   UNL     1       2.873   5.814  20.396  0.00  0.00    +0.000 OA
ATOM     16  O   UNL     1       2.120   7.003  18.300  0.00  0.00    +0.000 OA
BRANCH  14  17
ATOM     17  N   UNL     1       1.589   4.521  18.589  0.00  0.00    +0.000 NA
ATOM     18  C   UNL     1       1.171   3.661  19.729  0.00  0.00    +0.000 C 
ATOM     19  C   UNL     1       2.081   2.453  19.641  0.00  0.00    +0.000 C 
ATOM     20  C   UNL     1       2.233   2.235  18.149  0.00  0.00    +0.000 C 
ATOM     21  C   UNL     1       2.103   3.620  17.525  0.00  0.00    +0.000 C 
ENDBRANCH  14  17
ENDBRANCH   4  14
TORSDOF 3
ENDMDL
MODEL 5
REMARK VINA RESULT:      -7.4      3.810      7.010
REMARK  Name = 
REMARK  3 active torsions:
REMARK  status: ('A' for Active; 'I' for Inactive)
REMARK    1  A    between atoms: C_5  and  C_6
REMARK    2  A    between atoms: C_9  and  S_10
REMARK    3  A    between atoms: S_10  and  N_13
REMARK                            x       y       z     vdW  Elec       q    Type
REMARK                         _______ _______ _______ _____ _____    ______ ____
ROOT
ATOM      1  C   UNL     1       3.093   6.318  18.159  0.00  0.00    +0.000 A 
ATOM      2  C   UNL     1       2.963   4.992  18.538  0.00  0.00    +0.000 A 
ATOM      3  S   UNL     1       4.044   3.954  17.711  0.00  0.00    +0.000 S 
ATOM      4  C   UNL     1       4.675   5.248  16.795  0.00  0.00    +0.000 A 
ATOM      5  C   UNL     1       4.007   6.424  17.053  0.00  0.00    +0.000 A 
ENDROOT
BRANCH   1  10
ATOM      6  O   UNL     1       0.268  10.400  20.321  0.00  0.00    +0.000 OA
ATOM      7  C   UNL     1       0.961   9.514  19.838  0.00  0.00    +0.000 A 
ATOM      8  C   UNL     1       1.376   9.570  18.423  0.00  0.00    +0.000 A 
ATOM      9  C   UNL     1       2.119   8.594  17.893  0.00  0.00    +0.000 A 
ATOM     10  C   UNL     1       2.445   7.463  18.785  0.00  0.00    +0.000 A 
ATOM     11  N   UNL     1       2.109   7.373  20.032  0.00  0.00    +0.000 NA
ATOM     12  N   UNL     1       1.399   8.423  20.547  0.00  0.00    +0.000 N 
ATOM     13  H   UNL     1       1.114   8.348  21.518  0.00  0.00    +0.000 HD
ENDBRANCH   1  10
BRANCH   4  14
ATOM     14  S   UNL     1       6.070   4.882  15.758  0.00  0.00    +0.000 S 
ATOM     15  O   UNL     1       6.075   3.443  15.602  0.00  0.00    +0.000 OA
ATOM     16  O   UNL     1       5.936   5.766  14.621  0.00  0.00    +0.000 OA
BRANCH  14  17
ATOM     17  N   UNL     1       7.471   5.341  16.618  0.00  0.00    +0.000 NA
ATOM     18  C   UNL     1       7.739   4.598  17.879  0.00  0.00    +0.000 C 
ATOM     19  C   UNL     1       7.241   5.523  18.972  0.00  0.00    +0.000 C 
ATOM     20  C   UNL     1       7.602   6.902  18.457  0.00  0.00    +0.000 C 
ATOM     21  C   UNL     1       7.549   6.791  16.938  0.00  0.00    +0.000 C 
ENDBRANCH  14  17
ENDBRANCH   4  14
TORSDOF 3
ENDMDL
MODEL 6
REMARK VINA RESULT:      -7.3      1.338      1.540
REMARK  Name = 
REMARK  3 active torsions:
REMARK  status: ('A' for Active; 'I' for Inactive)
REMARK    1  A    between atoms: C_5  and  C_6
REMARK    2  A    between atoms: C_9  and  S_10
REMARK    3  A    between atoms: S_10  and  N_13
REMARK                            x       y       z     vdW  Elec       q    Type
REMARK                         _______ _______ _______ _____ _____    ______ ____
ROOT
ATOM      1  C   UNL     1       6.536   4.946  16.285  0.00  0.00    +0.000 A 
ATOM      2  C   UNL     1       7.351   5.483  17.268  0.00  0.00    +0.000 A 
ATOM      3  S   UNL     1       6.683   5.335  18.838  0.00  0.00    +0.000 S 
ATOM      4  C   UNL     1       5.272   4.594  18.231  0.00  0.00    +0.000 A 
ATOM      5  C   UNL     1       5.277   4.549  16.855  0.00  0.00    +0.000 A 
ENDROOT
BRANCH   1  10
ATOM      6  O   UNL     1       7.464   4.563  10.964  0.00  0.00    +0.000 OA
ATOM      7  C   UNL     1       7.289   4.594  12.176  0.00  0.00    +0.000 A 
ATOM      8  C   UNL     1       6.263   3.745  12.810  0.00  0.00    +0.000 A 
ATOM      9  C   UNL     1       6.062   3.793  14.129  0.00  0.00    +0.000 A 
ATOM     10  C   UNL     1       6.883   4.762  14.881  0.00  0.00    +0.000 A 
ATOM     11  N   UNL     1       7.799   5.523  14.370  0.00  0.00    +0.000 NA
ATOM     12  N   UNL     1       8.009   5.397  13.024  0.00  0.00    +0.000 N 
ATOM     13  H   UNL     1       8.710   6.005  12.615  0.00  0.00    +0.000 HD
ENDBRANCH   1  10
BRANCH   4  14
ATOM     14  S   UNL     1       4.118   3.977  19.432  0.00  0.00    +0.000 S 
ATOM     15  O   UNL     1       4.650   2.703  19.866  0.00  0.00    +0.000 OA
ATOM     16  O   UNL     1       3.920   5.070  20.359  0.00  0.00    +0.000 OA
BRANCH  14  17
ATOM     17  N   UNL     1       2.643   3.703  18.619  0.00  0.00    +0.000 NA
ATOM     18  C   UNL     1       1.429   4.290  19.249  0.00  0.00    +0.000 C 
ATOM     19  C   UNL     1       0.788   3.129  19.983  0.00  0.00    +0.000 C 
ATOM     20  C   UNL     1       1.041   1.950  19.064  0.00  0.00    +0.000 C 
ATOM     21  C   UNL     1       2.347   2.272  18.347  0.00  0.00    +0.000 C 
ENDBRANCH  14  17
ENDBRANCH   4  14
TORSDOF 3
ENDMDL
MODEL 7
REMARK VINA RESULT:      -7.3      2.962      7.239
REMARK  Name = 
REMARK  3 active torsions:
REMARK  status: ('A' for Active; 'I' for Inactive)
REMARK    1  A    between atoms: C_5  and  C_6
REMARK    2  A    between atoms: C_9  and  S_10
REMARK    3  A    between atoms: S_10  and  N_13
REMARK                            x       y       z     vdW  Elec       q    Type
REMARK                         _______ _______ _______ _____ _____    ______ ____
ROOT
ATOM      1  C   UNL     1       3.046   5.471  19.025  0.00  0.00    +0.000 A 
ATOM      2  C   UNL     1       2.684   6.776  18.731  0.00  0.00    +0.000 A 
ATOM      3  S   UNL     1       3.527   7.412  17.384  0.00  0.00    +0.000 S 
ATOM      4  C   UNL     1       4.427   5.975  17.195  0.00  0.00    +0.000 A 
ATOM      5  C   UNL     1       4.151   5.070  18.196  0.00  0.00    +0.000 A 
ENDROOT
BRANCH   1  10
ATOM      6  O   UNL     1       0.984   1.881  22.515  0.00  0.00    +0.000 OA
ATOM      7  C   UNL     1       1.394   2.727  21.729  0.00  0.00    +0.000 A 
ATOM      8  C   UNL     1       1.001   2.684  20.307  0.00  0.00    +0.000 A 
ATOM      9  C   UNL     1       1.462   3.597  19.448  0.00  0.00    +0.000 A 
ATOM     10  C   UNL     1       2.403   4.594  19.995  0.00  0.00    +0.000 A 
ATOM     11  N   UNL     1       2.771   4.675  21.234  0.00  0.00    +0.000 NA
ATOM     12  N   UNL     1       2.228   3.754  22.089  0.00  0.00    +0.000 N 
ATOM     13  H   UNL     1       2.529   3.799  23.057  0.00  0.00    +0.000 HD
ENDBRANCH   1  10
BRANCH   4  14
ATOM     14  S   UNL     1       5.470   5.873  15.761  0.00  0.00    +0.000 S 
ATOM     15  O   UNL     1       5.250   4.553  15.210  0.00  0.00    +0.000 OA
ATOM     16  O   UNL     1       5.181   7.069  15.000  0.00  0.00    +0.000 OA
BRANCH  14  17
ATOM     17  N   UNL     1       7.085   5.973  16.306  0.00  0.00    +0.000 NA
ATOM     18  C   UNL     1       7.662   4.727  16.877  0.00  0.00    +0.000 C 
ATOM     19  C   UNL     1       7.558   4.918  18.377  0.00  0.00    +0.000 C 
ATOM     20  C   UNL     1       7.835   6.397  18.563  0.00  0.00    +0.000 C 
ATOM     21  C   UNL     1       7.337   7.063  17.285  0.00  0.00    +0.000 C 
ENDBRANCH  14  17
ENDBRANCH   4  14
TORSDOF 3
ENDMDL
MODEL 8
REMARK VINA RESULT:      -7.2      4.281      6.048
REMARK  Name = 
REMARK  3 active torsions:
REMARK  status: ('A' for Active; 'I' for Inactive)
REMARK    1  A    between atoms: C_5  and  C_6
REMARK    2  A    between atoms: C_9  and  S_10
REMARK    3  A    between atoms: S_10  and  N_13
REMARK                            x       y       z     vdW  Elec       q    Type
REMARK                         _______ _______ _______ _____ _____    ______ ____
ROOT
ATOM      1  C   UNL     1       2.921   7.218  18.147  0.00  0.00    +0.000 A 
ATOM      2  C   UNL     1       4.211   7.182  17.645  0.00  0.00    +0.000 A 
ATOM      3  S   UNL     1       4.757   5.591  17.328  0.00  0.00    +0.000 S 
ATOM      4  C   UNL     1       3.299   4.915  17.900  0.00  0.00    +0.000 A 
ATOM      5  C   UNL     1       2.458   5.881  18.406  0.00  0.00    +0.000 A 
ENDROOT
BRANCH   1  10
ATOM      6  O   UNL     1       0.285  11.835  19.178  0.00  0.00    +0.000 OA
ATOM      7  C   UNL     1       0.823  10.762  18.933  0.00  0.00    +0.000 A 
ATOM      8  C   UNL     1       0.856   9.688  19.944  0.00  0.00    +0.000 A 
ATOM      9  C   UNL     1       1.458   8.525  19.681  0.00  0.00    +0.000 A 
ATOM     10  C   UNL     1       2.110   8.411  18.362  0.00  0.00    +0.000 A 
ATOM     11  N   UNL     1       2.103   9.321  17.441  0.00  0.00    +0.000 NA
ATOM     12  N   UNL     1       1.424  10.474  17.734  0.00  0.00    +0.000 N 
ATOM     13  H   UNL     1       1.433  11.199  17.025  0.00  0.00    +0.000 HD
ENDBRANCH   1  10
BRANCH   4  14
ATOM     14  S   UNL     1       3.100   3.162  17.694  0.00  0.00    +0.000 S 
ATOM     15  O   UNL     1       1.902   2.995  16.899  0.00  0.00    +0.000 OA
ATOM     16  O   UNL     1       4.387   2.690  17.232  0.00  0.00    +0.000 OA
BRANCH  14  17
ATOM     17  N   UNL     1       2.822   2.500  19.243  0.00  0.00    +0.000 NA
ATOM     18  C   UNL     1       1.403   2.223  19.592  0.00  0.00    +0.000 C 
ATOM     19  C   UNL     1       0.991   3.401  20.452  0.00  0.00    +0.000 C 
ATOM     20  C   UNL     1       2.240   3.704  21.255  0.00  0.00    +0.000 C 
ATOM     21  C   UNL     1       3.403   3.289  20.361  0.00  0.00    +0.000 C 
ENDBRANCH  14  17
ENDBRANCH   4  14
TORSDOF 3
ENDMDL
MODEL 9
REMARK VINA RESULT:      -7.1      3.182      3.752
REMARK  Name = 
REMARK  3 active torsions:
REMARK  status: ('A' for Active; 'I' for Inactive)
REMARK    1  A    between atoms: C_5  and  C_6
REMARK    2  A    between atoms: C_9  and  S_10
REMARK    3  A    between atoms: S_10  and  N_13
REMARK                            x       y       z     vdW  Elec       q    Type
REMARK                         _______ _______ _______ _____ _____    ______ ____
ROOT
ATOM      1  C   UNL     1       5.871   5.370  17.929  0.00  0.00    +0.000 A 
ATOM      2  C   UNL     1       4.887   5.249  16.962  0.00  0.00    +0.000 A 
ATOM      3  S   UNL     1       3.800   3.963  17.275  0.00  0.00    +0.000 S 
ATOM      4  C   UNL     1       4.651   3.512  18.684  0.00  0.00    +0.000 A 
ATOM      5  C   UNL     1       5.788   4.270  18.853  0.00  0.00    +0.000 A 
ENDROOT
BRANCH   1  10
ATOM      6  O   UNL     1       9.158   9.610  18.660  0.00  0.00    +0.000 OA
ATOM      7  C   UNL     1       8.449   8.635  18.440  0.00  0.00    +0.000 A 
ATOM      8  C   UNL     1       7.369   8.702  17.437  0.00  0.00    +0.000 A 
ATOM      9  C   UNL     1       6.586   7.645  17.211  0.00  0.00    +0.000 A 
ATOM     10  C   UNL     1       6.839   6.453  18.046  0.00  0.00    +0.000 A 
ATOM     11  N   UNL     1       7.777   6.345  18.932  0.00  0.00    +0.000 NA
ATOM     12  N   UNL     1       8.592   7.434  19.088  0.00  0.00    +0.000 N 
ATOM     13  H   UNL     1       9.314   7.364  19.796  0.00  0.00    +0.000 HD
ENDBRANCH   1  10
BRANCH   4  14
ATOM     14  S   UNL     1       3.917   2.239  19.681  0.00  0.00    +0.000 S 
ATOM     15  O   UNL     1       3.116   1.445  18.776  0.00  0.00    +0.000 OA
ATOM     16  O   UNL     1       5.018   1.662  20.423  0.00  0.00    +0.000 OA
BRANCH  14  17
ATOM     17  N   UNL     1       2.879   3.008  20.797  0.00  0.00    +0.000 NA
ATOM     18  C   UNL     1       1.442   2.630  20.721  0.00  0.00    +0.000 C 
ATOM     19  C   UNL     1       0.797   3.758  19.941  0.00  0.00    +0.000 C 
ATOM     20  C   UNL     1       1.547   4.987  20.416  0.00  0.00    +0.000 C 
ATOM     21  C   UNL     1       2.944   4.493  20.774  0.00  0.00    +0.000 C 
ENDBRANCH  14  17
ENDBRANCH   4  14
TORSDOF 3
ENDMDL
