MODEL 1
REMARK VINA RESULT:      -8.2      0.000      0.000
REMARK  Name = 
REMARK  6 active torsions:
REMARK  status: ('A' for Active; 'I' for Inactive)
REMARK    1  A    between atoms: C_1  and  C_2
REMARK    2  A    between atoms: C_2  and  O_3
REMARK    3  A    between atoms: O_3  and  C_4
REMARK    4  A    between atoms: C_4  and  C_6
REMARK    5  A    between atoms: N_19  and  C_20
REMARK    6  A    between atoms: C_20  and  C_21
REMARK                            x       y       z     vdW  Elec       q    Type
REMARK                         _______ _______ _______ _____ _____    ______ ____
ROOT
ATOM      1  C   UNL     1       5.944   4.176  15.342  0.00  0.00    +0.000 A 
ATOM      2  C   UNL     1       4.693   3.858  15.711  0.00  0.00    +0.000 A 
ATOM      3  C   UNL     1       4.253   3.880  17.094  0.00  0.00    +0.000 A 
ATOM      4  C   UNL     1       2.876   3.422  17.422  0.00  0.00    +0.000 A 
ATOM      5  O   UNL     1       2.141   2.989  16.533  0.00  0.00    +0.000 OA
ATOM      6  N   UNL     1       2.508   3.521  18.751  0.00  0.00    +0.000 N 
ATOM      7  C   UNL     1       1.240   3.103  19.139  0.00  0.00    +0.000 A 
ATOM      8  C   UNL     1       0.825   3.194  20.409  0.00  0.00    +0.000 A 
ATOM      9  C   UNL     1       1.704   3.745  21.408  0.00  0.00    +0.000 A 
ATOM     10  C   UNL     1       2.936   4.153  21.078  0.00  0.00    +0.000 A 
ATOM     11  C   UNL     1       3.405   4.039  19.667  0.00  0.00    +0.000 A 
ATOM     12  N   UNL     1       4.606   4.430  19.382  0.00  0.00    +0.000 NA
ATOM     13  C   UNL     1       5.057   4.336  18.082  0.00  0.00    +0.000 A 
ATOM     14  N   UNL     1       6.382   4.722  17.752  0.00  0.00    +0.000 N 
ATOM     15  C   UNL     1       6.892   4.519  16.461  0.00  0.00    +0.000 A 
ATOM     16  N   UNL     1       8.161   4.571  16.181  0.00  0.00    +0.000 NA
ATOM     17  H   UNL     1       8.727   4.729  17.019  0.00  0.00    +0.000 HD
ENDROOT
BRANCH   1  18
ATOM     18  C   UNL     1       6.269   4.080  13.903  0.00  0.00    +0.000 C 
ATOM     19  O   UNL     1       7.118   4.776  13.358  0.00  0.00    +0.000 OA
BRANCH  18  20
ATOM     20  O   UNL     1       5.503   3.158  13.277  0.00  0.00    +0.000 OA
BRANCH  20  22
ATOM     21  C   UNL     1       4.130   3.250  11.319  0.00  0.00    +0.000 C 
ATOM     22  C   UNL     1       5.555   3.205  11.847  0.00  0.00    +0.000 C 
ENDBRANCH  20  22
ENDBRANCH  18  20
ENDBRANCH   1  18
BRANCH  14  23
ATOM     23  C   UNL     1       7.171   5.474  18.745  0.00  0.00    +0.000 C 
BRANCH  23  24
ATOM     24  C   UNL     1       7.496   6.898  18.431  0.00  0.00    +0.000 A 
ATOM     25  C   UNL     1       6.996   7.805  17.520  0.00  0.00    +0.000 A 
ATOM     26  C   UNL     1       7.838   8.941  17.579  0.00  0.00    +0.000 A 
ATOM     27  C   UNL     1       8.771   8.675  18.553  0.00  0.00    +0.000 A 
ATOM     28  O   UNL     1       8.569   7.440  19.082  0.00  0.00    +0.000 OA
ENDBRANCH  23  24
ENDBRANCH  14  23
TORSDOF 5
ENDMDL
MODEL 2
REMARK VINA RESULT:      -8.2      3.188      4.948
REMARK  Name = 
REMARK  6 active torsions:
REMARK  status: ('A' for Active; 'I' for Inactive)
REMARK    1  A    between atoms: C_1  and  C_2
REMARK    2  A    between atoms: C_2  and  O_3
REMARK    3  A    between atoms: O_3  and  C_4
REMARK    4  A    between atoms: C_4  and  C_6
REMARK    5  A    between atoms: N_19  and  C_20
REMARK    6  A    between atoms: C_20  and  C_21
REMARK                            x       y       z     vdW  Elec       q    Type
REMARK                         _______ _______ _______ _____ _____    ______ ____
ROOT
ATOM      1  C   UNL     1       5.154   5.449  16.439  0.00  0.00    +0.000 A 
ATOM      2  C   UNL     1       4.518   6.614  16.641  0.00  0.00    +0.000 A 
ATOM      3  C   UNL     1       3.617   6.833  17.758  0.00  0.00    +0.000 A 
ATOM      4  C   UNL     1       2.883   8.124  17.852  0.00  0.00    +0.000 A 
ATOM      5  O   UNL     1       3.009   8.972  16.967  0.00  0.00    +0.000 OA
ATOM      6  N   UNL     1       2.084   8.284  18.969  0.00  0.00    +0.000 N 
ATOM      7  C   UNL     1       1.357   9.458  19.124  0.00  0.00    +0.000 A 
ATOM      8  C   UNL     1       0.583   9.673  20.194  0.00  0.00    +0.000 A 
ATOM      9  C   UNL     1       0.498   8.670  21.224  0.00  0.00    +0.000 A 
ATOM     10  C   UNL     1       1.176   7.521  21.111  0.00  0.00    +0.000 A 
ATOM     11  C   UNL     1       2.027   7.275  19.913  0.00  0.00    +0.000 A 
ATOM     12  N   UNL     1       2.661   6.149  19.826  0.00  0.00    +0.000 NA
ATOM     13  C   UNL     1       3.456   5.902  18.726  0.00  0.00    +0.000 A 
ATOM     14  N   UNL     1       4.129   4.660  18.590  0.00  0.00    +0.000 N 
ATOM     15  C   UNL     1       4.843   4.351  17.422  0.00  0.00    +0.000 A 
ATOM     16  N   UNL     1       5.220   3.144  17.118  0.00  0.00    +0.000 NA
ATOM     17  H   UNL     1       4.892   2.461  17.805  0.00  0.00    +0.000 HD
ENDROOT
BRANCH   1  18
ATOM     18  C   UNL     1       6.018   5.350  15.244  0.00  0.00    +0.000 C 
ATOM     19  O   UNL     1       7.149   5.821  15.191  0.00  0.00    +0.000 OA
BRANCH  18  20
ATOM     20  O   UNL     1       5.400   4.703  14.230  0.00  0.00    +0.000 OA
BRANCH  20  22
ATOM     21  C   UNL     1       5.459   3.334  12.269  0.00  0.00    +0.000 C 
ATOM     22  C   UNL     1       6.241   3.821  13.478  0.00  0.00    +0.000 C 
ENDBRANCH  20  22
ENDBRANCH  18  20
ENDBRANCH   1  18
BRANCH  14  23
ATOM     23  C   UNL     1       4.191   3.755  19.751  0.00  0.00    +0.000 C 
BRANCH  23  24
ATOM     24  C   UNL     1       2.913   3.132  20.209  0.00  0.00    +0.000 A 
ATOM     25  C   UNL     1       1.769   2.725  19.552  0.00  0.00    +0.000 A 
ATOM     26  C   UNL     1       0.831   2.378  20.553  0.00  0.00    +0.000 A 
ATOM     27  C   UNL     1       1.475   2.551  21.756  0.00  0.00    +0.000 A 
ATOM     28  O   UNL     1       2.741   3.001  21.558  0.00  0.00    +0.000 OA
ENDBRANCH  23  24
ENDBRANCH  14  23
TORSDOF 5
ENDMDL
MODEL 3
REMARK VINA RESULT:      -7.7      3.970      6.036
REMARK  Name = 
REMARK  6 active torsions:
REMARK  status: ('A' for Active; 'I' for Inactive)
REMARK    1  A    between atoms: C_1  and  C_2
REMARK    2  A    between atoms: C_2  and  O_3
REMARK    3  A    between atoms: O_3  and  C_4
REMARK    4  A    between atoms: C_4  and  C_6
REMARK    5  A    between atoms: N_19  and  C_20
REMARK    6  A    between atoms: C_20  and  C_21
REMARK                            x       y       z     vdW  Elec       q    Type
REMARK                         _______ _______ _______ _____ _____    ______ ____
ROOT
ATOM      1  C   UNL     1       4.481   6.347  17.127  0.00  0.00    +0.000 A 
ATOM      2  C   UNL     1       3.800   7.502  17.206  0.00  0.00    +0.000 A 
ATOM      3  C   UNL     1       2.855   7.784  18.271  0.00  0.00    +0.000 A 
ATOM      4  C   UNL     1       2.076   9.052  18.228  0.00  0.00    +0.000 A 
ATOM      5  O   UNL     1       2.204   9.823  17.277  0.00  0.00    +0.000 OA
ATOM      6  N   UNL     1       1.235   9.279  19.302  0.00  0.00    +0.000 N 
ATOM      7  C   UNL     1       0.465  10.436  19.331  0.00  0.00    +0.000 A 
ATOM      8  C   UNL     1      -0.351  10.715  20.354  0.00  0.00    +0.000 A 
ATOM      9  C   UNL     1      -0.437   9.803  21.465  0.00  0.00    +0.000 A 
ATOM     10  C   UNL     1       0.282   8.673  21.475  0.00  0.00    +0.000 A 
ATOM     11  C   UNL     1       1.180   8.354  20.329  0.00  0.00    +0.000 A 
ATOM     12  N   UNL     1       1.854   7.249  20.361  0.00  0.00    +0.000 NA
ATOM     13  C   UNL     1       2.693   6.936  19.312  0.00  0.00    +0.000 A 
ATOM     14  N   UNL     1       3.411   5.712  19.307  0.00  0.00    +0.000 N 
ATOM     15  C   UNL     1       4.173   5.328  18.193  0.00  0.00    +0.000 A 
ATOM     16  N   UNL     1       4.600   4.114  18.008  0.00  0.00    +0.000 NA
ATOM     17  H   UNL     1       4.272   3.482  18.742  0.00  0.00    +0.000 HD
ENDROOT
BRANCH   1  18
ATOM     18  C   UNL     1       5.388   6.175  15.972  0.00  0.00    +0.000 C 
ATOM     19  O   UNL     1       5.164   5.398  15.051  0.00  0.00    +0.000 OA
BRANCH  18  20
ATOM     20  O   UNL     1       6.485   6.957  16.077  0.00  0.00    +0.000 OA
BRANCH  20  22
ATOM     21  C   UNL     1       7.849   7.985  17.753  0.00  0.00    +0.000 C 
ATOM     22  C   UNL     1       7.323   6.670  17.203  0.00  0.00    +0.000 C 
ENDBRANCH  20  22
ENDBRANCH  18  20
ENDBRANCH   1  18
BRANCH  14  23
ATOM     23  C   UNL     1       3.464   4.915  20.545  0.00  0.00    +0.000 C 
BRANCH  23  24
ATOM     24  C   UNL     1       2.455   3.824  20.706  0.00  0.00    +0.000 A 
ATOM     25  C   UNL     1       1.504   3.283  19.866  0.00  0.00    +0.000 A 
ATOM     26  C   UNL     1       0.728   2.398  20.653  0.00  0.00    +0.000 A 
ATOM     27  C   UNL     1       1.282   2.420  21.911  0.00  0.00    +0.000 A 
ATOM     28  O   UNL     1       2.336   3.277  21.953  0.00  0.00    +0.000 OA
ENDBRANCH  23  24
ENDBRANCH  14  23
TORSDOF 5
ENDMDL
MODEL 4
REMARK VINA RESULT:      -7.5      3.640      5.560
REMARK  Name = 
REMARK  6 active torsions:
REMARK  status: ('A' for Active; 'I' for Inactive)
REMARK    1  A    between atoms: C_1  and  C_2
REMARK    2  A    between atoms: C_2  and  O_3
REMARK    3  A    between atoms: O_3  and  C_4
REMARK    4  A    between atoms: C_4  and  C_6
REMARK    5  A    between atoms: N_19  and  C_20
REMARK    6  A    between atoms: C_20  and  C_21
REMARK                            x       y       z     vdW  Elec       q    Type
REMARK                         _______ _______ _______ _____ _____    ______ ____
ROOT
ATOM      1  C   UNL     1       3.968   4.279  19.221  0.00  0.00    +0.000 A 
ATOM      2  C   UNL     1       3.008   5.046  19.763  0.00  0.00    +0.000 A 
ATOM      3  C   UNL     1       2.777   6.419  19.353  0.00  0.00    +0.000 A 
ATOM      4  C   UNL     1       1.754   7.226  20.073  0.00  0.00    +0.000 A 
ATOM      5  O   UNL     1       1.148   6.742  21.031  0.00  0.00    +0.000 OA
ATOM      6  N   UNL     1       1.549   8.506  19.595  0.00  0.00    +0.000 N 
ATOM      7  C   UNL     1       0.617   9.326  20.220  0.00  0.00    +0.000 A 
ATOM      8  C   UNL     1       0.365  10.568  19.787  0.00  0.00    +0.000 A 
ATOM      9  C   UNL     1       1.068  11.077  18.638  0.00  0.00    +0.000 A 
ATOM     10  C   UNL     1       1.979  10.323  18.010  0.00  0.00    +0.000 A 
ATOM     11  C   UNL     1       2.270   8.946  18.500  0.00  0.00    +0.000 A 
ATOM     12  N   UNL     1       3.166   8.245  17.879  0.00  0.00    +0.000 NA
ATOM     13  C   UNL     1       3.448   6.968  18.314  0.00  0.00    +0.000 A 
ATOM     14  N   UNL     1       4.452   6.196  17.674  0.00  0.00    +0.000 N 
ATOM     15  C   UNL     1       4.832   4.944  18.182  0.00  0.00    +0.000 A 
ATOM     16  N   UNL     1       5.926   4.336  17.828  0.00  0.00    +0.000 NA
ATOM     17  H   UNL     1       6.482   4.902  17.183  0.00  0.00    +0.000 HD
ENDROOT
BRANCH   1  18
ATOM     18  C   UNL     1       4.118   2.909  19.754  0.00  0.00    +0.000 C 
ATOM     19  O   UNL     1       5.199   2.423  20.068  0.00  0.00    +0.000 OA
BRANCH  18  20
ATOM     20  O   UNL     1       2.931   2.266  19.825  0.00  0.00    +0.000 OA
BRANCH  20  22
ATOM     21  C   UNL     1       0.822   2.293  18.694  0.00  0.00    +0.000 C 
ATOM     22  C   UNL     1       2.309   2.009  18.560  0.00  0.00    +0.000 C 
ENDBRANCH  20  22
ENDBRANCH  18  20
ENDBRANCH   1  18
BRANCH  14  23
ATOM     23  C   UNL     1       4.991   6.661  16.384  0.00  0.00    +0.000 C 
BRANCH  23  24
ATOM     24  C   UNL     1       5.516   5.626  15.443  0.00  0.00    +0.000 A 
ATOM     25  C   UNL     1       4.932   4.567  14.777  0.00  0.00    +0.000 A 
ATOM     26  C   UNL     1       5.986   3.840  14.175  0.00  0.00    +0.000 A 
ATOM     27  C   UNL     1       7.141   4.524  14.472  0.00  0.00    +0.000 A 
ATOM     28  O   UNL     1       6.867   5.614  15.235  0.00  0.00    +0.000 OA
ENDBRANCH  23  24
ENDBRANCH  14  23
TORSDOF 5
ENDMDL
MODEL 5
REMARK VINA RESULT:      -7.5      4.456      6.524
REMARK  Name = 
REMARK  6 active torsions:
REMARK  status: ('A' for Active; 'I' for Inactive)
REMARK    1  A    between atoms: C_1  and  C_2
REMARK    2  A    between atoms: C_2  and  O_3
REMARK    3  A    between atoms: O_3  and  C_4
REMARK    4  A    between atoms: C_4  and  C_6
REMARK    5  A    between atoms: N_19  and  C_20
REMARK    6  A    between atoms: C_20  and  C_21
REMARK                            x       y       z     vdW  Elec       q    Type
REMARK                         _______ _______ _______ _____ _____    ______ ____
ROOT
ATOM      1  C   UNL     1       4.150   6.851  17.426  0.00  0.00    +0.000 A 
ATOM      2  C   UNL     1       3.575   8.064  17.391  0.00  0.00    +0.000 A 
ATOM      3  C   UNL     1       2.562   8.480  18.343  0.00  0.00    +0.000 A 
ATOM      4  C   UNL     1       1.910   9.807  18.172  0.00  0.00    +0.000 A 
ATOM      5  O   UNL     1       2.201  10.518  17.208  0.00  0.00    +0.000 OA
ATOM      6  N   UNL     1       0.994  10.159  19.145  0.00  0.00    +0.000 N 
ATOM      7  C   UNL     1       0.335  11.380  19.050  0.00  0.00    +0.000 A 
ATOM      8  C   UNL     1      -0.547  11.779  19.973  0.00  0.00    +0.000 A 
ATOM      9  C   UNL     1      -0.825  10.933  21.106  0.00  0.00    +0.000 A 
ATOM     10  C   UNL     1      -0.218   9.746  21.232  0.00  0.00    +0.000 A 
ATOM     11  C   UNL     1       0.754   9.294  20.197  0.00  0.00    +0.000 A 
ATOM     12  N   UNL     1       1.316   8.136  20.340  0.00  0.00    +0.000 NA
ATOM     13  C   UNL     1       2.221   7.701  19.395  0.00  0.00    +0.000 A 
ATOM     14  N   UNL     1       2.820   6.419  19.510  0.00  0.00    +0.000 N 
ATOM     15  C   UNL     1       3.648   5.916  18.495  0.00  0.00    +0.000 A 
ATOM     16  N   UNL     1       3.976   4.661  18.402  0.00  0.00    +0.000 NA
ATOM     17  H   UNL     1       3.521   4.097  19.124  0.00  0.00    +0.000 HD
ENDROOT
BRANCH   1  18
ATOM     18  C   UNL     1       5.145   6.544  16.377  0.00  0.00    +0.000 C 
ATOM     19  O   UNL     1       5.005   6.866  15.202  0.00  0.00    +0.000 OA
BRANCH  18  20
ATOM     20  O   UNL     1       6.198   5.856  16.871  0.00  0.00    +0.000 OA
BRANCH  20  22
ATOM     21  C   UNL     1       7.690   6.110  18.725  0.00  0.00    +0.000 C 
ATOM     22  C   UNL     1       7.265   6.667  17.377  0.00  0.00    +0.000 C 
ENDBRANCH  20  22
ENDBRANCH  18  20
ENDBRANCH   1  18
BRANCH  14  23
ATOM     23  C   UNL     1       2.678   5.681  20.778  0.00  0.00    +0.000 C 
BRANCH  23  24
ATOM     24  C   UNL     1       2.024   4.339  20.724  0.00  0.00    +0.000 A 
ATOM     25  C   UNL     1       2.194   3.173  21.443  0.00  0.00    +0.000 A 
ATOM     26  C   UNL     1       1.406   2.186  20.803  0.00  0.00    +0.000 A 
ATOM     27  C   UNL     1       0.771   2.821  19.761  0.00  0.00    +0.000 A 
ATOM     28  O   UNL     1       1.133   4.130  19.709  0.00  0.00    +0.000 OA
ENDBRANCH  23  24
ENDBRANCH  14  23
TORSDOF 5
ENDMDL
MODEL 6
REMARK VINA RESULT:      -7.4      0.813      1.209
REMARK  Name = 
REMARK  6 active torsions:
REMARK  status: ('A' for Active; 'I' for Inactive)
REMARK    1  A    between atoms: C_1  and  C_2
REMARK    2  A    between atoms: C_2  and  O_3
REMARK    3  A    between atoms: O_3  and  C_4
REMARK    4  A    between atoms: C_4  and  C_6
REMARK    5  A    between atoms: N_19  and  C_20
REMARK    6  A    between atoms: C_20  and  C_21
REMARK                            x       y       z     vdW  Elec       q    Type
REMARK                         _______ _______ _______ _____ _____    ______ ____
ROOT
ATOM      1  C   UNL     1       5.759   4.186  15.278  0.00  0.00    +0.000 A 
ATOM      2  C   UNL     1       4.525   3.874  15.708  0.00  0.00    +0.000 A 
ATOM      3  C   UNL     1       4.165   3.860  17.114  0.00  0.00    +0.000 A 
ATOM      4  C   UNL     1       2.802   3.411  17.507  0.00  0.00    +0.000 A 
ATOM      5  O   UNL     1       2.011   3.016  16.649  0.00  0.00    +0.000 OA
ATOM      6  N   UNL     1       2.511   3.475  18.857  0.00  0.00    +0.000 N 
ATOM      7  C   UNL     1       1.261   3.063  19.304  0.00  0.00    +0.000 A 
ATOM      8  C   UNL     1       0.920   3.121  20.597  0.00  0.00    +0.000 A 
ATOM      9  C   UNL     1       1.863   3.629  21.560  0.00  0.00    +0.000 A 
ATOM     10  C   UNL     1       3.081   4.029  21.173  0.00  0.00    +0.000 A 
ATOM     11  C   UNL     1       3.466   3.952  19.735  0.00  0.00    +0.000 A 
ATOM     12  N   UNL     1       4.655   4.335  19.393  0.00  0.00    +0.000 NA
ATOM     13  C   UNL     1       5.031   4.274  18.068  0.00  0.00    +0.000 A 
ATOM     14  N   UNL     1       6.341   4.652  17.674  0.00  0.00    +0.000 N 
ATOM     15  C   UNL     1       6.774   4.481  16.350  0.00  0.00    +0.000 A 
ATOM     16  N   UNL     1       8.026   4.524  16.000  0.00  0.00    +0.000 NA
ATOM     17  H   UNL     1       8.640   4.649  16.809  0.00  0.00    +0.000 HD
ENDROOT
BRANCH   1  18
ATOM     18  C   UNL     1       5.999   4.129  13.821  0.00  0.00    +0.000 C 
ATOM     19  O   UNL     1       5.235   3.583  13.033  0.00  0.00    +0.000 OA
BRANCH  18  20
ATOM     20  O   UNL     1       7.163   4.728  13.481  0.00  0.00    +0.000 OA
BRANCH  20  22
ATOM     21  C   UNL     1       7.912   6.105  11.673  0.00  0.00    +0.000 C 
ATOM     22  C   UNL     1       7.462   4.711  12.081  0.00  0.00    +0.000 C 
ENDBRANCH  20  22
ENDBRANCH  18  20
ENDBRANCH   1  18
BRANCH  14  23
ATOM     23  C   UNL     1       7.196   5.362  18.642  0.00  0.00    +0.000 C 
BRANCH  23  24
ATOM     24  C   UNL     1       7.494   6.801  18.373  0.00  0.00    +0.000 A 
ATOM     25  C   UNL     1       7.001   7.717  17.465  0.00  0.00    +0.000 A 
ATOM     26  C   UNL     1       7.810   8.873  17.580  0.00  0.00    +0.000 A 
ATOM     27  C   UNL     1       8.716   8.608  18.580  0.00  0.00    +0.000 A 
ATOM     28  O   UNL     1       8.528   7.356  19.073  0.00  0.00    +0.000 OA
ENDBRANCH  23  24
ENDBRANCH  14  23
TORSDOF 5
ENDMDL
MODEL 7
REMARK VINA RESULT:      -7.4      4.463      6.289
REMARK  Name = 
REMARK  6 active torsions:
REMARK  status: ('A' for Active; 'I' for Inactive)
REMARK    1  A    between atoms: C_1  and  C_2
REMARK    2  A    between atoms: C_2  and  O_3
REMARK    3  A    between atoms: O_3  and  C_4
REMARK    4  A    between atoms: C_4  and  C_6
REMARK    5  A    between atoms: N_19  and  C_20
REMARK    6  A    between atoms: C_20  and  C_21
REMARK                            x       y       z     vdW  Elec       q    Type
REMARK                         _______ _______ _______ _____ _____    ______ ____
ROOT
ATOM      1  C   UNL     1       4.081   6.683  17.553  0.00  0.00    +0.000 A 
ATOM      2  C   UNL     1       3.543   7.910  17.462  0.00  0.00    +0.000 A 
ATOM      3  C   UNL     1       2.533   8.394  18.386  0.00  0.00    +0.000 A 
ATOM      4  C   UNL     1       1.924   9.732  18.155  0.00  0.00    +0.000 A 
ATOM      5  O   UNL     1       2.245  10.394  17.167  0.00  0.00    +0.000 OA
ATOM      6  N   UNL     1       1.010  10.151  19.104  0.00  0.00    +0.000 N 
ATOM      7  C   UNL     1       0.389  11.385  18.953  0.00  0.00    +0.000 A 
ATOM      8  C   UNL     1      -0.489  11.848  19.851  0.00  0.00    +0.000 A 
ATOM      9  C   UNL     1      -0.803  11.057  21.013  0.00  0.00    +0.000 A 
ATOM     10  C   UNL     1      -0.233   9.859  21.193  0.00  0.00    +0.000 A 
ATOM     11  C   UNL     1       0.735   9.336  20.187  0.00  0.00    +0.000 A 
ATOM     12  N   UNL     1       1.260   8.169  20.383  0.00  0.00    +0.000 NA
ATOM     13  C   UNL     1       2.160   7.669  19.466  0.00  0.00    +0.000 A 
ATOM     14  N   UNL     1       2.719   6.376  19.639  0.00  0.00    +0.000 N 
ATOM     15  C   UNL     1       3.540   5.808  18.653  0.00  0.00    +0.000 A 
ATOM     16  N   UNL     1       3.832   4.541  18.614  0.00  0.00    +0.000 NA
ATOM     17  H   UNL     1       3.354   4.020  19.354  0.00  0.00    +0.000 HD
ENDROOT
BRANCH   1  18
ATOM     18  C   UNL     1       5.075   6.305  16.527  0.00  0.00    +0.000 C 
ATOM     19  O   UNL     1       6.010   7.027  16.198  0.00  0.00    +0.000 OA
BRANCH  18  20
ATOM     20  O   UNL     1       4.810   5.091  15.995  0.00  0.00    +0.000 OA
BRANCH  20  22
ATOM     21  C   UNL     1       6.035   4.041  14.227  0.00  0.00    +0.000 C 
ATOM     22  C   UNL     1       5.964   4.286  15.726  0.00  0.00    +0.000 C 
ENDBRANCH  20  22
ENDBRANCH  18  20
ENDBRANCH   1  18
BRANCH  14  23
ATOM     23  C   UNL     1       2.544   5.694  20.933  0.00  0.00    +0.000 C 
BRANCH  23  24
ATOM     24  C   UNL     1       1.931   4.331  20.917  0.00  0.00    +0.000 A 
ATOM     25  C   UNL     1       2.143   3.189  21.662  0.00  0.00    +0.000 A 
ATOM     26  C   UNL     1       1.381   2.163  21.052  0.00  0.00    +0.000 A 
ATOM     27  C   UNL     1       0.718   2.753  20.002  0.00  0.00    +0.000 A 
ATOM     28  O   UNL     1       1.039   4.070  19.915  0.00  0.00    +0.000 OA
ENDBRANCH  23  24
ENDBRANCH  14  23
TORSDOF 5
ENDMDL
MODEL 8
REMARK VINA RESULT:      -7.3      4.314      6.441
REMARK  Name = 
REMARK  6 active torsions:
REMARK  status: ('A' for Active; 'I' for Inactive)
REMARK    1  A    between atoms: C_1  and  C_2
REMARK    2  A    between atoms: C_2  and  O_3
REMARK    3  A    between atoms: O_3  and  C_4
REMARK    4  A    between atoms: C_4  and  C_6
REMARK    5  A    between atoms: N_19  and  C_20
REMARK    6  A    between atoms: C_20  and  C_21
REMARK                            x       y       z     vdW  Elec       q    Type
REMARK                         _______ _______ _______ _____ _____    ______ ____
ROOT
ATOM      1  C   UNL     1       2.166   4.901  20.590  0.00  0.00    +0.000 A 
ATOM      2  C   UNL     1       1.451   5.994  20.905  0.00  0.00    +0.000 A 
ATOM      3  C   UNL     1       1.620   7.265  20.225  0.00  0.00    +0.000 A 
ATOM      4  C   UNL     1       0.853   8.448  20.702  0.00  0.00    +0.000 A 
ATOM      5  O   UNL     1       0.122   8.352  21.689  0.00  0.00    +0.000 OA
ATOM      6  N   UNL     1       1.023   9.610  19.973  0.00  0.00    +0.000 N 
ATOM      7  C   UNL     1       0.349  10.762  20.363  0.00  0.00    +0.000 A 
ATOM      8  C   UNL     1       0.462  11.910  19.683  0.00  0.00    +0.000 A 
ATOM      9  C   UNL     1       1.297  11.963  18.510  0.00  0.00    +0.000 A 
ATOM     10  C   UNL     1       1.969  10.879  18.105  0.00  0.00    +0.000 A 
ATOM     11  C   UNL     1       1.855   9.604  18.869  0.00  0.00    +0.000 A 
ATOM     12  N   UNL     1       2.528   8.576  18.460  0.00  0.00    +0.000 NA
ATOM     13  C   UNL     1       2.434   7.387  19.151  0.00  0.00    +0.000 A 
ATOM     14  N   UNL     1       3.191   6.258  18.744  0.00  0.00    +0.000 N 
ATOM     15  C   UNL     1       3.197   5.080  19.507  0.00  0.00    +0.000 A 
ATOM     16  N   UNL     1       4.082   4.139  19.356  0.00  0.00    +0.000 NA
ATOM     17  H   UNL     1       4.784   4.390  18.655  0.00  0.00    +0.000 HD
ENDROOT
BRANCH   1  18
ATOM     18  C   UNL     1       1.917   3.680  21.385  0.00  0.00    +0.000 C 
ATOM     19  O   UNL     1       2.557   3.389  22.389  0.00  0.00    +0.000 OA
BRANCH  18  20
ATOM     20  O   UNL     1       0.926   2.930  20.853  0.00  0.00    +0.000 OA
BRANCH  20  22
ATOM     21  C   UNL     1       0.769   2.366  18.533  0.00  0.00    +0.000 C 
ATOM     22  C   UNL     1       1.354   1.971  19.879  0.00  0.00    +0.000 C 
ENDBRANCH  20  22
ENDBRANCH  18  20
ENDBRANCH   1  18
BRANCH  14  23
ATOM     23  C   UNL     1       3.858   6.286  17.430  0.00  0.00    +0.000 C 
BRANCH  23  24
ATOM     24  C   UNL     1       5.352   6.313  17.416  0.00  0.00    +0.000 A 
ATOM     25  C   UNL     1       6.281   7.333  17.377  0.00  0.00    +0.000 A 
ATOM     26  C   UNL     1       7.544   6.720  17.198  0.00  0.00    +0.000 A 
ATOM     27  C   UNL     1       7.313   5.365  17.185  0.00  0.00    +0.000 A 
ATOM     28  O   UNL     1       5.987   5.106  17.323  0.00  0.00    +0.000 OA
ENDBRANCH  23  24
ENDBRANCH  14  23
TORSDOF 5
ENDMDL
MODEL 9
REMARK VINA RESULT:      -6.9      3.948      5.891
REMARK  Name = 
REMARK  6 active torsions:
REMARK  status: ('A' for Active; 'I' for Inactive)
REMARK    1  A    between atoms: C_1  and  C_2
REMARK    2  A    between atoms: C_2  and  O_3
REMARK    3  A    between atoms: O_3  and  C_4
REMARK    4  A    between atoms: C_4  and  C_6
REMARK    5  A    between atoms: N_19  and  C_20
REMARK    6  A    between atoms: C_20  and  C_21
REMARK                            x       y       z     vdW  Elec       q    Type
REMARK                         _______ _______ _______ _____ _____    ______ ____
ROOT
ATOM      1  C   UNL     1       4.448   6.721  17.032  0.00  0.00    +0.000 A 
ATOM      2  C   UNL     1       3.780   7.861  17.271  0.00  0.00    +0.000 A 
ATOM      3  C   UNL     1       2.806   7.991  18.340  0.00  0.00    +0.000 A 
ATOM      4  C   UNL     1       2.045   9.263  18.473  0.00  0.00    +0.000 A 
ATOM      5  O   UNL     1       2.212  10.171  17.657  0.00  0.00    +0.000 OA
ATOM      6  N   UNL     1       1.174   9.335  19.544  0.00  0.00    +0.000 N 
ATOM      7  C   UNL     1       0.418  10.487  19.730  0.00  0.00    +0.000 A 
ATOM      8  C   UNL     1      -0.426  10.618  20.761  0.00  0.00    +0.000 A 
ATOM      9  C   UNL     1      -0.559   9.545  21.713  0.00  0.00    +0.000 A 
ATOM     10  C   UNL     1       0.145   8.416  21.567  0.00  0.00    +0.000 A 
ATOM     11  C   UNL     1       1.075   8.264  20.412  0.00  0.00    +0.000 A 
ATOM     12  N   UNL     1       1.733   7.154  20.291  0.00  0.00    +0.000 NA
ATOM     13  C   UNL     1       2.600   6.994  19.231  0.00  0.00    +0.000 A 
ATOM     14  N   UNL     1       3.303   5.774  19.055  0.00  0.00    +0.000 N 
ATOM     15  C   UNL     1       4.094   5.555  17.917  0.00  0.00    +0.000 A 
ATOM     16  N   UNL     1       4.511   4.377  17.558  0.00  0.00    +0.000 NA
ATOM     17  H   UNL     1       4.152   3.644  18.175  0.00  0.00    +0.000 HD
ENDROOT
BRANCH   1  18
ATOM     18  C   UNL     1       5.388   6.715  15.892  0.00  0.00    +0.000 C 
ATOM     19  O   UNL     1       5.059   7.008  14.748  0.00  0.00    +0.000 OA
BRANCH  18  20
ATOM     20  O   UNL     1       6.628   6.329  16.267  0.00  0.00    +0.000 OA
BRANCH  20  22
ATOM     21  C   UNL     1       7.696   6.343  18.409  0.00  0.00    +0.000 C 
ATOM     22  C   UNL     1       7.263   7.188  17.221  0.00  0.00    +0.000 C 
ENDBRANCH  20  22
ENDBRANCH  18  20
ENDBRANCH   1  18
BRANCH  14  23
ATOM     23  C   UNL     1       3.307   4.793  20.154  0.00  0.00    +0.000 C 
BRANCH  23  24
ATOM     24  C   UNL     1       3.243   3.346  19.787  0.00  0.00    +0.000 A 
ATOM     25  C   UNL     1       4.099   2.281  19.981  0.00  0.00    +0.000 A 
ATOM     26  C   UNL     1       3.567   1.196  19.243  0.00  0.00    +0.000 A 
ATOM     27  C   UNL     1       2.398   1.654  18.681  0.00  0.00    +0.000 A 
ATOM     28  O   UNL     1       2.188   2.955  19.011  0.00  0.00    +0.000 OA
ENDBRANCH  23  24
ENDBRANCH  14  23
TORSDOF 5
ENDMDL
