MODEL 1
REMARK VINA RESULT:      -8.0      0.000      0.000
REMARK  Name = 
REMARK  6 active torsions:
REMARK  status: ('A' for Active; 'I' for Inactive)
REMARK    1  A    between atoms: C_5  and  C_6
REMARK    2  A    between atoms: C_6  and  N_7
REMARK    3  A    between atoms: N_7  and  C_8
REMARK    4  A    between atoms: N_11  and  C_12
REMARK    5  A    between atoms: C_12  and  C_13
REMARK    6  A    between atoms: C_13  and  C_14
REMARK                            x       y       z     vdW  Elec       q    Type
REMARK                         _______ _______ _______ _____ _____    ______ ____
ROOT
ATOM      1  C   UNL     1       6.281   4.627  17.141  0.00  0.00    +0.000 C 
ATOM      2  C   UNL     1       7.657   4.936  17.752  0.00  0.00    +0.000 C 
ATOM      3  C   UNL     1       7.765   6.365  18.289  0.00  0.00    +0.000 C 
ATOM      4  N   UNL     1       7.488   7.346  17.226  0.00  0.00    +0.000 NA
ATOM      5  C   UNL     1       6.106   7.159  16.745  0.00  0.00    +0.000 C 
ATOM      6  C   UNL     1       5.906   5.754  16.166  0.00  0.00    +0.000 C 
ENDROOT
BRANCH   1   7
ATOM      7  N   UNL     1       5.317   4.398  18.235  0.00  0.00    +0.000 NA
ATOM      8  H   UNL     1       5.602   3.554  18.736  0.00  0.00    +0.000 HD
BRANCH   7   9
ATOM      9  C   UNL     1       3.946   4.184  17.765  0.00  0.00    +0.000 C 
BRANCH   9  14
ATOM     10  F   UNL     1       0.623   2.570  22.052  0.00  0.00    +0.000 F 
ATOM     11  C   UNL     1       1.413   2.949  21.035  0.00  0.00    +0.000 A 
ATOM     12  C   UNL     1       0.859   3.646  19.967  0.00  0.00    +0.000 A 
ATOM     13  C   UNL     1       1.676   4.042  18.903  0.00  0.00    +0.000 A 
ATOM     14  C   UNL     1       3.048   3.739  18.902  0.00  0.00    +0.000 A 
ATOM     15  C   UNL     1       3.587   3.039  19.995  0.00  0.00    +0.000 A 
ATOM     16  C   UNL     1       2.768   2.647  21.048  0.00  0.00    +0.000 A 
ATOM     17  F   UNL     1       3.302   1.973  22.078  0.00  0.00    +0.000 F 
ENDBRANCH   9  14
ENDBRANCH   7   9
ENDBRANCH   1   7
BRANCH   4  18
ATOM     18  C   UNL     1       7.691   8.741  17.683  0.00  0.00    +0.000 C 
BRANCH  18  19
ATOM     19  C   UNL     1       8.807   8.875  18.738  0.00  0.00    +0.000 C 
BRANCH  19  20
ATOM     20  C   UNL     1       9.209  10.302  19.022  0.00  0.00    +0.000 A 
ATOM     21  C   UNL     1       9.480  11.189  17.975  0.00  0.00    +0.000 A 
ATOM     22  C   UNL     1       9.791  12.506  18.281  0.00  0.00    +0.000 A 
ATOM     23  N   UNL     1       9.858  12.990  19.537  0.00  0.00    +0.000 NA
ATOM     24  C   UNL     1       9.603  12.116  20.535  0.00  0.00    +0.000 A 
ATOM     25  C   UNL     1       9.283  10.781  20.332  0.00  0.00    +0.000 A 
ENDBRANCH  19  20
ENDBRANCH  18  19
ENDBRANCH   4  18
TORSDOF 6
ENDMDL
MODEL 2
REMARK VINA RESULT:      -8.0      1.305      1.692
REMARK  Name = 
REMARK  6 active torsions:
REMARK  status: ('A' for Active; 'I' for Inactive)
REMARK    1  A    between atoms: C_5  and  C_6
REMARK    2  A    between atoms: C_6  and  N_7
REMARK    3  A    between atoms: N_7  and  C_8
REMARK    4  A    between atoms: N_11  and  C_12
REMARK    5  A    between atoms: C_12  and  C_13
REMARK    6  A    between atoms: C_13  and  C_14
REMARK                            x       y       z     vdW  Elec       q    Type
REMARK                         _______ _______ _______ _____ _____    ______ ____
ROOT
ATOM      1  C   UNL     1       6.286   5.056  18.213  0.00  0.00    +0.000 C 
ATOM      2  C   UNL     1       7.764   5.360  18.496  0.00  0.00    +0.000 C 
ATOM      3  C   UNL     1       8.047   6.854  18.665  0.00  0.00    +0.000 C 
ATOM      4  N   UNL     1       7.630   7.604  17.468  0.00  0.00    +0.000 NA
ATOM      5  C   UNL     1       6.175   7.448  17.283  0.00  0.00    +0.000 C 
ATOM      6  C   UNL     1       5.796   5.977  17.084  0.00  0.00    +0.000 C 
ENDROOT
BRANCH   1   7
ATOM      7  N   UNL     1       5.530   5.160  19.477  0.00  0.00    +0.000 NA
ATOM      8  H   UNL     1       5.358   4.213  19.821  0.00  0.00    +0.000 HD
BRANCH   7   9
ATOM      9  C   UNL     1       4.226   5.811  19.322  0.00  0.00    +0.000 C 
BRANCH   9  14
ATOM     10  F   UNL     1       0.077   2.010  18.714  0.00  0.00    +0.000 F 
ATOM     11  C   UNL     1       1.063   2.909  18.860  0.00  0.00    +0.000 A 
ATOM     12  C   UNL     1       1.449   3.679  17.768  0.00  0.00    +0.000 A 
ATOM     13  C   UNL     1       2.478   4.616  17.914  0.00  0.00    +0.000 A 
ATOM     14  C   UNL     1       3.126   4.782  19.149  0.00  0.00    +0.000 A 
ATOM     15  C   UNL     1       2.715   3.997  20.240  0.00  0.00    +0.000 A 
ATOM     16  C   UNL     1       1.693   3.066  20.087  0.00  0.00    +0.000 A 
ATOM     17  F   UNL     1       1.322   2.323  21.140  0.00  0.00    +0.000 F 
ENDBRANCH   9  14
ENDBRANCH   7   9
ENDBRANCH   1   7
BRANCH   4  18
ATOM     18  C   UNL     1       7.988   9.040  17.553  0.00  0.00    +0.000 C 
BRANCH  18  19
ATOM     19  C   UNL     1       8.843   9.378  18.791  0.00  0.00    +0.000 C 
BRANCH  19  20
ATOM     20  C   UNL     1       9.385  10.787  18.790  0.00  0.00    +0.000 A 
ATOM     21  C   UNL     1      10.390  11.165  19.685  0.00  0.00    +0.000 A 
ATOM     22  C   UNL     1      10.898  12.453  19.612  0.00  0.00    +0.000 A 
ATOM     23  N   UNL     1      10.474  13.379  18.728  0.00  0.00    +0.000 NA
ATOM     24  C   UNL     1       9.496  12.999  17.879  0.00  0.00    +0.000 A 
ATOM     25  C   UNL     1       8.924  11.734  17.873  0.00  0.00    +0.000 A 
ENDBRANCH  19  20
ENDBRANCH  18  19
ENDBRANCH   4  18
TORSDOF 6
ENDMDL
MODEL 3
REMARK VINA RESULT:      -8.0      4.479      6.742
REMARK  Name = 
REMARK  6 active torsions:
REMARK  status: ('A' for Active; 'I' for Inactive)
REMARK    1  A    between atoms: C_5  and  C_6
REMARK    2  A    between atoms: C_6  and  N_7
REMARK    3  A    between atoms: N_7  and  C_8
REMARK    4  A    between atoms: N_11  and  C_12
REMARK    5  A    between atoms: C_12  and  C_13
REMARK    6  A    between atoms: C_13  and  C_14
REMARK                            x       y       z     vdW  Elec       q    Type
REMARK                         _______ _______ _______ _____ _____    ______ ____
ROOT
ATOM      1  C   UNL     1       1.115   3.107  20.616  0.00  0.00    +0.000 C 
ATOM      2  C   UNL     1       2.568   2.778  20.990  0.00  0.00    +0.000 C 
ATOM      3  C   UNL     1       3.554   3.043  19.849  0.00  0.00    +0.000 C 
ATOM      4  N   UNL     1       3.187   2.270  18.651  0.00  0.00    +0.000 NA
ATOM      5  C   UNL     1       1.853   2.697  18.190  0.00  0.00    +0.000 C 
ATOM      6  C   UNL     1       0.789   2.450  19.265  0.00  0.00    +0.000 C 
ENDROOT
BRANCH   1   7
ATOM      7  N   UNL     1       0.933   4.570  20.662  0.00  0.00    +0.000 NA
ATOM      8  H   UNL     1       0.462   4.857  19.800  0.00  0.00    +0.000 HD
BRANCH   7   9
ATOM      9  C   UNL     1       2.195   5.311  20.735  0.00  0.00    +0.000 C 
BRANCH   9  14
ATOM     10  F   UNL     1       2.051   9.982  17.543  0.00  0.00    +0.000 F 
ATOM     11  C   UNL     1       2.081   8.875  18.301  0.00  0.00    +0.000 A 
ATOM     12  C   UNL     1       2.653   7.715  17.789  0.00  0.00    +0.000 A 
ATOM     13  C   UNL     1       2.686   6.557  18.573  0.00  0.00    +0.000 A 
ATOM     14  C   UNL     1       2.143   6.554  19.869  0.00  0.00    +0.000 A 
ATOM     15  C   UNL     1       1.577   7.739  20.368  0.00  0.00    +0.000 A 
ATOM     16  C   UNL     1       1.545   8.886  19.582  0.00  0.00    +0.000 A 
ATOM     17  F   UNL     1       0.992  10.004  20.075  0.00  0.00    +0.000 F 
ENDBRANCH   9  14
ENDBRANCH   7   9
ENDBRANCH   1   7
BRANCH   4  18
ATOM     18  C   UNL     1       4.181   2.417  17.562  0.00  0.00    +0.000 C 
BRANCH  18  19
ATOM     19  C   UNL     1       3.965   3.686  16.713  0.00  0.00    +0.000 C 
BRANCH  19  20
ATOM     20  C   UNL     1       5.246   4.377  16.312  0.00  0.00    +0.000 A 
ATOM     21  C   UNL     1       5.845   4.109  15.077  0.00  0.00    +0.000 A 
ATOM     22  C   UNL     1       6.990   4.808  14.726  0.00  0.00    +0.000 A 
ATOM     23  N   UNL     1       7.576   5.734  15.512  0.00  0.00    +0.000 NA
ATOM     24  C   UNL     1       6.989   5.971  16.704  0.00  0.00    +0.000 A 
ATOM     25  C   UNL     1       5.842   5.325  17.145  0.00  0.00    +0.000 A 
ENDBRANCH  19  20
ENDBRANCH  18  19
ENDBRANCH   4  18
TORSDOF 6
ENDMDL
MODEL 4
REMARK VINA RESULT:      -7.8      4.096      6.990
REMARK  Name = 
REMARK  6 active torsions:
REMARK  status: ('A' for Active; 'I' for Inactive)
REMARK    1  A    between atoms: C_5  and  C_6
REMARK    2  A    between atoms: C_6  and  N_7
REMARK    3  A    between atoms: N_7  and  C_8
REMARK    4  A    between atoms: N_11  and  C_12
REMARK    5  A    between atoms: C_12  and  C_13
REMARK    6  A    between atoms: C_13  and  C_14
REMARK                            x       y       z     vdW  Elec       q    Type
REMARK                         _______ _______ _______ _____ _____    ______ ____
ROOT
ATOM      1  C   UNL     1       3.264   2.563  17.785  0.00  0.00    +0.000 C 
ATOM      2  C   UNL     1       2.448   3.773  17.307  0.00  0.00    +0.000 C 
ATOM      3  C   UNL     1       2.332   4.873  18.365  0.00  0.00    +0.000 C 
ATOM      4  N   UNL     1       1.722   4.349  19.599  0.00  0.00    +0.000 NA
ATOM      5  C   UNL     1       2.587   3.292  20.154  0.00  0.00    +0.000 C 
ATOM      6  C   UNL     1       2.747   2.130  19.167  0.00  0.00    +0.000 C 
ENDROOT
BRANCH   1   7
ATOM      7  N   UNL     1       4.698   2.907  17.733  0.00  0.00    +0.000 NA
ATOM      8  H   UNL     1       4.957   3.321  18.631  0.00  0.00    +0.000 HD
BRANCH   7   9
ATOM      9  C   UNL     1       5.023   3.885  16.692  0.00  0.00    +0.000 C 
BRANCH   9  14
ATOM     10  F   UNL     1       8.529   7.863  18.670  0.00  0.00    +0.000 F 
ATOM     11  C   UNL     1       7.697   6.919  18.205  0.00  0.00    +0.000 A 
ATOM     12  C   UNL     1       6.824   7.232  17.168  0.00  0.00    +0.000 A 
ATOM     13  C   UNL     1       5.952   6.252  16.679  0.00  0.00    +0.000 A 
ATOM     14  C   UNL     1       5.947   4.960  17.229  0.00  0.00    +0.000 A 
ATOM     15  C   UNL     1       6.842   4.664  18.272  0.00  0.00    +0.000 A 
ATOM     16  C   UNL     1       7.704   5.644  18.754  0.00  0.00    +0.000 A 
ATOM     17  F   UNL     1       8.544   5.343  19.755  0.00  0.00    +0.000 F 
ENDBRANCH   9  14
ENDBRANCH   7   9
ENDBRANCH   1   7
BRANCH   4  18
ATOM     18  C   UNL     1       1.494   5.411  20.606  0.00  0.00    +0.000 C 
BRANCH  18  19
ATOM     19  C   UNL     1       2.401   6.642  20.404  0.00  0.00    +0.000 C 
BRANCH  19  20
ATOM     20  C   UNL     1       1.651   7.951  20.360  0.00  0.00    +0.000 A 
ATOM     21  C   UNL     1       1.063   8.476  21.515  0.00  0.00    +0.000 A 
ATOM     22  C   UNL     1       0.432   9.709  21.441  0.00  0.00    +0.000 A 
ATOM     23  N   UNL     1       0.340  10.439  20.310  0.00  0.00    +0.000 NA
ATOM     24  C   UNL     1       0.904   9.911  19.203  0.00  0.00    +0.000 A 
ATOM     25  C   UNL     1       1.558   8.686  19.176  0.00  0.00    +0.000 A 
ENDBRANCH  19  20
ENDBRANCH  18  19
ENDBRANCH   4  18
TORSDOF 6
ENDMDL
MODEL 5
REMARK VINA RESULT:      -7.8      1.613      1.778
REMARK  Name = 
REMARK  6 active torsions:
REMARK  status: ('A' for Active; 'I' for Inactive)
REMARK    1  A    between atoms: C_5  and  C_6
REMARK    2  A    between atoms: C_6  and  N_7
REMARK    3  A    between atoms: N_7  and  C_8
REMARK    4  A    between atoms: N_11  and  C_12
REMARK    5  A    between atoms: C_12  and  C_13
REMARK    6  A    between atoms: C_13  and  C_14
REMARK                            x       y       z     vdW  Elec       q    Type
REMARK                         _______ _______ _______ _____ _____    ______ ____
ROOT
ATOM      1  C   UNL     1       6.362   5.105  18.139  0.00  0.00    +0.000 C 
ATOM      2  C   UNL     1       7.812   5.392  18.555  0.00  0.00    +0.000 C 
ATOM      3  C   UNL     1       8.084   6.879  18.789  0.00  0.00    +0.000 C 
ATOM      4  N   UNL     1       7.774   7.664  17.582  0.00  0.00    +0.000 NA
ATOM      5  C   UNL     1       6.340   7.521  17.268  0.00  0.00    +0.000 C 
ATOM      6  C   UNL     1       5.975   6.058  16.997  0.00  0.00    +0.000 C 
ENDROOT
BRANCH   1   7
ATOM      7  N   UNL     1       5.501   5.179  19.335  0.00  0.00    +0.000 NA
ATOM      8  H   UNL     1       5.324   4.225  19.657  0.00  0.00    +0.000 HD
BRANCH   7   9
ATOM      9  C   UNL     1       4.199   5.799  19.076  0.00  0.00    +0.000 C 
BRANCH   9  14
ATOM     10  F   UNL     1       0.158   1.843  18.860  0.00  0.00    +0.000 F 
ATOM     11  C   UNL     1       1.116   2.781  18.907  0.00  0.00    +0.000 A 
ATOM     12  C   UNL     1       1.033   3.791  19.860  0.00  0.00    +0.000 A 
ATOM     13  C   UNL     1       2.028   4.774  19.913  0.00  0.00    +0.000 A 
ATOM     14  C   UNL     1       3.105   4.752  19.011  0.00  0.00    +0.000 A 
ATOM     15  C   UNL     1       3.172   3.718  18.061  0.00  0.00    +0.000 A 
ATOM     16  C   UNL     1       2.178   2.746  18.013  0.00  0.00    +0.000 A 
ATOM     17  F   UNL     1       2.258   1.773  17.094  0.00  0.00    +0.000 F 
ENDBRANCH   9  14
ENDBRANCH   7   9
ENDBRANCH   1   7
BRANCH   4  18
ATOM     18  C   UNL     1       8.129   9.094  17.736  0.00  0.00    +0.000 C 
BRANCH  18  19
ATOM     19  C   UNL     1       8.872   9.395  19.053  0.00  0.00    +0.000 C 
BRANCH  19  20
ATOM     20  C   UNL     1       9.685  10.666  19.017  0.00  0.00    +0.000 A 
ATOM     21  C   UNL     1      10.045  11.250  17.799  0.00  0.00    +0.000 A 
ATOM     22  C   UNL     1      10.744  12.448  17.813  0.00  0.00    +0.000 A 
ATOM     23  N   UNL     1      11.111  13.089  18.941  0.00  0.00    +0.000 NA
ATOM     24  C   UNL     1      10.764  12.505  20.108  0.00  0.00    +0.000 A 
ATOM     25  C   UNL     1      10.064  11.309  20.197  0.00  0.00    +0.000 A 
ENDBRANCH  19  20
ENDBRANCH  18  19
ENDBRANCH   4  18
TORSDOF 6
ENDMDL
MODEL 6
REMARK VINA RESULT:      -7.8      3.674      6.032
REMARK  Name = 
REMARK  6 active torsions:
REMARK  status: ('A' for Active; 'I' for Inactive)
REMARK    1  A    between atoms: C_5  and  C_6
REMARK    2  A    between atoms: C_6  and  N_7
REMARK    3  A    between atoms: N_7  and  C_8
REMARK    4  A    between atoms: N_11  and  C_12
REMARK    5  A    between atoms: C_12  and  C_13
REMARK    6  A    between atoms: C_13  and  C_14
REMARK                            x       y       z     vdW  Elec       q    Type
REMARK                         _______ _______ _______ _____ _____    ______ ____
ROOT
ATOM      1  C   UNL     1       1.252   2.865  20.191  0.00  0.00    +0.000 C 
ATOM      2  C   UNL     1       2.722   2.750  20.620  0.00  0.00    +0.000 C 
ATOM      3  C   UNL     1       3.691   3.356  19.603  0.00  0.00    +0.000 C 
ATOM      4  N   UNL     1       3.532   2.720  18.285  0.00  0.00    +0.000 NA
ATOM      5  C   UNL     1       2.164   2.966  17.792  0.00  0.00    +0.000 C 
ATOM      6  C   UNL     1       1.117   2.372  18.741  0.00  0.00    +0.000 C 
ENDROOT
BRANCH   1   7
ATOM      7  N   UNL     1       0.795   4.248  20.427  0.00  0.00    +0.000 NA
ATOM      8  H   UNL     1       0.518   4.647  19.528  0.00  0.00    +0.000 HD
BRANCH   7   9
ATOM      9  C   UNL     1       1.836   5.115  20.986  0.00  0.00    +0.000 C 
BRANCH   9  14
ATOM     10  F   UNL     1       1.583  10.247  18.613  0.00  0.00    +0.000 F 
ATOM     11  C   UNL     1       1.647   9.030  19.175  0.00  0.00    +0.000 A 
ATOM     12  C   UNL     1       1.084   8.830  20.431  0.00  0.00    +0.000 A 
ATOM     13  C   UNL     1       1.149   7.564  21.023  0.00  0.00    +0.000 A 
ATOM     14  C   UNL     1       1.781   6.496  20.363  0.00  0.00    +0.000 A 
ATOM     15  C   UNL     1       2.337   6.720  19.092  0.00  0.00    +0.000 A 
ATOM     16  C   UNL     1       2.271   7.982  18.512  0.00  0.00    +0.000 A 
ATOM     17  F   UNL     1       2.815   8.176  17.301  0.00  0.00    +0.000 F 
ENDBRANCH   9  14
ENDBRANCH   7   9
ENDBRANCH   1   7
BRANCH   4  18
ATOM     18  C   UNL     1       4.530   3.206  17.303  0.00  0.00    +0.000 C 
BRANCH  18  19
ATOM     19  C   UNL     1       4.422   4.719  17.029  0.00  0.00    +0.000 C 
BRANCH  19  20
ATOM     20  C   UNL     1       5.623   5.509  17.488  0.00  0.00    +0.000 A 
ATOM     21  C   UNL     1       6.541   4.956  18.385  0.00  0.00    +0.000 A 
ATOM     22  C   UNL     1       7.660   5.696  18.736  0.00  0.00    +0.000 A 
ATOM     23  N   UNL     1       7.919   6.935  18.269  0.00  0.00    +0.000 NA
ATOM     24  C   UNL     1       7.015   7.457  17.412  0.00  0.00    +0.000 A 
ATOM     25  C   UNL     1       5.866   6.795  17.000  0.00  0.00    +0.000 A 
ENDBRANCH  19  20
ENDBRANCH  18  19
ENDBRANCH   4  18
TORSDOF 6
ENDMDL
MODEL 7
REMARK VINA RESULT:      -7.7      0.820      1.234
REMARK  Name = 
REMARK  6 active torsions:
REMARK  status: ('A' for Active; 'I' for Inactive)
REMARK    1  A    between atoms: C_5  and  C_6
REMARK    2  A    between atoms: C_6  and  N_7
REMARK    3  A    between atoms: N_7  and  C_8
REMARK    4  A    between atoms: N_11  and  C_12
REMARK    5  A    between atoms: C_12  and  C_13
REMARK    6  A    between atoms: C_13  and  C_14
REMARK                            x       y       z     vdW  Elec       q    Type
REMARK                         _______ _______ _______ _____ _____    ______ ____
ROOT
ATOM      1  C   UNL     1       5.515   4.830  16.072  0.00  0.00    +0.000 C 
ATOM      2  C   UNL     1       7.031   4.690  16.269  0.00  0.00    +0.000 C 
ATOM      3  C   UNL     1       7.583   5.624  17.349  0.00  0.00    +0.000 C 
ATOM      4  N   UNL     1       7.274   7.029  17.033  0.00  0.00    +0.000 NA
ATOM      5  C   UNL     1       5.810   7.206  17.002  0.00  0.00    +0.000 C 
ATOM      6  C   UNL     1       5.167   6.320  15.929  0.00  0.00    +0.000 C 
ENDROOT
BRANCH   1   7
ATOM      7  N   UNL     1       4.827   4.129  17.173  0.00  0.00    +0.000 NA
ATOM      8  H   UNL     1       4.953   3.124  17.036  0.00  0.00    +0.000 HD
BRANCH   7   9
ATOM      9  C   UNL     1       3.384   4.385  17.213  0.00  0.00    +0.000 C 
BRANCH   9  14
ATOM     10  F   UNL     1       1.160   2.503  22.065  0.00  0.00    +0.000 F 
ATOM     11  C   UNL     1       1.689   2.946  20.914  0.00  0.00    +0.000 A 
ATOM     12  C   UNL     1       0.884   3.641  20.018  0.00  0.00    +0.000 A 
ATOM     13  C   UNL     1       1.429   4.103  18.815  0.00  0.00    +0.000 A 
ATOM     14  C   UNL     1       2.779   3.868  18.503  0.00  0.00    +0.000 A 
ATOM     15  C   UNL     1       3.575   3.169  19.427  0.00  0.00    +0.000 A 
ATOM     16  C   UNL     1       3.025   2.711  20.619  0.00  0.00    +0.000 A 
ATOM     17  F   UNL     1       3.801   2.039  21.482  0.00  0.00    +0.000 F 
ENDBRANCH   9  14
ENDBRANCH   7   9
ENDBRANCH   1   7
BRANCH   4  18
ATOM     18  C   UNL     1       7.887   7.969  18.000  0.00  0.00    +0.000 C 
BRANCH  18  19
ATOM     19  C   UNL     1       8.432   9.250  17.337  0.00  0.00    +0.000 C 
BRANCH  19  20
ATOM     20  C   UNL     1       8.772  10.346  18.317  0.00  0.00    +0.000 A 
ATOM     21  C   UNL     1       9.267  10.039  19.589  0.00  0.00    +0.000 A 
ATOM     22  C   UNL     1       9.619  11.079  20.436  0.00  0.00    +0.000 A 
ATOM     23  N   UNL     1       9.505  12.383  20.113  0.00  0.00    +0.000 NA
ATOM     24  C   UNL     1       9.015  12.660  18.885  0.00  0.00    +0.000 A 
ATOM     25  C   UNL     1       8.636  11.691  17.966  0.00  0.00    +0.000 A 
ENDBRANCH  19  20
ENDBRANCH  18  19
ENDBRANCH   4  18
TORSDOF 6
ENDMDL
MODEL 8
REMARK VINA RESULT:      -7.7      1.844      2.269
REMARK  Name = 
REMARK  6 active torsions:
REMARK  status: ('A' for Active; 'I' for Inactive)
REMARK    1  A    between atoms: C_5  and  C_6
REMARK    2  A    between atoms: C_6  and  N_7
REMARK    3  A    between atoms: N_7  and  C_8
REMARK    4  A    between atoms: N_11  and  C_12
REMARK    5  A    between atoms: C_12  and  C_13
REMARK    6  A    between atoms: C_13  and  C_14
REMARK                            x       y       z     vdW  Elec       q    Type
REMARK                         _______ _______ _______ _____ _____    ______ ____
ROOT
ATOM      1  C   UNL     1       6.395   4.278  17.415  0.00  0.00    +0.000 C 
ATOM      2  C   UNL     1       7.820   4.707  17.794  0.00  0.00    +0.000 C 
ATOM      3  C   UNL     1       7.904   6.164  18.254  0.00  0.00    +0.000 C 
ATOM      4  N   UNL     1       7.399   7.072  17.210  0.00  0.00    +0.000 NA
ATOM      5  C   UNL     1       5.978   6.771  16.955  0.00  0.00    +0.000 C 
ATOM      6  C   UNL     1       5.795   5.329  16.467  0.00  0.00    +0.000 C 
ENDROOT
BRANCH   1   7
ATOM      7  N   UNL     1       5.626   4.039  18.652  0.00  0.00    +0.000 NA
ATOM      8  H   UNL     1       6.103   3.308  19.184  0.00  0.00    +0.000 HD
BRANCH   7   9
ATOM      9  C   UNL     1       4.259   3.575  18.404  0.00  0.00    +0.000 C 
BRANCH   9  14
ATOM     10  F   UNL     1       0.482   6.738  21.191  0.00  0.00    +0.000 F 
ATOM     11  C   UNL     1       1.381   5.990  20.532  0.00  0.00    +0.000 A 
ATOM     12  C   UNL     1       1.322   4.605  20.638  0.00  0.00    +0.000 A 
ATOM     13  C   UNL     1       2.258   3.820  19.955  0.00  0.00    +0.000 A 
ATOM     14  C   UNL     1       3.256   4.418  19.167  0.00  0.00    +0.000 A 
ATOM     15  C   UNL     1       3.291   5.819  19.069  0.00  0.00    +0.000 A 
ATOM     16  C   UNL     1       2.360   6.593  19.753  0.00  0.00    +0.000 A 
ATOM     17  F   UNL     1       2.417   7.929  19.651  0.00  0.00    +0.000 F 
ENDBRANCH   9  14
ENDBRANCH   7   9
ENDBRANCH   1   7
BRANCH   4  18
ATOM     18  C   UNL     1       7.567   8.497  17.578  0.00  0.00    +0.000 C 
BRANCH  18  19
ATOM     19  C   UNL     1       8.660   8.724  18.642  0.00  0.00    +0.000 C 
BRANCH  19  20
ATOM     20  C   UNL     1       9.000  10.177  18.866  0.00  0.00    +0.000 A 
ATOM     21  C   UNL     1       9.581  10.597  20.067  0.00  0.00    +0.000 A 
ATOM     22  C   UNL     1       9.929  11.932  20.208  0.00  0.00    +0.000 A 
ATOM     23  N   UNL     1       9.733  12.865  19.254  0.00  0.00    +0.000 NA
ATOM     24  C   UNL     1       9.161  12.442  18.106  0.00  0.00    +0.000 A 
ATOM     25  C   UNL     1       8.779  11.129  17.869  0.00  0.00    +0.000 A 
ENDBRANCH  19  20
ENDBRANCH  18  19
ENDBRANCH   4  18
TORSDOF 6
ENDMDL
MODEL 9
REMARK VINA RESULT:      -7.7      4.455      6.834
REMARK  Name = 
REMARK  6 active torsions:
REMARK  status: ('A' for Active; 'I' for Inactive)
REMARK    1  A    between atoms: C_5  and  C_6
REMARK    2  A    between atoms: C_6  and  N_7
REMARK    3  A    between atoms: N_7  and  C_8
REMARK    4  A    between atoms: N_11  and  C_12
REMARK    5  A    between atoms: C_12  and  C_13
REMARK    6  A    between atoms: C_13  and  C_14
REMARK                            x       y       z     vdW  Elec       q    Type
REMARK                         _______ _______ _______ _____ _____    ______ ____
ROOT
ATOM      1  C   UNL     1       1.684   3.938  21.085  0.00  0.00    +0.000 C 
ATOM      2  C   UNL     1       2.873   2.973  21.212  0.00  0.00    +0.000 C 
ATOM      3  C   UNL     1       3.740   2.926  19.952  0.00  0.00    +0.000 C 
ATOM      4  N   UNL     1       2.939   2.537  18.779  0.00  0.00    +0.000 NA
ATOM      5  C   UNL     1       1.890   3.550  18.555  0.00  0.00    +0.000 C 
ATOM      6  C   UNL     1       0.953   3.656  19.763  0.00  0.00    +0.000 C 
ENDROOT
BRANCH   1   7
ATOM      7  N   UNL     1       2.175   5.320  21.247  0.00  0.00    +0.000 NA
ATOM      8  H   UNL     1       1.367   5.926  21.406  0.00  0.00    +0.000 HD
BRANCH   7   9
ATOM      9  C   UNL     1       2.875   5.829  20.065  0.00  0.00    +0.000 C 
BRANCH   9  14
ATOM     10  F   UNL     1       0.658  10.751  18.365  0.00  0.00    +0.000 F 
ATOM     11  C   UNL     1       1.180   9.584  18.770  0.00  0.00    +0.000 A 
ATOM     12  C   UNL     1       1.858   8.787  17.853  0.00  0.00    +0.000 A 
ATOM     13  C   UNL     1       2.402   7.567  18.269  0.00  0.00    +0.000 A 
ATOM     14  C   UNL     1       2.268   7.138  19.600  0.00  0.00    +0.000 A 
ATOM     15  C   UNL     1       1.585   7.963  20.510  0.00  0.00    +0.000 A 
ATOM     16  C   UNL     1       1.044   9.173  20.089  0.00  0.00    +0.000 A 
ATOM     17  F   UNL     1       0.389   9.941  20.973  0.00  0.00    +0.000 F 
ENDBRANCH   9  14
ENDBRANCH   7   9
ENDBRANCH   1   7
BRANCH   4  18
ATOM     18  C   UNL     1       3.768   2.374  17.562  0.00  0.00    +0.000 C 
BRANCH  18  19
ATOM     19  C   UNL     1       3.632   3.551  16.575  0.00  0.00    +0.000 C 
BRANCH  19  20
ATOM     20  C   UNL     1       4.910   4.328  16.374  0.00  0.00    +0.000 A 
ATOM     21  C   UNL     1       5.226   5.409  17.203  0.00  0.00    +0.000 A 
ATOM     22  C   UNL     1       6.437   6.059  17.018  0.00  0.00    +0.000 A 
ATOM     23  N   UNL     1       7.337   5.718  16.073  0.00  0.00    +0.000 NA
ATOM     24  C   UNL     1       7.009   4.679  15.276  0.00  0.00    +0.000 A 
ATOM     25  C   UNL     1       5.824   3.965  15.382  0.00  0.00    +0.000 A 
ENDBRANCH  19  20
ENDBRANCH  18  19
ENDBRANCH   4  18
TORSDOF 6
ENDMDL
