MODEL 1
REMARK VINA RESULT:      -6.4      0.000      0.000
REMARK  Name = 
REMARK  2 active torsions:
REMARK  status: ('A' for Active; 'I' for Inactive)
REMARK    1  A    between atoms: C_1  and  C_2
REMARK    2  A    between atoms: C_4  and  C_5
REMARK                            x       y       z     vdW  Elec       q    Type
REMARK                         _______ _______ _______ _____ _____    ______ ____
ROOT
ATOM      1  C   UNL     1       5.274   4.819  18.517  0.00  0.00    +0.000 C 
ATOM      2  O   UNL     1       6.397   4.437  18.834  0.00  0.00    +0.000 OA
ATOM      3  N   UNL     1       4.137   4.106  18.853  0.00  0.00    +0.000 N 
ATOM      4  C   UNL     1       4.263   2.872  19.593  0.00  0.00    +0.000 C 
ATOM      5  C   UNL     1       2.841   2.449  19.956  0.00  0.00    +0.000 C 
ATOM      6  C   UNL     1       2.475   2.758  21.404  0.00  0.00    +0.000 C 
ATOM      7  N   UNL     1       1.940   4.124  21.384  0.00  0.00    +0.000 NA
ATOM      8  C   UNL     1       1.144   4.176  20.155  0.00  0.00    +0.000 C 
ATOM      9  C   UNL     1       1.912   3.350  19.121  0.00  0.00    +0.000 C 
ATOM     10  C   UNL     1       2.831   4.189  18.233  0.00  0.00    +0.000 C 
ATOM     11  H   UNL     1       2.726   4.772  21.288  0.00  0.00    +0.000 HD
ENDROOT
BRANCH   1  15
ATOM     12  C   UNL     1       5.406   5.103  15.386  0.00  0.00    +0.000 C 
ATOM     13  C   UNL     1       5.199   6.266  16.294  0.00  0.00    +0.000 C 
ATOM     14  C   UNL     1       6.321   6.760  17.164  0.00  0.00    +0.000 C 
ATOM     15  C   UNL     1       5.098   6.117  17.799  0.00  0.00    +0.000 C 
ENDBRANCH   1  15
TORSDOF 1
ENDMDL
MODEL 2
REMARK VINA RESULT:      -6.3      1.128      1.250
REMARK  Name = 
REMARK  2 active torsions:
REMARK  status: ('A' for Active; 'I' for Inactive)
REMARK    1  A    between atoms: C_1  and  C_2
REMARK    2  A    between atoms: C_4  and  C_5
REMARK                            x       y       z     vdW  Elec       q    Type
REMARK                         _______ _______ _______ _____ _____    ______ ____
ROOT
ATOM      1  C   UNL     1       4.530   4.886  18.410  0.00  0.00    +0.000 C 
ATOM      2  O   UNL     1       5.365   5.332  19.193  0.00  0.00    +0.000 OA
ATOM      3  N   UNL     1       3.700   3.833  18.749  0.00  0.00    +0.000 N 
ATOM      4  C   UNL     1       3.814   3.228  20.056  0.00  0.00    +0.000 C 
ATOM      5  C   UNL     1       2.651   2.245  20.170  0.00  0.00    +0.000 C 
ATOM      6  C   UNL     1       1.495   2.778  21.010  0.00  0.00    +0.000 C 
ATOM      7  N   UNL     1       0.636   3.505  20.068  0.00  0.00    +0.000 NA
ATOM      8  C   UNL     1       0.650   2.674  18.861  0.00  0.00    +0.000 C 
ATOM      9  C   UNL     1       2.071   2.118  18.749  0.00  0.00    +0.000 C 
ATOM     10  C   UNL     1       2.982   2.953  17.850  0.00  0.00    +0.000 C 
ATOM     11  H   UNL     1       1.087   4.398  19.851  0.00  0.00    +0.000 HD
ENDROOT
BRANCH   1  15
ATOM     12  C   UNL     1       6.304   4.196  15.905  0.00  0.00    +0.000 C 
ATOM     13  C   UNL     1       5.221   5.218  15.870  0.00  0.00    +0.000 C 
ATOM     14  C   UNL     1       5.384   6.523  16.598  0.00  0.00    +0.000 C 
ATOM     15  C   UNL     1       4.344   5.518  17.070  0.00  0.00    +0.000 C 
ENDBRANCH   1  15
TORSDOF 1
ENDMDL
MODEL 3
REMARK VINA RESULT:      -6.3      1.166      1.253
REMARK  Name = 
REMARK  2 active torsions:
REMARK  status: ('A' for Active; 'I' for Inactive)
REMARK    1  A    between atoms: C_1  and  C_2
REMARK    2  A    between atoms: C_4  and  C_5
REMARK                            x       y       z     vdW  Elec       q    Type
REMARK                         _______ _______ _______ _____ _____    ______ ____
ROOT
ATOM      1  C   UNL     1       5.651   4.864  18.633  0.00  0.00    +0.000 C 
ATOM      2  O   UNL     1       6.481   4.726  19.528  0.00  0.00    +0.000 OA
ATOM      3  N   UNL     1       4.571   4.011  18.500  0.00  0.00    +0.000 N 
ATOM      4  C   UNL     1       4.407   2.918  19.431  0.00  0.00    +0.000 C 
ATOM      5  C   UNL     1       3.044   2.301  19.124  0.00  0.00    +0.000 C 
ATOM      6  C   UNL     1       1.961   2.717  20.114  0.00  0.00    +0.000 C 
ATOM      7  N   UNL     1       1.394   3.956  19.569  0.00  0.00    +0.000 NA
ATOM      8  C   UNL     1       1.341   3.716  18.124  0.00  0.00    +0.000 C 
ATOM      9  C   UNL     1       2.600   2.916  17.783  0.00  0.00    +0.000 C 
ATOM     10  C   UNL     1       3.766   3.787  17.316  0.00  0.00    +0.000 C 
ATOM     11  H   UNL     1       2.058   4.715  19.746  0.00  0.00    +0.000 HD
ENDROOT
BRANCH   1  15
ATOM     12  C   UNL     1       7.029   4.666  15.811  0.00  0.00    +0.000 C 
ATOM     13  C   UNL     1       6.451   5.933  16.340  0.00  0.00    +0.000 C 
ATOM     14  C   UNL     1       7.117   6.655  17.478  0.00  0.00    +0.000 C 
ATOM     15  C   UNL     1       5.754   6.013  17.684  0.00  0.00    +0.000 C 
ENDBRANCH   1  15
TORSDOF 1
ENDMDL
MODEL 4
REMARK VINA RESULT:      -6.3      1.935      5.184
REMARK  Name = 
REMARK  2 active torsions:
REMARK  status: ('A' for Active; 'I' for Inactive)
REMARK    1  A    between atoms: C_1  and  C_2
REMARK    2  A    between atoms: C_4  and  C_5
REMARK                            x       y       z     vdW  Elec       q    Type
REMARK                         _______ _______ _______ _____ _____    ______ ____
ROOT
ATOM      1  C   UNL     1       2.597   3.976  18.268  0.00  0.00    +0.000 C 
ATOM      2  O   UNL     1       1.865   3.224  17.628  0.00  0.00    +0.000 OA
ATOM      3  N   UNL     1       3.878   4.282  17.846  0.00  0.00    +0.000 N 
ATOM      4  C   UNL     1       4.384   3.701  16.624  0.00  0.00    +0.000 C 
ATOM      5  C   UNL     1       5.726   4.379  16.357  0.00  0.00    +0.000 C 
ATOM      6  C   UNL     1       5.648   5.461  15.284  0.00  0.00    +0.000 C 
ATOM      7  N   UNL     1       5.300   6.692  16.002  0.00  0.00    +0.000 NA
ATOM      8  C   UNL     1       6.080   6.615  17.240  0.00  0.00    +0.000 C 
ATOM      9  C   UNL     1       6.074   5.141  17.650  0.00  0.00    +0.000 C 
ATOM     10  C   UNL     1       4.970   4.792  18.649  0.00  0.00    +0.000 C 
ATOM     11  H   UNL     1       4.306   6.650  16.243  0.00  0.00    +0.000 HD
ENDROOT
BRANCH   1  15
ATOM     12  C   UNL     1       2.862   2.718  21.140  0.00  0.00    +0.000 C 
ATOM     13  C   UNL     1       2.183   4.020  20.888  0.00  0.00    +0.000 C 
ATOM     14  C   UNL     1       0.857   4.060  20.181  0.00  0.00    +0.000 C 
ATOM     15  C   UNL     1       2.092   4.639  19.508  0.00  0.00    +0.000 C 
ENDBRANCH   1  15
TORSDOF 1
ENDMDL
MODEL 5
REMARK VINA RESULT:      -6.2      2.188      5.160
REMARK  Name = 
REMARK  2 active torsions:
REMARK  status: ('A' for Active; 'I' for Inactive)
REMARK    1  A    between atoms: C_1  and  C_2
REMARK    2  A    between atoms: C_4  and  C_5
REMARK                            x       y       z     vdW  Elec       q    Type
REMARK                         _______ _______ _______ _____ _____    ______ ____
ROOT
ATOM      1  C   UNL     1       3.007   4.651  17.713  0.00  0.00    +0.000 C 
ATOM      2  O   UNL     1       2.289   5.359  18.416  0.00  0.00    +0.000 OA
ATOM      3  N   UNL     1       4.242   5.082  17.263  0.00  0.00    +0.000 N 
ATOM      4  C   UNL     1       4.708   6.402  17.617  0.00  0.00    +0.000 C 
ATOM      5  C   UNL     1       6.153   6.486  17.129  0.00  0.00    +0.000 C 
ATOM      6  C   UNL     1       7.175   6.311  18.247  0.00  0.00    +0.000 C 
ATOM      7  N   UNL     1       7.410   4.865  18.334  0.00  0.00    +0.000 NA
ATOM      8  C   UNL     1       7.422   4.423  16.938  0.00  0.00    +0.000 C 
ATOM      9  C   UNL     1       6.359   5.258  16.222  0.00  0.00    +0.000 C 
ATOM     10  C   UNL     1       4.997   4.567  16.140  0.00  0.00    +0.000 C 
ATOM     11  H   UNL     1       6.604   4.440  18.801  0.00  0.00    +0.000 HD
ENDROOT
BRANCH   1  15
ATOM     12  C   UNL     1       1.148   2.899  19.550  0.00  0.00    +0.000 C 
ATOM     13  C   UNL     1       1.720   2.398  18.269  0.00  0.00    +0.000 C 
ATOM     14  C   UNL     1       3.191   2.109  18.157  0.00  0.00    +0.000 C 
ATOM     15  C   UNL     1       2.584   3.260  17.370  0.00  0.00    +0.000 C 
ENDBRANCH   1  15
TORSDOF 1
ENDMDL
MODEL 6
REMARK VINA RESULT:      -6.2      1.687      5.073
REMARK  Name = 
REMARK  2 active torsions:
REMARK  status: ('A' for Active; 'I' for Inactive)
REMARK    1  A    between atoms: C_1  and  C_2
REMARK    2  A    between atoms: C_4  and  C_5
REMARK                            x       y       z     vdW  Elec       q    Type
REMARK                         _______ _______ _______ _____ _____    ______ ____
ROOT
ATOM      1  C   UNL     1       3.711   3.436  18.734  0.00  0.00    +0.000 C 
ATOM      2  O   UNL     1       4.275   2.584  19.416  0.00  0.00    +0.000 OA
ATOM      3  N   UNL     1       4.354   4.592  18.330  0.00  0.00    +0.000 N 
ATOM      4  C   UNL     1       5.726   4.819  18.721  0.00  0.00    +0.000 C 
ATOM      5  C   UNL     1       6.180   6.067  17.968  0.00  0.00    +0.000 C 
ATOM      6  C   UNL     1       7.048   5.751  16.753  0.00  0.00    +0.000 C 
ATOM      7  N   UNL     1       6.106   5.565  15.644  0.00  0.00    +0.000 NA
ATOM      8  C   UNL     1       5.091   6.599  15.862  0.00  0.00    +0.000 C 
ATOM      9  C   UNL     1       4.900   6.688  17.378  0.00  0.00    +0.000 C 
ATOM     10  C   UNL     1       3.744   5.833  17.896  0.00  0.00    +0.000 C 
ATOM     11  H   UNL     1       5.664   4.649  15.753  0.00  0.00    +0.000 HD
ENDROOT
BRANCH   1  15
ATOM     12  C   UNL     1       1.171   4.103  20.467  0.00  0.00    +0.000 C 
ATOM     13  C   UNL     1       1.085   3.498  19.109  0.00  0.00    +0.000 C 
ATOM     14  C   UNL     1       1.516   2.075  18.883  0.00  0.00    +0.000 C 
ATOM     15  C   UNL     1       2.311   3.214  18.263  0.00  0.00    +0.000 C 
ENDBRANCH   1  15
TORSDOF 1
ENDMDL
MODEL 7
REMARK VINA RESULT:      -6.2      1.630      2.245
REMARK  Name = 
REMARK  2 active torsions:
REMARK  status: ('A' for Active; 'I' for Inactive)
REMARK    1  A    between atoms: C_1  and  C_2
REMARK    2  A    between atoms: C_4  and  C_5
REMARK                            x       y       z     vdW  Elec       q    Type
REMARK                         _______ _______ _______ _____ _____    ______ ____
ROOT
ATOM      1  C   UNL     1       4.301   5.352  17.470  0.00  0.00    +0.000 C 
ATOM      2  O   UNL     1       4.244   6.576  17.387  0.00  0.00    +0.000 OA
ATOM      3  N   UNL     1       3.806   4.670  18.566  0.00  0.00    +0.000 N 
ATOM      4  C   UNL     1       3.208   5.408  19.654  0.00  0.00    +0.000 C 
ATOM      5  C   UNL     1       2.608   4.365  20.594  0.00  0.00    +0.000 C 
ATOM      6  C   UNL     1       1.095   4.227  20.448  0.00  0.00    +0.000 C 
ATOM      7  N   UNL     1       0.899   3.223  19.396  0.00  0.00    +0.000 NA
ATOM      8  C   UNL     1       1.939   2.225  19.658  0.00  0.00    +0.000 C 
ATOM      9  C   UNL     1       3.167   3.009  20.124  0.00  0.00    +0.000 C 
ATOM     10  C   UNL     1       4.148   3.330  18.996  0.00  0.00    +0.000 C 
ATOM     11  H   UNL     1       1.096   3.666  18.494  0.00  0.00    +0.000 HD
ENDROOT
BRANCH   1  15
ATOM     12  C   UNL     1       7.352   4.627  17.205  0.00  0.00    +0.000 C 
ATOM     13  C   UNL     1       6.336   4.230  16.190  0.00  0.00    +0.000 C 
ATOM     14  C   UNL     1       5.707   5.265  15.300  0.00  0.00    +0.000 C 
ATOM     15  C   UNL     1       4.863   4.549  16.342  0.00  0.00    +0.000 C 
ENDBRANCH   1  15
TORSDOF 1
ENDMDL
MODEL 8
REMARK VINA RESULT:      -6.2      1.637      2.147
REMARK  Name = 
REMARK  2 active torsions:
REMARK  status: ('A' for Active; 'I' for Inactive)
REMARK    1  A    between atoms: C_1  and  C_2
REMARK    2  A    between atoms: C_4  and  C_5
REMARK                            x       y       z     vdW  Elec       q    Type
REMARK                         _______ _______ _______ _____ _____    ______ ____
ROOT
ATOM      1  C   UNL     1       4.958   4.248  17.748  0.00  0.00    +0.000 C 
ATOM      2  O   UNL     1       4.994   3.764  16.620  0.00  0.00    +0.000 OA
ATOM      3  N   UNL     1       3.770   4.409  18.437  0.00  0.00    +0.000 N 
ATOM      4  C   UNL     1       2.528   4.006  17.818  0.00  0.00    +0.000 C 
ATOM      5  C   UNL     1       1.455   4.141  18.897  0.00  0.00    +0.000 C 
ATOM      6  C   UNL     1       1.060   2.805  19.519  0.00  0.00    +0.000 C 
ATOM      7  N   UNL     1       1.993   2.609  20.635  0.00  0.00    +0.000 NA
ATOM      8  C   UNL     1       2.132   3.944  21.222  0.00  0.00    +0.000 C 
ATOM      9  C   UNL     1       2.115   4.924  20.047  0.00  0.00    +0.000 C 
ATOM     10  C   UNL     1       3.511   5.300  19.549  0.00  0.00    +0.000 C 
ATOM     11  H   UNL     1       2.898   2.330  20.247  0.00  0.00    +0.000 HD
ENDROOT
BRANCH   1  15
ATOM     12  C   UNL     1       6.452   6.976  17.269  0.00  0.00    +0.000 C 
ATOM     13  C   UNL     1       6.969   5.923  18.187  0.00  0.00    +0.000 C 
ATOM     14  C   UNL     1       7.514   4.636  17.635  0.00  0.00    +0.000 C 
ATOM     15  C   UNL     1       6.225   4.627  18.443  0.00  0.00    +0.000 C 
ENDBRANCH   1  15
TORSDOF 1
ENDMDL
MODEL 9
REMARK VINA RESULT:      -6.1      1.756      5.152
REMARK  Name = 
REMARK  2 active torsions:
REMARK  status: ('A' for Active; 'I' for Inactive)
REMARK    1  A    between atoms: C_1  and  C_2
REMARK    2  A    between atoms: C_4  and  C_5
REMARK                            x       y       z     vdW  Elec       q    Type
REMARK                         _______ _______ _______ _____ _____    ______ ____
ROOT
ATOM      1  C   UNL     1       3.654   4.458  19.284  0.00  0.00    +0.000 C 
ATOM      2  O   UNL     1       3.313   5.324  20.087  0.00  0.00    +0.000 OA
ATOM      3  N   UNL     1       4.267   4.774  18.086  0.00  0.00    +0.000 N 
ATOM      4  C   UNL     1       4.514   6.158  17.755  0.00  0.00    +0.000 C 
ATOM      5  C   UNL     1       5.356   6.145  16.480  0.00  0.00    +0.000 C 
ATOM      6  C   UNL     1       6.836   6.408  16.738  0.00  0.00    +0.000 C 
ATOM      7  N   UNL     1       7.423   5.089  17.001  0.00  0.00    +0.000 NA
ATOM      8  C   UNL     1       6.751   4.205  16.045  0.00  0.00    +0.000 C 
ATOM      9  C   UNL     1       5.305   4.696  15.961  0.00  0.00    +0.000 C 
ATOM     10  C   UNL     1       4.354   3.950  16.898  0.00  0.00    +0.000 C 
ATOM     11  H   UNL     1       7.155   4.805  17.947  0.00  0.00    +0.000 HD
ENDROOT
BRANCH   1  15
ATOM     12  C   UNL     1       1.027   2.856  18.628  0.00  0.00    +0.000 C 
ATOM     13  C   UNL     1       2.188   2.247  19.334  0.00  0.00    +0.000 C 
ATOM     14  C   UNL     1       2.516   2.651  20.745  0.00  0.00    +0.000 C 
ATOM     15  C   UNL     1       3.466   3.013  19.614  0.00  0.00    +0.000 C 
ENDBRANCH   1  15
TORSDOF 1
ENDMDL
