MODEL 1
REMARK VINA RESULT:      -6.9      0.000      0.000
REMARK  Name = 
REMARK  5 active torsions:
REMARK  status: ('A' for Active; 'I' for Inactive)
REMARK    1  A    between atoms: C_1  and  C_2
REMARK    2  A    between atoms: C_6  and  O_7
REMARK    3  A    between atoms: O_7  and  C_8
REMARK    4  A    between atoms: C_8  and  C_9
REMARK    5  A    between atoms: C_8  and  C_10
REMARK                            x       y       z     vdW  Elec       q    Type
REMARK                         _______ _______ _______ _____ _____    ______ ____
ROOT
ATOM      1  O   UNL     1       4.660   3.328  18.052  0.00  0.00    +0.000 OA
ENDROOT
BRANCH   1   7
ATOM      2  C   UNL     1       1.843   2.582  21.843  0.00  0.00    +0.000 C 
ATOM      3  C   UNL     1       1.975   2.940  20.394  0.00  0.00    +0.000 A 
ATOM      4  C   UNL     1       0.861   3.253  19.622  0.00  0.00    +0.000 A 
ATOM      5  C   UNL     1       1.048   3.566  18.278  0.00  0.00    +0.000 A 
ATOM      6  C   UNL     1       2.335   3.574  17.750  0.00  0.00    +0.000 A 
ATOM      7  C   UNL     1       3.391   3.271  18.594  0.00  0.00    +0.000 A 
ATOM      8  N   UNL     1       3.230   2.940  19.892  0.00  0.00    +0.000 NA
ENDBRANCH   1   7
BRANCH   1   9
ATOM      9  C   UNL     1       5.128   4.659  17.787  0.00  0.00    +0.000 C 
ATOM     10  C   UNL     1       6.086   5.098  18.895  0.00  0.00    +0.000 C 
BRANCH   9  11
ATOM     11  C   UNL     1       5.847   4.703  16.453  0.00  0.00    +0.000 A 
ATOM     12  C   UNL     1       5.317   4.030  15.345  0.00  0.00    +0.000 A 
ATOM     13  C   UNL     1       5.948   4.119  14.108  0.00  0.00    +0.000 A 
ATOM     14  C   UNL     1       7.097   4.885  14.017  0.00  0.00    +0.000 A 
ATOM     15  N   UNL     1       7.643   5.548  15.059  0.00  0.00    +0.000 NA
ATOM     16  C   UNL     1       7.008   5.442  16.250  0.00  0.00    +0.000 A 
ENDBRANCH   9  11
ENDBRANCH   1   9
TORSDOF 3
ENDMDL
MODEL 2
REMARK VINA RESULT:      -6.9      1.377      1.507
REMARK  Name = 
REMARK  5 active torsions:
REMARK  status: ('A' for Active; 'I' for Inactive)
REMARK    1  A    between atoms: C_1  and  C_2
REMARK    2  A    between atoms: C_6  and  O_7
REMARK    3  A    between atoms: O_7  and  C_8
REMARK    4  A    between atoms: C_8  and  C_9
REMARK    5  A    between atoms: C_8  and  C_10
REMARK                            x       y       z     vdW  Elec       q    Type
REMARK                         _______ _______ _______ _____ _____    ______ ____
ROOT
ATOM      1  O   UNL     1       5.323   4.138  19.178  0.00  0.00    +0.000 OA
ENDROOT
BRANCH   1   7
ATOM      2  C   UNL     1       1.469   2.602  21.556  0.00  0.00    +0.000 C 
ATOM      3  C   UNL     1       2.164   3.703  20.814  0.00  0.00    +0.000 A 
ATOM      4  C   UNL     1       1.572   4.951  20.651  0.00  0.00    +0.000 A 
ATOM      5  C   UNL     1       2.263   5.929  19.941  0.00  0.00    +0.000 A 
ATOM      6  C   UNL     1       3.525   5.642  19.432  0.00  0.00    +0.000 A 
ATOM      7  C   UNL     1       4.051   4.380  19.660  0.00  0.00    +0.000 A 
ATOM      8  N   UNL     1       3.388   3.410  20.321  0.00  0.00    +0.000 NA
ENDBRANCH   1   7
BRANCH   1   9
ATOM      9  C   UNL     1       5.958   5.283  18.590  0.00  0.00    +0.000 C 
ATOM     10  C   UNL     1       7.262   5.585  19.331  0.00  0.00    +0.000 C 
BRANCH   9  11
ATOM     11  C   UNL     1       6.259   5.018  17.128  0.00  0.00    +0.000 A 
ATOM     12  C   UNL     1       5.479   4.109  16.402  0.00  0.00    +0.000 A 
ATOM     13  C   UNL     1       5.721   3.912  15.046  0.00  0.00    +0.000 A 
ATOM     14  C   UNL     1       6.742   4.635  14.454  0.00  0.00    +0.000 A 
ATOM     15  N   UNL     1       7.519   5.519  15.117  0.00  0.00    +0.000 NA
ATOM     16  C   UNL     1       7.261   5.690  16.435  0.00  0.00    +0.000 A 
ENDBRANCH   9  11
ENDBRANCH   1   9
TORSDOF 3
ENDMDL
MODEL 3
REMARK VINA RESULT:      -6.7      1.379      1.459
REMARK  Name = 
REMARK  5 active torsions:
REMARK  status: ('A' for Active; 'I' for Inactive)
REMARK    1  A    between atoms: C_1  and  C_2
REMARK    2  A    between atoms: C_6  and  O_7
REMARK    3  A    between atoms: O_7  and  C_8
REMARK    4  A    between atoms: C_8  and  C_9
REMARK    5  A    between atoms: C_8  and  C_10
REMARK                            x       y       z     vdW  Elec       q    Type
REMARK                         _______ _______ _______ _____ _____    ______ ____
ROOT
ATOM      1  O   UNL     1       3.830   5.428  18.829  0.00  0.00    +0.000 OA
ENDROOT
BRANCH   1   7
ATOM      2  C   UNL     1       1.659   2.522  21.944  0.00  0.00    +0.000 C 
ATOM      3  C   UNL     1       1.740   3.086  20.558  0.00  0.00    +0.000 A 
ATOM      4  C   UNL     1       0.825   2.725  19.575  0.00  0.00    +0.000 A 
ATOM      5  C   UNL     1       0.960   3.275  18.303  0.00  0.00    +0.000 A 
ATOM      6  C   UNL     1       1.989   4.177  18.054  0.00  0.00    +0.000 A 
ATOM      7  C   UNL     1       2.844   4.499  19.096  0.00  0.00    +0.000 A 
ATOM      8  N   UNL     1       2.746   3.958  20.327  0.00  0.00    +0.000 NA
ENDBRANCH   1   7
BRANCH   1   9
ATOM      9  C   UNL     1       3.794   5.959  17.496  0.00  0.00    +0.000 C 
ATOM     10  C   UNL     1       3.764   7.488  17.552  0.00  0.00    +0.000 C 
BRANCH   9  11
ATOM     11  C   UNL     1       5.017   5.509  16.722  0.00  0.00    +0.000 A 
ATOM     12  C   UNL     1       4.970   4.341  15.949  0.00  0.00    +0.000 A 
ATOM     13  C   UNL     1       6.075   3.962  15.193  0.00  0.00    +0.000 A 
ATOM     14  C   UNL     1       7.200   4.766  15.233  0.00  0.00    +0.000 A 
ATOM     15  N   UNL     1       7.288   5.898  15.966  0.00  0.00    +0.000 NA
ATOM     16  C   UNL     1       6.199   6.242  16.691  0.00  0.00    +0.000 A 
ENDBRANCH   9  11
ENDBRANCH   1   9
TORSDOF 3
ENDMDL
MODEL 4
REMARK VINA RESULT:      -6.7      2.142      5.827
REMARK  Name = 
REMARK  5 active torsions:
REMARK  status: ('A' for Active; 'I' for Inactive)
REMARK    1  A    between atoms: C_1  and  C_2
REMARK    2  A    between atoms: C_6  and  O_7
REMARK    3  A    between atoms: O_7  and  C_8
REMARK    4  A    between atoms: C_8  and  C_9
REMARK    5  A    between atoms: C_8  and  C_10
REMARK                            x       y       z     vdW  Elec       q    Type
REMARK                         _______ _______ _______ _____ _____    ______ ____
ROOT
ATOM      1  O   UNL     1       3.690   6.178  17.266  0.00  0.00    +0.000 OA
ENDROOT
BRANCH   1   7
ATOM      2  C   UNL     1       8.005   5.706  19.271  0.00  0.00    +0.000 C 
ATOM      3  C   UNL     1       7.080   5.402  18.132  0.00  0.00    +0.000 A 
ATOM      4  C   UNL     1       7.483   4.604  17.067  0.00  0.00    +0.000 A 
ATOM      5  C   UNL     1       6.580   4.368  16.033  0.00  0.00    +0.000 A 
ATOM      6  C   UNL     1       5.304   4.916  16.100  0.00  0.00    +0.000 A 
ATOM      7  C   UNL     1       4.977   5.682  17.208  0.00  0.00    +0.000 A 
ATOM      8  N   UNL     1       5.844   5.944  18.207  0.00  0.00    +0.000 NA
ENDBRANCH   1   7
BRANCH   1   9
ATOM      9  C   UNL     1       3.160   6.285  18.596  0.00  0.00    +0.000 C 
ATOM     10  C   UNL     1       2.283   7.535  18.701  0.00  0.00    +0.000 C 
BRANCH   9  11
ATOM     11  C   UNL     1       2.331   5.060  18.926  0.00  0.00    +0.000 A 
ATOM     12  C   UNL     1       1.962   4.796  20.252  0.00  0.00    +0.000 A 
ATOM     13  C   UNL     1       1.153   3.703  20.545  0.00  0.00    +0.000 A 
ATOM     14  C   UNL     1       0.733   2.903  19.497  0.00  0.00    +0.000 A 
ATOM     15  N   UNL     1       1.066   3.120  18.206  0.00  0.00    +0.000 NA
ATOM     16  C   UNL     1       1.855   4.190  17.951  0.00  0.00    +0.000 A 
ENDBRANCH   9  11
ENDBRANCH   1   9
TORSDOF 3
ENDMDL
MODEL 5
REMARK VINA RESULT:      -6.6      1.416      1.677
REMARK  Name = 
REMARK  5 active torsions:
REMARK  status: ('A' for Active; 'I' for Inactive)
REMARK    1  A    between atoms: C_1  and  C_2
REMARK    2  A    between atoms: C_6  and  O_7
REMARK    3  A    between atoms: O_7  and  C_8
REMARK    4  A    between atoms: C_8  and  C_9
REMARK    5  A    between atoms: C_8  and  C_10
REMARK                            x       y       z     vdW  Elec       q    Type
REMARK                         _______ _______ _______ _____ _____    ______ ____
ROOT
ATOM      1  O   UNL     1       5.578   3.853  19.251  0.00  0.00    +0.000 OA
ENDROOT
BRANCH   1   7
ATOM      2  C   UNL     1       0.995   4.376  20.508  0.00  0.00    +0.000 C 
ATOM      3  C   UNL     1       2.013   3.753  19.602  0.00  0.00    +0.000 A 
ATOM      4  C   UNL     1       1.637   2.911  18.562  0.00  0.00    +0.000 A 
ATOM      5  C   UNL     1       2.631   2.354  17.762  0.00  0.00    +0.000 A 
ATOM      6  C   UNL     1       3.964   2.665  18.011  0.00  0.00    +0.000 A 
ATOM      7  C   UNL     1       4.250   3.530  19.055  0.00  0.00    +0.000 A 
ATOM      8  N   UNL     1       3.304   4.060  19.857  0.00  0.00    +0.000 NA
ENDBRANCH   1   7
BRANCH   1   9
ATOM      9  C   UNL     1       5.922   5.193  18.868  0.00  0.00    +0.000 C 
ATOM     10  C   UNL     1       7.252   5.587  19.512  0.00  0.00    +0.000 C 
BRANCH   9  11
ATOM     11  C   UNL     1       6.045   5.288  17.360  0.00  0.00    +0.000 A 
ATOM     12  C   UNL     1       6.935   4.452  16.672  0.00  0.00    +0.000 A 
ATOM     13  C   UNL     1       7.004   4.501  15.284  0.00  0.00    +0.000 A 
ATOM     14  C   UNL     1       6.175   5.389  14.620  0.00  0.00    +0.000 A 
ATOM     15  N   UNL     1       5.305   6.214  15.243  0.00  0.00    +0.000 NA
ATOM     16  C   UNL     1       5.260   6.144  16.595  0.00  0.00    +0.000 A 
ENDBRANCH   9  11
ENDBRANCH   1   9
TORSDOF 3
ENDMDL
MODEL 6
REMARK VINA RESULT:      -6.6      2.128      3.176
REMARK  Name = 
REMARK  5 active torsions:
REMARK  status: ('A' for Active; 'I' for Inactive)
REMARK    1  A    between atoms: C_1  and  C_2
REMARK    2  A    between atoms: C_6  and  O_7
REMARK    3  A    between atoms: O_7  and  C_8
REMARK    4  A    between atoms: C_8  and  C_9
REMARK    5  A    between atoms: C_8  and  C_10
REMARK                            x       y       z     vdW  Elec       q    Type
REMARK                         _______ _______ _______ _____ _____    ______ ____
ROOT
ATOM      1  O   UNL     1       3.605   5.624  17.323  0.00  0.00    +0.000 OA
ENDROOT
BRANCH   1   7
ATOM      2  C   UNL     1       0.610   2.266  18.939  0.00  0.00    +0.000 C 
ATOM      3  C   UNL     1       1.316   3.568  19.161  0.00  0.00    +0.000 A 
ATOM      4  C   UNL     1       1.169   4.278  20.348  0.00  0.00    +0.000 A 
ATOM      5  C   UNL     1       1.843   5.488  20.489  0.00  0.00    +0.000 A 
ATOM      6  C   UNL     1       2.653   5.945  19.455  0.00  0.00    +0.000 A 
ATOM      7  C   UNL     1       2.761   5.165  18.315  0.00  0.00    +0.000 A 
ATOM      8  N   UNL     1       2.097   4.003  18.147  0.00  0.00    +0.000 NA
ENDBRANCH   1   7
BRANCH   1   9
ATOM      9  C   UNL     1       4.755   4.795  17.097  0.00  0.00    +0.000 C 
ATOM     10  C   UNL     1       5.045   4.715  15.597  0.00  0.00    +0.000 C 
BRANCH   9  11
ATOM     11  C   UNL     1       5.961   5.370  17.813  0.00  0.00    +0.000 A 
ATOM     12  C   UNL     1       6.694   6.413  17.231  0.00  0.00    +0.000 A 
ATOM     13  C   UNL     1       7.765   6.978  17.916  0.00  0.00    +0.000 A 
ATOM     14  C   UNL     1       8.072   6.480  19.170  0.00  0.00    +0.000 A 
ATOM     15  N   UNL     1       7.394   5.475  19.766  0.00  0.00    +0.000 NA
ATOM     16  C   UNL     1       6.358   4.945  19.076  0.00  0.00    +0.000 A 
ENDBRANCH   9  11
ENDBRANCH   1   9
TORSDOF 3
ENDMDL
MODEL 7
REMARK VINA RESULT:      -6.6      1.143      1.246
REMARK  Name = 
REMARK  5 active torsions:
REMARK  status: ('A' for Active; 'I' for Inactive)
REMARK    1  A    between atoms: C_1  and  C_2
REMARK    2  A    between atoms: C_6  and  O_7
REMARK    3  A    between atoms: O_7  and  C_8
REMARK    4  A    between atoms: C_8  and  C_9
REMARK    5  A    between atoms: C_8  and  C_10
REMARK                            x       y       z     vdW  Elec       q    Type
REMARK                         _______ _______ _______ _____ _____    ______ ____
ROOT
ATOM      1  O   UNL     1       4.735   4.737  18.258  0.00  0.00    +0.000 OA
ENDROOT
BRANCH   1   7
ATOM      2  C   UNL     1       1.452   3.206  21.378  0.00  0.00    +0.000 C 
ATOM      3  C   UNL     1       2.139   3.043  20.057  0.00  0.00    +0.000 A 
ATOM      4  C   UNL     1       1.776   2.034  19.172  0.00  0.00    +0.000 A 
ATOM      5  C   UNL     1       2.460   1.928  17.964  0.00  0.00    +0.000 A 
ATOM      6  C   UNL     1       3.471   2.836  17.668  0.00  0.00    +0.000 A 
ATOM      7  C   UNL     1       3.755   3.824  18.597  0.00  0.00    +0.000 A 
ATOM      8  N   UNL     1       3.122   3.929  19.783  0.00  0.00    +0.000 NA
ENDBRANCH   1   7
BRANCH   1   9
ATOM      9  C   UNL     1       4.447   5.498  17.076  0.00  0.00    +0.000 C 
ATOM     10  C   UNL     1       4.500   6.992  17.400  0.00  0.00    +0.000 C 
BRANCH   9  11
ATOM     11  C   UNL     1       5.459   5.182  15.992  0.00  0.00    +0.000 A 
ATOM     12  C   UNL     1       5.093   4.390  14.896  0.00  0.00    +0.000 A 
ATOM     13  C   UNL     1       6.006   4.150  13.875  0.00  0.00    +0.000 A 
ATOM     14  C   UNL     1       7.266   4.714  13.980  0.00  0.00    +0.000 A 
ATOM     15  N   UNL     1       7.660   5.482  15.019  0.00  0.00    +0.000 NA
ATOM     16  C   UNL     1       6.751   5.698  15.998  0.00  0.00    +0.000 A 
ENDBRANCH   9  11
ENDBRANCH   1   9
TORSDOF 3
ENDMDL
MODEL 8
REMARK VINA RESULT:      -6.6      1.462      1.791
REMARK  Name = 
REMARK  5 active torsions:
REMARK  status: ('A' for Active; 'I' for Inactive)
REMARK    1  A    between atoms: C_1  and  C_2
REMARK    2  A    between atoms: C_6  and  O_7
REMARK    3  A    between atoms: O_7  and  C_8
REMARK    4  A    between atoms: C_8  and  C_9
REMARK    5  A    between atoms: C_8  and  C_10
REMARK                            x       y       z     vdW  Elec       q    Type
REMARK                         _______ _______ _______ _____ _____    ______ ____
ROOT
ATOM      1  O   UNL     1       5.362   3.852  19.323  0.00  0.00    +0.000 OA
ENDROOT
BRANCH   1   7
ATOM      2  C   UNL     1       1.485   6.283  20.709  0.00  0.00    +0.000 C 
ATOM      3  C   UNL     1       2.113   4.975  20.336  0.00  0.00    +0.000 A 
ATOM      4  C   UNL     1       1.370   3.800  20.302  0.00  0.00    +0.000 A 
ATOM      5  C   UNL     1       2.013   2.614  19.958  0.00  0.00    +0.000 A 
ATOM      6  C   UNL     1       3.368   2.636  19.643  0.00  0.00    +0.000 A 
ATOM      7  C   UNL     1       4.028   3.854  19.681  0.00  0.00    +0.000 A 
ATOM      8  N   UNL     1       3.431   5.009  20.036  0.00  0.00    +0.000 NA
ENDBRANCH   1   7
BRANCH   1   9
ATOM      9  C   UNL     1       5.838   5.107  18.813  0.00  0.00    +0.000 C 
ATOM     10  C   UNL     1       7.116   5.510  19.551  0.00  0.00    +0.000 C 
BRANCH   9  11
ATOM     11  C   UNL     1       6.128   4.991  17.330  0.00  0.00    +0.000 A 
ATOM     12  C   UNL     1       5.128   5.280  16.392  0.00  0.00    +0.000 A 
ATOM     13  C   UNL     1       5.414   5.229  15.032  0.00  0.00    +0.000 A 
ATOM     14  C   UNL     1       6.700   4.890  14.648  0.00  0.00    +0.000 A 
ATOM     15  N   UNL     1       7.692   4.603  15.518  0.00  0.00    +0.000 NA
ATOM     16  C   UNL     1       7.385   4.659  16.835  0.00  0.00    +0.000 A 
ENDBRANCH   9  11
ENDBRANCH   1   9
TORSDOF 3
ENDMDL
MODEL 9
REMARK VINA RESULT:      -6.6      2.525      2.958
REMARK  Name = 
REMARK  5 active torsions:
REMARK  status: ('A' for Active; 'I' for Inactive)
REMARK    1  A    between atoms: C_1  and  C_2
REMARK    2  A    between atoms: C_6  and  O_7
REMARK    3  A    between atoms: O_7  and  C_8
REMARK    4  A    between atoms: C_8  and  C_9
REMARK    5  A    between atoms: C_8  and  C_10
REMARK                            x       y       z     vdW  Elec       q    Type
REMARK                         _______ _______ _______ _____ _____    ______ ____
ROOT
ATOM      1  O   UNL     1       2.951   6.134  19.192  0.00  0.00    +0.000 OA
ENDROOT
BRANCH   1   7
ATOM      2  C   UNL     1       1.450   2.510  21.924  0.00  0.00    +0.000 C 
ATOM      3  C   UNL     1       1.555   3.133  20.566  0.00  0.00    +0.000 A 
ATOM      4  C   UNL     1       0.998   2.526  19.446  0.00  0.00    +0.000 A 
ATOM      5  C   UNL     1       1.140   3.150  18.209  0.00  0.00    +0.000 A 
ATOM      6  C   UNL     1       1.816   4.363  18.128  0.00  0.00    +0.000 A 
ATOM      7  C   UNL     1       2.322   4.910  19.297  0.00  0.00    +0.000 A 
ATOM      8  N   UNL     1       2.218   4.310  20.500  0.00  0.00    +0.000 NA
ENDBRANCH   1   7
BRANCH   1   9
ATOM      9  C   UNL     1       3.694   6.313  17.976  0.00  0.00    +0.000 C 
ATOM     10  C   UNL     1       3.433   7.712  17.415  0.00  0.00    +0.000 C 
BRANCH   9  11
ATOM     11  C   UNL     1       5.177   6.145  18.241  0.00  0.00    +0.000 A 
ATOM     12  C   UNL     1       6.115   6.797  17.431  0.00  0.00    +0.000 A 
ATOM     13  C   UNL     1       7.473   6.688  17.712  0.00  0.00    +0.000 A 
ATOM     14  C   UNL     1       7.854   5.927  18.803  0.00  0.00    +0.000 A 
ATOM     15  N   UNL     1       6.984   5.280  19.609  0.00  0.00    +0.000 NA
ATOM     16  C   UNL     1       5.669   5.404  19.311  0.00  0.00    +0.000 A 
ENDBRANCH   9  11
ENDBRANCH   1   9
TORSDOF 3
ENDMDL
