MODEL 1
REMARK VINA RESULT:      -8.6      0.000      0.000
REMARK  Name = 
REMARK  15 active torsions:
REMARK  status: ('A' for Active; 'I' for Inactive)
REMARK    1  A    between atoms: C_1  and  C_2
REMARK    2  A    between atoms: C_2  and  C_3
REMARK    3  A    between atoms: C_3  and  O_4
REMARK    4  A    between atoms: C_3  and  C_34
REMARK    5  A    between atoms: O_4  and  C_5
REMARK    6  A    between atoms: C_9  and  C_10
REMARK    7  A    between atoms: C_10  and  N_11
REMARK    8  A    between atoms: N_11  and  C_12
REMARK    9  A    between atoms: C_12  and  C_13
REMARK   10  A    between atoms: C_13  and  C_14
REMARK   11  A    between atoms: C_14  and  O_15
REMARK   12  A    between atoms: O_15  and  C_16
REMARK   13  A    between atoms: C_19  and  C_20
REMARK   14  A    between atoms: C_22  and  C_23
REMARK   15  A    between atoms: C_34  and  O_36
REMARK                            x       y       z     vdW  Elec       q    Type
REMARK                         _______ _______ _______ _____ _____    ______ ____
ROOT
ATOM      1  N   UNL     1       2.914   6.831  17.946  0.00  0.00    +0.000 N 
ATOM      2  C   UNL     1       2.768   5.762  18.797  0.00  0.00    +0.000 A 
ATOM      3  N   UNL     1       1.733   5.520  19.579  0.00  0.00    +0.000 NA
ATOM      4  C   UNL     1       2.055   4.364  20.237  0.00  0.00    +0.000 A 
ATOM      5  C   UNL     1       1.353   3.646  21.220  0.00  0.00    +0.000 A 
ATOM      6  C   UNL     1       1.918   2.460  21.704  0.00  0.00    +0.000 A 
ATOM      7  C   UNL     1       3.160   2.016  21.221  0.00  0.00    +0.000 A 
ATOM      8  C   UNL     1       3.886   2.738  20.266  0.00  0.00    +0.000 A 
ATOM      9  C   UNL     1       3.288   3.912  19.809  0.00  0.00    +0.000 A 
ATOM     10  O   UNL     1       3.766   4.815  18.885  0.00  0.00    +0.000 OA
ENDROOT
BRANCH   1  11
ATOM     11  C   UNL     1       4.311   7.332  17.723  0.00  0.00    +0.000 C 
BRANCH  11  16
ATOM     12  C   UNL     1       6.133   4.511  15.790  0.00  0.00    +0.000 A 
ATOM     13  C   UNL     1       7.260   4.332  16.600  0.00  0.00    +0.000 A 
ATOM     14  C   UNL     1       7.462   5.121  17.748  0.00  0.00    +0.000 A 
ATOM     15  C   UNL     1       6.517   6.077  18.139  0.00  0.00    +0.000 A 
ATOM     16  C   UNL     1       5.392   6.309  17.348  0.00  0.00    +0.000 A 
ATOM     17  C   UNL     1       5.253   5.550  16.137  0.00  0.00    +0.000 A 
BRANCH  12  18
ATOM     18  O   UNL     1       6.073   3.754  14.647  0.00  0.00    +0.000 OA
BRANCH  18  19
ATOM     19  C   UNL     1       6.182   4.259  13.294  0.00  0.00    +0.000 C 
BRANCH  19  21
ATOM     20  C   UNL     1       4.380   3.310  11.540  0.00  0.00    +0.000 C 
ATOM     21  C   UNL     1       5.685   3.126  12.329  0.00  0.00    +0.000 C 
ENDBRANCH  19  21
BRANCH  19  22
ATOM     22  C   UNL     1       7.464   4.950  12.787  0.00  0.00    +0.000 C 
ATOM     23  O   UNL     1       8.235   5.615  13.461  0.00  0.00    +0.000 OA
BRANCH  22  24
ATOM     24  O   UNL     1       7.708   4.718  11.472  0.00  0.00    +0.000 OA
ATOM     25  H   UNL     1       8.466   4.118  11.320  0.00  0.00    +0.000 HD
ENDBRANCH  22  24
ENDBRANCH  19  22
ENDBRANCH  18  19
ENDBRANCH  12  18
ENDBRANCH  11  16
ENDBRANCH   1  11
BRANCH   1  26
ATOM     26  C   UNL     1       1.875   7.881  18.190  0.00  0.00    +0.000 C 
BRANCH  26  27
ATOM     27  C   UNL     1       2.250   9.310  17.765  0.00  0.00    +0.000 C 
BRANCH  27  28
ATOM     28  C   UNL     1       1.551  10.503  18.432  0.00  0.00    +0.000 C 
BRANCH  28  29
ATOM     29  O   UNL     1       0.275  10.082  18.954  0.00  0.00    +0.000 OA
BRANCH  29  30
ATOM     30  C   UNL     1      -0.964  10.526  18.583  0.00  0.00    +0.000 A 
ATOM     31  C   UNL     1      -1.407   9.903  17.394  0.00  0.00    +0.000 A 
ATOM     32  C   UNL     1      -2.657  10.173  16.805  0.00  0.00    +0.000 A 
ATOM     33  C   UNL     1      -3.515  11.094  17.393  0.00  0.00    +0.000 A 
ATOM     34  C   UNL     1      -4.867  11.416  16.829  0.00  0.00    +0.000 C 
ATOM     35  C   UNL     1      -3.079  11.720  18.571  0.00  0.00    +0.000 A 
ATOM     36  C   UNL     1      -1.820  11.454  19.174  0.00  0.00    +0.000 A 
ATOM     37  C   UNL     1      -1.573  12.165  20.472  0.00  0.00    +0.000 C 
ENDBRANCH  29  30
ENDBRANCH  28  29
ENDBRANCH  27  28
ENDBRANCH  26  27
ENDBRANCH   1  26
TORSDOF 12
ENDMDL
MODEL 2
REMARK VINA RESULT:      -8.5      4.554      6.950
REMARK  Name = 
REMARK  15 active torsions:
REMARK  status: ('A' for Active; 'I' for Inactive)
REMARK    1  A    between atoms: C_1  and  C_2
REMARK    2  A    between atoms: C_2  and  C_3
REMARK    3  A    between atoms: C_3  and  O_4
REMARK    4  A    between atoms: C_3  and  C_34
REMARK    5  A    between atoms: O_4  and  C_5
REMARK    6  A    between atoms: C_9  and  C_10
REMARK    7  A    between atoms: C_10  and  N_11
REMARK    8  A    between atoms: N_11  and  C_12
REMARK    9  A    between atoms: C_12  and  C_13
REMARK   10  A    between atoms: C_13  and  C_14
REMARK   11  A    between atoms: C_14  and  O_15
REMARK   12  A    between atoms: O_15  and  C_16
REMARK   13  A    between atoms: C_19  and  C_20
REMARK   14  A    between atoms: C_22  and  C_23
REMARK   15  A    between atoms: C_34  and  O_36
REMARK                            x       y       z     vdW  Elec       q    Type
REMARK                         _______ _______ _______ _____ _____    ______ ____
ROOT
ATOM      1  N   UNL     1       6.147   5.681  17.621  0.00  0.00    +0.000 N 
ATOM      2  C   UNL     1       4.978   5.282  18.223  0.00  0.00    +0.000 A 
ATOM      3  N   UNL     1       4.447   5.793  19.317  0.00  0.00    +0.000 NA
ATOM      4  C   UNL     1       3.308   5.064  19.527  0.00  0.00    +0.000 A 
ATOM      5  C   UNL     1       2.356   5.134  20.557  0.00  0.00    +0.000 A 
ATOM      6  C   UNL     1       1.256   4.269  20.502  0.00  0.00    +0.000 A 
ATOM      7  C   UNL     1       1.124   3.353  19.446  0.00  0.00    +0.000 A 
ATOM      8  C   UNL     1       2.082   3.251  18.429  0.00  0.00    +0.000 A 
ATOM      9  C   UNL     1       3.161   4.130  18.520  0.00  0.00    +0.000 A 
ATOM     10  O   UNL     1       4.242   4.252  17.676  0.00  0.00    +0.000 OA
ENDROOT
BRANCH   1  11
ATOM     11  C   UNL     1       6.936   4.621  16.907  0.00  0.00    +0.000 C 
BRANCH  11  16
ATOM     12  C   UNL     1       5.999   3.813  13.235  0.00  0.00    +0.000 A 
ATOM     13  C   UNL     1       6.966   4.561  12.554  0.00  0.00    +0.000 A 
ATOM     14  C   UNL     1       7.904   5.344  13.252  0.00  0.00    +0.000 A 
ATOM     15  C   UNL     1       7.926   5.362  14.651  0.00  0.00    +0.000 A 
ATOM     16  C   UNL     1       6.964   4.655  15.373  0.00  0.00    +0.000 A 
ATOM     17  C   UNL     1       5.967   3.932  14.635  0.00  0.00    +0.000 A 
BRANCH  12  18
ATOM     18  O   UNL     1       5.076   3.154  12.463  0.00  0.00    +0.000 OA
BRANCH  18  19
ATOM     19  C   UNL     1       5.349   2.486  11.207  0.00  0.00    +0.000 C 
BRANCH  19  21
ATOM     20  C   UNL     1       3.085   3.661  10.358  0.00  0.00    +0.000 C 
ATOM     21  C   UNL     1       4.003   2.430  10.402  0.00  0.00    +0.000 C 
ENDBRANCH  19  21
BRANCH  19  22
ATOM     22  C   UNL     1       6.132   1.158  11.147  0.00  0.00    +0.000 C 
ATOM     23  O   UNL     1       5.647   0.045  11.015  0.00  0.00    +0.000 OA
BRANCH  22  24
ATOM     24  O   UNL     1       7.476   1.332  11.213  0.00  0.00    +0.000 OA
ATOM     25  H   UNL     1       7.824   1.928  10.519  0.00  0.00    +0.000 HD
ENDBRANCH  22  24
ENDBRANCH  19  22
ENDBRANCH  18  19
ENDBRANCH  12  18
ENDBRANCH  11  16
ENDBRANCH   1  11
BRANCH   1  26
ATOM     26  C   UNL     1       6.936   6.603  18.496  0.00  0.00    +0.000 C 
BRANCH  26  27
ATOM     27  C   UNL     1       7.934   7.524  17.776  0.00  0.00    +0.000 C 
BRANCH  27  28
ATOM     28  C   UNL     1       7.910   9.033  18.062  0.00  0.00    +0.000 C 
BRANCH  28  29
ATOM     29  O   UNL     1       9.032   9.383  18.897  0.00  0.00    +0.000 OA
BRANCH  29  30
ATOM     30  C   UNL     1       9.346  10.616  19.397  0.00  0.00    +0.000 A 
ATOM     31  C   UNL     1       9.021  10.721  20.768  0.00  0.00    +0.000 A 
ATOM     32  C   UNL     1       9.255  11.884  21.526  0.00  0.00    +0.000 A 
ATOM     33  C   UNL     1       9.827  12.999  20.925  0.00  0.00    +0.000 A 
ATOM     34  C   UNL     1      10.121  14.263  21.677  0.00  0.00    +0.000 C 
ATOM     35  C   UNL     1      10.147  12.902  19.562  0.00  0.00    +0.000 A 
ATOM     36  C   UNL     1       9.915  11.733  18.789  0.00  0.00    +0.000 A 
ATOM     37  C   UNL     1      10.401  11.802  17.370  0.00  0.00    +0.000 C 
ENDBRANCH  29  30
ENDBRANCH  28  29
ENDBRANCH  27  28
ENDBRANCH  26  27
ENDBRANCH   1  26
TORSDOF 12
ENDMDL
MODEL 3
REMARK VINA RESULT:      -8.3      3.106      6.925
REMARK  Name = 
REMARK  15 active torsions:
REMARK  status: ('A' for Active; 'I' for Inactive)
REMARK    1  A    between atoms: C_1  and  C_2
REMARK    2  A    between atoms: C_2  and  C_3
REMARK    3  A    between atoms: C_3  and  O_4
REMARK    4  A    between atoms: C_3  and  C_34
REMARK    5  A    between atoms: O_4  and  C_5
REMARK    6  A    between atoms: C_9  and  C_10
REMARK    7  A    between atoms: C_10  and  N_11
REMARK    8  A    between atoms: N_11  and  C_12
REMARK    9  A    between atoms: C_12  and  C_13
REMARK   10  A    between atoms: C_13  and  C_14
REMARK   11  A    between atoms: C_14  and  O_15
REMARK   12  A    between atoms: O_15  and  C_16
REMARK   13  A    between atoms: C_19  and  C_20
REMARK   14  A    between atoms: C_22  and  C_23
REMARK   15  A    between atoms: C_34  and  O_36
REMARK                            x       y       z     vdW  Elec       q    Type
REMARK                         _______ _______ _______ _____ _____    ______ ____
ROOT
ATOM      1  N   UNL     1       0.744  10.675  18.955  0.00  0.00    +0.000 N 
ATOM      2  C   UNL     1       1.078  12.002  18.836  0.00  0.00    +0.000 A 
ATOM      3  N   UNL     1       0.271  13.032  19.008  0.00  0.00    +0.000 NA
ATOM      4  C   UNL     1       1.050  14.131  18.769  0.00  0.00    +0.000 A 
ATOM      5  C   UNL     1       0.725  15.498  18.770  0.00  0.00    +0.000 A 
ATOM      6  C   UNL     1       1.746  16.422  18.515  0.00  0.00    +0.000 A 
ATOM      7  C   UNL     1       3.055  15.981  18.255  0.00  0.00    +0.000 A 
ATOM      8  C   UNL     1       3.385  14.621  18.219  0.00  0.00    +0.000 A 
ATOM      9  C   UNL     1       2.340  13.734  18.480  0.00  0.00    +0.000 A 
ATOM     10  O   UNL     1       2.370  12.358  18.507  0.00  0.00    +0.000 OA
ENDROOT
BRANCH   1  11
ATOM     11  C   UNL     1       1.483   9.710  18.074  0.00  0.00    +0.000 C 
BRANCH  11  16
ATOM     12  C   UNL     1       2.970   6.140  18.314  0.00  0.00    +0.000 A 
ATOM     13  C   UNL     1       2.691   5.836  19.652  0.00  0.00    +0.000 A 
ATOM     14  C   UNL     1       2.053   6.768  20.491  0.00  0.00    +0.000 A 
ATOM     15  C   UNL     1       1.639   8.011  20.000  0.00  0.00    +0.000 A 
ATOM     16  C   UNL     1       1.919   8.369  18.681  0.00  0.00    +0.000 A 
ATOM     17  C   UNL     1       2.646   7.432  17.870  0.00  0.00    +0.000 A 
BRANCH  12  18
ATOM     18  O   UNL     1       3.672   5.198  17.604  0.00  0.00    +0.000 OA
BRANCH  18  19
ATOM     19  C   UNL     1       5.105   4.996  17.658  0.00  0.00    +0.000 C 
BRANCH  19  21
ATOM     20  C   UNL     1       5.591   4.845  15.018  0.00  0.00    +0.000 C 
ATOM     21  C   UNL     1       5.509   4.162  16.392  0.00  0.00    +0.000 C 
ENDBRANCH  19  21
BRANCH  19  22
ATOM     22  C   UNL     1       5.808   4.507  18.940  0.00  0.00    +0.000 C 
ATOM     23  O   UNL     1       6.557   5.167  19.644  0.00  0.00    +0.000 OA
BRANCH  22  24
ATOM     24  O   UNL     1       5.482   3.232  19.271  0.00  0.00    +0.000 OA
ATOM     25  H   UNL     1       6.261   2.668  19.454  0.00  0.00    +0.000 HD
ENDBRANCH  22  24
ENDBRANCH  19  22
ENDBRANCH  18  19
ENDBRANCH  12  18
ENDBRANCH  11  16
ENDBRANCH   1  11
BRANCH   1  26
ATOM     26  C   UNL     1      -0.737  10.480  19.038  0.00  0.00    +0.000 C 
BRANCH  26  27
ATOM     27  C   UNL     1      -1.494  10.494  17.700  0.00  0.00    +0.000 C 
BRANCH  27  28
ATOM     28  C   UNL     1      -3.009  10.245  17.688  0.00  0.00    +0.000 C 
BRANCH  28  29
ATOM     29  O   UNL     1      -3.704  11.490  17.899  0.00  0.00    +0.000 OA
BRANCH  29  30
ATOM     30  C   UNL     1      -4.445  11.856  18.988  0.00  0.00    +0.000 A 
ATOM     31  C   UNL     1      -3.653  12.499  19.966  0.00  0.00    +0.000 A 
ATOM     32  C   UNL     1      -4.175  12.988  21.179  0.00  0.00    +0.000 A 
ATOM     33  C   UNL     1      -5.529  12.841  21.459  0.00  0.00    +0.000 A 
ATOM     34  C   UNL     1      -6.154  13.352  22.722  0.00  0.00    +0.000 C 
ATOM     35  C   UNL     1      -6.319  12.198  20.494  0.00  0.00    +0.000 A 
ATOM     36  C   UNL     1      -5.801  11.702  19.267  0.00  0.00    +0.000 A 
ATOM     37  C   UNL     1      -6.823  11.119  18.334  0.00  0.00    +0.000 C 
ENDBRANCH  29  30
ENDBRANCH  28  29
ENDBRANCH  27  28
ENDBRANCH  26  27
ENDBRANCH   1  26
TORSDOF 12
ENDMDL
MODEL 4
REMARK VINA RESULT:      -8.3      3.454      7.850
REMARK  Name = 
REMARK  15 active torsions:
REMARK  status: ('A' for Active; 'I' for Inactive)
REMARK    1  A    between atoms: C_1  and  C_2
REMARK    2  A    between atoms: C_2  and  C_3
REMARK    3  A    between atoms: C_3  and  O_4
REMARK    4  A    between atoms: C_3  and  C_34
REMARK    5  A    between atoms: O_4  and  C_5
REMARK    6  A    between atoms: C_9  and  C_10
REMARK    7  A    between atoms: C_10  and  N_11
REMARK    8  A    between atoms: N_11  and  C_12
REMARK    9  A    between atoms: C_12  and  C_13
REMARK   10  A    between atoms: C_13  and  C_14
REMARK   11  A    between atoms: C_14  and  O_15
REMARK   12  A    between atoms: O_15  and  C_16
REMARK   13  A    between atoms: C_19  and  C_20
REMARK   14  A    between atoms: C_22  and  C_23
REMARK   15  A    between atoms: C_34  and  O_36
REMARK                            x       y       z     vdW  Elec       q    Type
REMARK                         _______ _______ _______ _____ _____    ______ ____
ROOT
ATOM      1  N   UNL     1       1.582   8.305  19.567  0.00  0.00    +0.000 N 
ATOM      2  C   UNL     1       2.106   7.049  19.374  0.00  0.00    +0.000 A 
ATOM      3  N   UNL     1       2.353   6.151  20.309  0.00  0.00    +0.000 NA
ATOM      4  C   UNL     1       2.878   5.081  19.637  0.00  0.00    +0.000 A 
ATOM      5  C   UNL     1       3.357   3.849  20.112  0.00  0.00    +0.000 A 
ATOM      6  C   UNL     1       3.818   2.913  19.179  0.00  0.00    +0.000 A 
ATOM      7  C   UNL     1       3.807   3.212  17.807  0.00  0.00    +0.000 A 
ATOM      8  C   UNL     1       3.362   4.448  17.321  0.00  0.00    +0.000 A 
ATOM      9  C   UNL     1       2.910   5.352  18.283  0.00  0.00    +0.000 A 
ATOM     10  O   UNL     1       2.425   6.628  18.101  0.00  0.00    +0.000 OA
ENDROOT
BRANCH   1  11
ATOM     11  C   UNL     1       2.028   9.377  18.616  0.00  0.00    +0.000 C 
BRANCH  11  16
ATOM     12  C   UNL     1      -0.973  11.826  18.501  0.00  0.00    +0.000 A 
ATOM     13  C   UNL     1      -0.301  13.053  18.486  0.00  0.00    +0.000 A 
ATOM     14  C   UNL     1       1.104  13.113  18.537  0.00  0.00    +0.000 A 
ATOM     15  C   UNL     1       1.873  11.944  18.559  0.00  0.00    +0.000 A 
ATOM     16  C   UNL     1       1.247  10.699  18.603  0.00  0.00    +0.000 A 
ATOM     17  C   UNL     1      -0.189  10.668  18.635  0.00  0.00    +0.000 A 
BRANCH  12  18
ATOM     18  O   UNL     1      -2.344  11.877  18.537  0.00  0.00    +0.000 OA
BRANCH  18  19
ATOM     19  C   UNL     1      -3.240  11.070  17.735  0.00  0.00    +0.000 C 
BRANCH  19  21
ATOM     20  C   UNL     1      -3.462  10.368  15.150  0.00  0.00    +0.000 C 
ATOM     21  C   UNL     1      -2.649  11.013  16.283  0.00  0.00    +0.000 C 
ENDBRANCH  19  21
BRANCH  19  22
ATOM     22  C   UNL     1      -4.766  11.296  17.747  0.00  0.00    +0.000 C 
ATOM     23  O   UNL     1      -5.603  10.515  18.171  0.00  0.00    +0.000 OA
BRANCH  22  24
ATOM     24  O   UNL     1      -5.126  12.512  17.264  0.00  0.00    +0.000 OA
ATOM     25  H   UNL     1      -6.016  12.519  16.858  0.00  0.00    +0.000 HD
ENDBRANCH  22  24
ENDBRANCH  19  22
ENDBRANCH  18  19
ENDBRANCH  12  18
ENDBRANCH  11  16
ENDBRANCH   1  11
BRANCH   1  26
ATOM     26  C   UNL     1       1.563   8.682  21.015  0.00  0.00    +0.000 C 
BRANCH  26  27
ATOM     27  C   UNL     1       0.175   8.778  21.667  0.00  0.00    +0.000 C 
BRANCH  27  28
ATOM     28  C   UNL     1      -0.089   9.862  22.723  0.00  0.00    +0.000 C 
BRANCH  28  29
ATOM     29  O   UNL     1      -0.336  11.122  22.068  0.00  0.00    +0.000 OA
BRANCH  29  30
ATOM     30  C   UNL     1      -1.066  12.177  22.540  0.00  0.00    +0.000 A 
ATOM     31  C   UNL     1      -2.268  11.748  23.148  0.00  0.00    +0.000 A 
ATOM     32  C   UNL     1      -3.195  12.636  23.727  0.00  0.00    +0.000 A 
ATOM     33  C   UNL     1      -2.948  14.003  23.711  0.00  0.00    +0.000 A 
ATOM     34  C   UNL     1      -3.883  15.003  24.323  0.00  0.00    +0.000 C 
ATOM     35  C   UNL     1      -1.759  14.435  23.102  0.00  0.00    +0.000 A 
ATOM     36  C   UNL     1      -0.817  13.548  22.516  0.00  0.00    +0.000 A 
ATOM     37  C   UNL     1       0.428  14.199  21.989  0.00  0.00    +0.000 C 
ENDBRANCH  29  30
ENDBRANCH  28  29
ENDBRANCH  27  28
ENDBRANCH  26  27
ENDBRANCH   1  26
TORSDOF 12
ENDMDL
MODEL 5
REMARK VINA RESULT:      -8.1      4.300      8.787
REMARK  Name = 
REMARK  15 active torsions:
REMARK  status: ('A' for Active; 'I' for Inactive)
REMARK    1  A    between atoms: C_1  and  C_2
REMARK    2  A    between atoms: C_2  and  C_3
REMARK    3  A    between atoms: C_3  and  O_4
REMARK    4  A    between atoms: C_3  and  C_34
REMARK    5  A    between atoms: O_4  and  C_5
REMARK    6  A    between atoms: C_9  and  C_10
REMARK    7  A    between atoms: C_10  and  N_11
REMARK    8  A    between atoms: N_11  and  C_12
REMARK    9  A    between atoms: C_12  and  C_13
REMARK   10  A    between atoms: C_13  and  C_14
REMARK   11  A    between atoms: C_14  and  O_15
REMARK   12  A    between atoms: O_15  and  C_16
REMARK   13  A    between atoms: C_19  and  C_20
REMARK   14  A    between atoms: C_22  and  C_23
REMARK   15  A    between atoms: C_34  and  O_36
REMARK                            x       y       z     vdW  Elec       q    Type
REMARK                         _______ _______ _______ _____ _____    ______ ____
ROOT
ATOM      1  N   UNL     1       7.460   5.718  18.401  0.00  0.00    +0.000 N 
ATOM      2  C   UNL     1       7.220   5.333  17.105  0.00  0.00    +0.000 A 
ATOM      3  N   UNL     1       7.751   5.862  16.019  0.00  0.00    +0.000 NA
ATOM      4  C   UNL     1       7.200   5.160  14.981  0.00  0.00    +0.000 A 
ATOM      5  C   UNL     1       7.365   5.301  13.593  0.00  0.00    +0.000 A 
ATOM      6  C   UNL     1       6.688   4.410  12.752  0.00  0.00    +0.000 A 
ATOM      7  C   UNL     1       5.860   3.412  13.292  0.00  0.00    +0.000 A 
ATOM      8  C   UNL     1       5.661   3.281  14.672  0.00  0.00    +0.000 A 
ATOM      9  C   UNL     1       6.354   4.186  15.475  0.00  0.00    +0.000 A 
ATOM     10  O   UNL     1       6.348   4.295  16.848  0.00  0.00    +0.000 OA
ENDROOT
BRANCH   1  11
ATOM     11  C   UNL     1       6.329   5.559  19.375  0.00  0.00    +0.000 C 
BRANCH  11  16
ATOM     12  C   UNL     1       2.510   5.187  18.840  0.00  0.00    +0.000 A 
ATOM     13  C   UNL     1       2.266   6.263  17.979  0.00  0.00    +0.000 A 
ATOM     14  C   UNL     1       3.304   7.127  17.583  0.00  0.00    +0.000 A 
ATOM     15  C   UNL     1       4.621   6.908  18.004  0.00  0.00    +0.000 A 
ATOM     16  C   UNL     1       4.907   5.864  18.884  0.00  0.00    +0.000 A 
ATOM     17  C   UNL     1       3.816   5.049  19.339  0.00  0.00    +0.000 A 
BRANCH  12  18
ATOM     18  O   UNL     1       1.417   4.458  19.236  0.00  0.00    +0.000 OA
BRANCH  18  19
ATOM     19  C   UNL     1       1.340   3.013  19.291  0.00  0.00    +0.000 C 
BRANCH  19  21
ATOM     20  C   UNL     1       2.088   3.155  21.869  0.00  0.00    +0.000 C 
ATOM     21  C   UNL     1       1.137   2.610  20.793  0.00  0.00    +0.000 C 
ENDBRANCH  19  21
BRANCH  19  22
ATOM     22  C   UNL     1       2.369   2.118  18.570  0.00  0.00    +0.000 C 
ATOM     23  O   UNL     1       3.387   1.657  19.060  0.00  0.00    +0.000 OA
BRANCH  22  24
ATOM     24  O   UNL     1       2.017   1.830  17.291  0.00  0.00    +0.000 OA
ATOM     25  H   UNL     1       1.746   0.898  17.165  0.00  0.00    +0.000 HD
ENDBRANCH  22  24
ENDBRANCH  19  22
ENDBRANCH  18  19
ENDBRANCH  12  18
ENDBRANCH  11  16
ENDBRANCH   1  11
BRANCH   1  26
ATOM     26  C   UNL     1       8.201   7.017  18.467  0.00  0.00    +0.000 C 
BRANCH  26  27
ATOM     27  C   UNL     1       7.644   8.154  17.595  0.00  0.00    +0.000 C 
BRANCH  27  28
ATOM     28  C   UNL     1       7.909   9.611  17.998  0.00  0.00    +0.000 C 
BRANCH  28  29
ATOM     29  O   UNL     1       9.311   9.783  18.288  0.00  0.00    +0.000 OA
BRANCH  29  30
ATOM     30  C   UNL     1       9.932  10.907  18.757  0.00  0.00    +0.000 A 
ATOM     31  C   UNL     1      10.692  11.542  17.748  0.00  0.00    +0.000 A 
ATOM     32  C   UNL     1      11.420  12.728  17.966  0.00  0.00    +0.000 A 
ATOM     33  C   UNL     1      11.415  13.322  19.223  0.00  0.00    +0.000 A 
ATOM     34  C   UNL     1      12.153  14.593  19.520  0.00  0.00    +0.000 C 
ATOM     35  C   UNL     1      10.668  12.692  20.230  0.00  0.00    +0.000 A 
ATOM     36  C   UNL     1       9.930  11.497  20.020  0.00  0.00    +0.000 A 
ATOM     37  C   UNL     1       9.131  11.026  21.200  0.00  0.00    +0.000 C 
ENDBRANCH  29  30
ENDBRANCH  28  29
ENDBRANCH  27  28
ENDBRANCH  26  27
ENDBRANCH   1  26
TORSDOF 12
ENDMDL
MODEL 6
REMARK VINA RESULT:      -8.1      3.171     11.239
REMARK  Name = 
REMARK  15 active torsions:
REMARK  status: ('A' for Active; 'I' for Inactive)
REMARK    1  A    between atoms: C_1  and  C_2
REMARK    2  A    between atoms: C_2  and  C_3
REMARK    3  A    between atoms: C_3  and  O_4
REMARK    4  A    between atoms: C_3  and  C_34
REMARK    5  A    between atoms: O_4  and  C_5
REMARK    6  A    between atoms: C_9  and  C_10
REMARK    7  A    between atoms: C_10  and  N_11
REMARK    8  A    between atoms: N_11  and  C_12
REMARK    9  A    between atoms: C_12  and  C_13
REMARK   10  A    between atoms: C_13  and  C_14
REMARK   11  A    between atoms: C_14  and  O_15
REMARK   12  A    between atoms: O_15  and  C_16
REMARK   13  A    between atoms: C_19  and  C_20
REMARK   14  A    between atoms: C_22  and  C_23
REMARK   15  A    between atoms: C_34  and  O_36
REMARK                            x       y       z     vdW  Elec       q    Type
REMARK                         _______ _______ _______ _____ _____    ______ ____
ROOT
ATOM      1  N   UNL     1       0.426   9.569  18.561  0.00  0.00    +0.000 N 
ATOM      2  C   UNL     1      -0.759   9.939  17.974  0.00  0.00    +0.000 A 
ATOM      3  N   UNL     1      -1.125   9.700  16.729  0.00  0.00    +0.000 NA
ATOM      4  C   UNL     1      -2.364  10.269  16.613  0.00  0.00    +0.000 A 
ATOM      5  C   UNL     1      -3.227  10.361  15.508  0.00  0.00    +0.000 A 
ATOM      6  C   UNL     1      -4.468  10.984  15.687  0.00  0.00    +0.000 A 
ATOM      7  C   UNL     1      -4.826  11.509  16.940  0.00  0.00    +0.000 A 
ATOM      8  C   UNL     1      -3.963  11.453  18.041  0.00  0.00    +0.000 A 
ATOM      9  C   UNL     1      -2.737  10.823  17.821  0.00  0.00    +0.000 A 
ATOM     10  O   UNL     1      -1.702  10.628  18.708  0.00  0.00    +0.000 OA
ENDROOT
BRANCH   1  11
ATOM     11  C   UNL     1       0.965  10.477  19.628  0.00  0.00    +0.000 C 
BRANCH  11  16
ATOM     12  C   UNL     1      -1.237  11.705  22.569  0.00  0.00    +0.000 A 
ATOM     13  C   UNL     1      -1.029  10.674  23.493  0.00  0.00    +0.000 A 
ATOM     14  C   UNL     1      -0.211   9.572  23.180  0.00  0.00    +0.000 A 
ATOM     15  C   UNL     1       0.456   9.498  21.951  0.00  0.00    +0.000 A 
ATOM     16  C   UNL     1       0.258  10.489  20.990  0.00  0.00    +0.000 A 
ATOM     17  C   UNL     1      -0.649  11.558  21.302  0.00  0.00    +0.000 A 
BRANCH  12  18
ATOM     18  O   UNL     1      -2.121  12.689  22.937  0.00  0.00    +0.000 OA
BRANCH  18  19
ATOM     19  C   UNL     1      -3.542  12.511  23.146  0.00  0.00    +0.000 C 
BRANCH  19  21
ATOM     20  C   UNL     1      -5.811  13.118  21.837  0.00  0.00    +0.000 C 
ATOM     21  C   UNL     1      -4.285  13.235  21.968  0.00  0.00    +0.000 C 
ENDBRANCH  19  21
BRANCH  19  22
ATOM     22  C   UNL     1      -4.201  12.777  24.515  0.00  0.00    +0.000 C 
ATOM     23  O   UNL     1      -4.870  11.981  25.155  0.00  0.00    +0.000 OA
BRANCH  22  24
ATOM     24  O   UNL     1      -3.932  14.015  25.002  0.00  0.00    +0.000 OA
ATOM     25  H   UNL     1      -4.732  14.565  25.124  0.00  0.00    +0.000 HD
ENDBRANCH  22  24
ENDBRANCH  19  22
ENDBRANCH  18  19
ENDBRANCH  12  18
ENDBRANCH  11  16
ENDBRANCH   1  11
BRANCH   1  26
ATOM     26  C   UNL     1       1.420   9.087  17.551  0.00  0.00    +0.000 C 
BRANCH  26  27
ATOM     27  C   UNL     1       2.627   8.316  18.108  0.00  0.00    +0.000 C 
BRANCH  27  28
ATOM     28  C   UNL     1       2.392   7.136  19.063  0.00  0.00    +0.000 C 
BRANCH  28  29
ATOM     29  O   UNL     1       3.550   6.277  19.061  0.00  0.00    +0.000 OA
BRANCH  29  30
ATOM     30  C   UNL     1       4.133   5.667  17.986  0.00  0.00    +0.000 A 
ATOM     31  C   UNL     1       5.323   6.323  17.596  0.00  0.00    +0.000 A 
ATOM     32  C   UNL     1       6.124   5.887  16.523  0.00  0.00    +0.000 A 
ATOM     33  C   UNL     1       5.750   4.767  15.790  0.00  0.00    +0.000 A 
ATOM     34  C   UNL     1       6.564   4.239  14.647  0.00  0.00    +0.000 C 
ATOM     35  C   UNL     1       4.566   4.116  16.168  0.00  0.00    +0.000 A 
ATOM     36  C   UNL     1       3.751   4.547  17.250  0.00  0.00    +0.000 A 
ATOM     37  C   UNL     1       2.570   3.670  17.546  0.00  0.00    +0.000 C 
ENDBRANCH  29  30
ENDBRANCH  28  29
ENDBRANCH  27  28
ENDBRANCH  26  27
ENDBRANCH   1  26
TORSDOF 12
ENDMDL
MODEL 7
REMARK VINA RESULT:      -8.0      4.037     11.380
REMARK  Name = 
REMARK  15 active torsions:
REMARK  status: ('A' for Active; 'I' for Inactive)
REMARK    1  A    between atoms: C_1  and  C_2
REMARK    2  A    between atoms: C_2  and  C_3
REMARK    3  A    between atoms: C_3  and  O_4
REMARK    4  A    between atoms: C_3  and  C_34
REMARK    5  A    between atoms: O_4  and  C_5
REMARK    6  A    between atoms: C_9  and  C_10
REMARK    7  A    between atoms: C_10  and  N_11
REMARK    8  A    between atoms: N_11  and  C_12
REMARK    9  A    between atoms: C_12  and  C_13
REMARK   10  A    between atoms: C_13  and  C_14
REMARK   11  A    between atoms: C_14  and  O_15
REMARK   12  A    between atoms: O_15  and  C_16
REMARK   13  A    between atoms: C_19  and  C_20
REMARK   14  A    between atoms: C_22  and  C_23
REMARK   15  A    between atoms: C_34  and  O_36
REMARK                            x       y       z     vdW  Elec       q    Type
REMARK                         _______ _______ _______ _____ _____    ______ ____
ROOT
ATOM      1  N   UNL     1       0.259  11.545  18.647  0.00  0.00    +0.000 N 
ATOM      2  C   UNL     1       0.537  12.885  18.762  0.00  0.00    +0.000 A 
ATOM      3  N   UNL     1       1.708  13.420  19.054  0.00  0.00    +0.000 NA
ATOM      4  C   UNL     1       1.482  14.770  19.067  0.00  0.00    +0.000 A 
ATOM      5  C   UNL     1       2.350  15.838  19.351  0.00  0.00    +0.000 A 
ATOM      6  C   UNL     1       1.848  17.142  19.258  0.00  0.00    +0.000 A 
ATOM      7  C   UNL     1       0.507  17.363  18.901  0.00  0.00    +0.000 A 
ATOM      8  C   UNL     1      -0.377  16.307  18.647  0.00  0.00    +0.000 A 
ATOM      9  C   UNL     1       0.163  15.025  18.749  0.00  0.00    +0.000 A 
ATOM     10  O   UNL     1      -0.463  13.813  18.561  0.00  0.00    +0.000 OA
ENDROOT
BRANCH   1  11
ATOM     11  C   UNL     1      -1.125  11.106  19.030  0.00  0.00    +0.000 C 
BRANCH  11  16
ATOM     12  C   UNL     1      -4.457  11.318  17.064  0.00  0.00    +0.000 A 
ATOM     13  C   UNL     1      -4.153  10.515  15.959  0.00  0.00    +0.000 A 
ATOM     14  C   UNL     1      -2.885   9.923  15.818  0.00  0.00    +0.000 A 
ATOM     15  C   UNL     1      -1.903  10.083  16.802  0.00  0.00    +0.000 A 
ATOM     16  C   UNL     1      -2.151  10.896  17.908  0.00  0.00    +0.000 A 
ATOM     17  C   UNL     1      -3.424  11.557  17.985  0.00  0.00    +0.000 A 
BRANCH  12  18
ATOM     18  O   UNL     1      -5.690  11.920  17.065  0.00  0.00    +0.000 OA
BRANCH  18  19
ATOM     19  C   UNL     1      -6.466  12.252  18.241  0.00  0.00    +0.000 C 
BRANCH  19  21
ATOM     20  C   UNL     1      -7.154  10.596  20.243  0.00  0.00    +0.000 C 
ATOM     21  C   UNL     1      -7.146  10.930  18.744  0.00  0.00    +0.000 C 
ENDBRANCH  19  21
BRANCH  19  22
ATOM     22  C   UNL     1      -7.426  13.459  18.266  0.00  0.00    +0.000 C 
ATOM     23  O   UNL     1      -7.916  13.965  19.264  0.00  0.00    +0.000 OA
BRANCH  22  24
ATOM     24  O   UNL     1      -7.665  13.973  17.033  0.00  0.00    +0.000 OA
ATOM     25  H   UNL     1      -7.199  14.818  16.869  0.00  0.00    +0.000 HD
ENDBRANCH  22  24
ENDBRANCH  19  22
ENDBRANCH  18  19
ENDBRANCH  12  18
ENDBRANCH  11  16
ENDBRANCH   1  11
BRANCH   1  26
ATOM     26  C   UNL     1       1.379  10.699  19.166  0.00  0.00    +0.000 C 
BRANCH  26  27
ATOM     27  C   UNL     1       2.239   9.995  18.104  0.00  0.00    +0.000 C 
BRANCH  27  28
ATOM     28  C   UNL     1       1.838   8.595  17.617  0.00  0.00    +0.000 C 
BRANCH  28  29
ATOM     29  O   UNL     1       2.725   7.614  18.191  0.00  0.00    +0.000 OA
BRANCH  29  30
ATOM     30  C   UNL     1       2.384   6.510  18.921  0.00  0.00    +0.000 A 
ATOM     31  C   UNL     1       2.666   5.314  18.222  0.00  0.00    +0.000 A 
ATOM     32  C   UNL     1       2.421   4.035  18.758  0.00  0.00    +0.000 A 
ATOM     33  C   UNL     1       1.872   3.909  20.028  0.00  0.00    +0.000 A 
ATOM     34  C   UNL     1       1.602   2.579  20.665  0.00  0.00    +0.000 C 
ATOM     35  C   UNL     1       1.584   5.093  20.724  0.00  0.00    +0.000 A 
ATOM     36  C   UNL     1       1.828   6.388  20.194  0.00  0.00    +0.000 A 
ATOM     37  C   UNL     1       1.527   7.526  21.126  0.00  0.00    +0.000 C 
ENDBRANCH  29  30
ENDBRANCH  28  29
ENDBRANCH  27  28
ENDBRANCH  26  27
ENDBRANCH   1  26
TORSDOF 12
ENDMDL
MODEL 8
REMARK VINA RESULT:      -8.0      3.570      7.078
REMARK  Name = 
REMARK  15 active torsions:
REMARK  status: ('A' for Active; 'I' for Inactive)
REMARK    1  A    between atoms: C_1  and  C_2
REMARK    2  A    between atoms: C_2  and  C_3
REMARK    3  A    between atoms: C_3  and  O_4
REMARK    4  A    between atoms: C_3  and  C_34
REMARK    5  A    between atoms: O_4  and  C_5
REMARK    6  A    between atoms: C_9  and  C_10
REMARK    7  A    between atoms: C_10  and  N_11
REMARK    8  A    between atoms: N_11  and  C_12
REMARK    9  A    between atoms: C_12  and  C_13
REMARK   10  A    between atoms: C_13  and  C_14
REMARK   11  A    between atoms: C_14  and  O_15
REMARK   12  A    between atoms: O_15  and  C_16
REMARK   13  A    between atoms: C_19  and  C_20
REMARK   14  A    between atoms: C_22  and  C_23
REMARK   15  A    between atoms: C_34  and  O_36
REMARK                            x       y       z     vdW  Elec       q    Type
REMARK                         _______ _______ _______ _____ _____    ______ ____
ROOT
ATOM      1  N   UNL     1       1.417  10.527  20.540  0.00  0.00    +0.000 N 
ATOM      2  C   UNL     1       1.732  11.818  20.188  0.00  0.00    +0.000 A 
ATOM      3  N   UNL     1       1.611  12.889  20.950  0.00  0.00    +0.000 NA
ATOM      4  C   UNL     1       2.030  13.927  20.163  0.00  0.00    +0.000 A 
ATOM      5  C   UNL     1       2.091  15.305  20.426  0.00  0.00    +0.000 A 
ATOM      6  C   UNL     1       2.600  16.148  19.430  0.00  0.00    +0.000 A 
ATOM      7  C   UNL     1       3.025  15.619  18.201  0.00  0.00    +0.000 A 
ATOM      8  C   UNL     1       2.940  14.251  17.913  0.00  0.00    +0.000 A 
ATOM      9  C   UNL     1       2.430  13.446  18.932  0.00  0.00    +0.000 A 
ATOM     10  O   UNL     1       2.230  12.084  18.930  0.00  0.00    +0.000 OA
ENDROOT
BRANCH   1  11
ATOM     11  C   UNL     1       0.932   9.626  19.442  0.00  0.00    +0.000 C 
BRANCH  11  16
ATOM     12  C   UNL     1       2.881   6.278  19.487  0.00  0.00    +0.000 A 
ATOM     13  C   UNL     1       3.592   6.379  18.286  0.00  0.00    +0.000 A 
ATOM     14  C   UNL     1       3.439   7.496  17.444  0.00  0.00    +0.000 A 
ATOM     15  C   UNL     1       2.605   8.560  17.805  0.00  0.00    +0.000 A 
ATOM     16  C   UNL     1       1.856   8.491  18.979  0.00  0.00    +0.000 A 
ATOM     17  C   UNL     1       1.967   7.304  19.779  0.00  0.00    +0.000 A 
BRANCH  12  18
ATOM     18  O   UNL     1       3.033   5.112  20.194  0.00  0.00    +0.000 OA
BRANCH  18  19
ATOM     19  C   UNL     1       3.165   3.789  19.622  0.00  0.00    +0.000 C 
BRANCH  19  21
ATOM     20  C   UNL     1       1.543   2.944  21.592  0.00  0.00    +0.000 C 
ATOM     21  C   UNL     1       1.937   2.941  20.107  0.00  0.00    +0.000 C 
ENDBRANCH  19  21
BRANCH  19  22
ATOM     22  C   UNL     1       4.491   3.004  19.688  0.00  0.00    +0.000 C 
ATOM     23  O   UNL     1       4.701   2.005  20.359  0.00  0.00    +0.000 OA
BRANCH  22  24
ATOM     24  O   UNL     1       5.448   3.508  18.868  0.00  0.00    +0.000 OA
ATOM     25  H   UNL     1       5.576   4.473  18.969  0.00  0.00    +0.000 HD
ENDBRANCH  22  24
ENDBRANCH  19  22
ENDBRANCH  18  19
ENDBRANCH  12  18
ENDBRANCH  11  16
ENDBRANCH   1  11
BRANCH   1  26
ATOM     26  C   UNL     1       0.643  10.473  21.819  0.00  0.00    +0.000 C 
BRANCH  26  27
ATOM     27  C   UNL     1      -0.887  10.521  21.682  0.00  0.00    +0.000 C 
BRANCH  27  28
ATOM     28  C   UNL     1      -1.564  11.828  21.245  0.00  0.00    +0.000 C 
BRANCH  28  29
ATOM     29  O   UNL     1      -1.749  11.820  19.815  0.00  0.00    +0.000 OA
BRANCH  29  30
ATOM     30  C   UNL     1      -2.931  11.843  19.128  0.00  0.00    +0.000 A 
ATOM     31  C   UNL     1      -3.946  12.500  19.859  0.00  0.00    +0.000 A 
ATOM     32  C   UNL     1      -5.256  12.672  19.370  0.00  0.00    +0.000 A 
ATOM     33  C   UNL     1      -5.598  12.180  18.116  0.00  0.00    +0.000 A 
ATOM     34  C   UNL     1      -6.967  12.344  17.528  0.00  0.00    +0.000 C 
ATOM     35  C   UNL     1      -4.595  11.521  17.389  0.00  0.00    +0.000 A 
ATOM     36  C   UNL     1      -3.271  11.342  17.872  0.00  0.00    +0.000 A 
ATOM     37  C   UNL     1      -2.325  10.684  16.911  0.00  0.00    +0.000 C 
ENDBRANCH  29  30
ENDBRANCH  28  29
ENDBRANCH  27  28
ENDBRANCH  26  27
ENDBRANCH   1  26
TORSDOF 12
ENDMDL
MODEL 9
REMARK VINA RESULT:      -8.0      3.531      7.285
REMARK  Name = 
REMARK  15 active torsions:
REMARK  status: ('A' for Active; 'I' for Inactive)
REMARK    1  A    between atoms: C_1  and  C_2
REMARK    2  A    between atoms: C_2  and  C_3
REMARK    3  A    between atoms: C_3  and  O_4
REMARK    4  A    between atoms: C_3  and  C_34
REMARK    5  A    between atoms: O_4  and  C_5
REMARK    6  A    between atoms: C_9  and  C_10
REMARK    7  A    between atoms: C_10  and  N_11
REMARK    8  A    between atoms: N_11  and  C_12
REMARK    9  A    between atoms: C_12  and  C_13
REMARK   10  A    between atoms: C_13  and  C_14
REMARK   11  A    between atoms: C_14  and  O_15
REMARK   12  A    between atoms: O_15  and  C_16
REMARK   13  A    between atoms: C_19  and  C_20
REMARK   14  A    between atoms: C_22  and  C_23
REMARK   15  A    between atoms: C_34  and  O_36
REMARK                            x       y       z     vdW  Elec       q    Type
REMARK                         _______ _______ _______ _____ _____    ______ ____
ROOT
ATOM      1  N   UNL     1       0.619   9.967  20.129  0.00  0.00    +0.000 N 
ATOM      2  C   UNL     1      -0.420  10.235  19.270  0.00  0.00    +0.000 A 
ATOM      3  N   UNL     1      -1.244  11.264  19.335  0.00  0.00    +0.000 NA
ATOM      4  C   UNL     1      -2.105  11.089  18.285  0.00  0.00    +0.000 A 
ATOM      5  C   UNL     1      -3.212  11.851  17.876  0.00  0.00    +0.000 A 
ATOM      6  C   UNL     1      -3.906  11.447  16.728  0.00  0.00    +0.000 A 
ATOM      7  C   UNL     1      -3.503  10.302  16.021  0.00  0.00    +0.000 A 
ATOM      8  C   UNL     1      -2.422   9.516  16.436  0.00  0.00    +0.000 A 
ATOM      9  C   UNL     1      -1.757   9.953  17.582  0.00  0.00    +0.000 A 
ATOM     10  O   UNL     1      -0.675   9.384  18.216  0.00  0.00    +0.000 OA
ENDROOT
BRANCH   1  11
ATOM     11  C   UNL     1       0.947   8.521  20.363  0.00  0.00    +0.000 C 
BRANCH  11  16
ATOM     12  C   UNL     1       3.215   5.788  18.814  0.00  0.00    +0.000 A 
ATOM     13  C   UNL     1       3.762   6.491  17.735  0.00  0.00    +0.000 A 
ATOM     14  C   UNL     1       3.398   7.826  17.478  0.00  0.00    +0.000 A 
ATOM     15  C   UNL     1       2.510   8.504  18.321  0.00  0.00    +0.000 A 
ATOM     16  C   UNL     1       1.918   7.836  19.392  0.00  0.00    +0.000 A 
ATOM     17  C   UNL     1       2.243   6.450  19.583  0.00  0.00    +0.000 A 
BRANCH  12  18
ATOM     18  O   UNL     1       3.567   4.466  18.928  0.00  0.00    +0.000 OA
BRANCH  18  19
ATOM     19  C   UNL     1       2.689   3.391  19.340  0.00  0.00    +0.000 C 
BRANCH  19  21
ATOM     20  C   UNL     1       1.630   2.670  21.703  0.00  0.00    +0.000 C 
ATOM     21  C   UNL     1       2.794   3.272  20.901  0.00  0.00    +0.000 C 
ENDBRANCH  19  21
BRANCH  19  22
ATOM     22  C   UNL     1       2.701   2.019  18.638  0.00  0.00    +0.000 C 
ATOM     23  O   UNL     1       3.687   1.329  18.427  0.00  0.00    +0.000 OA
BRANCH  22  24
ATOM     24  O   UNL     1       1.462   1.590  18.289  0.00  0.00    +0.000 OA
ATOM     25  H   UNL     1       1.334   1.522  17.321  0.00  0.00    +0.000 HD
ENDBRANCH  22  24
ENDBRANCH  19  22
ENDBRANCH  18  19
ENDBRANCH  12  18
ENDBRANCH  11  16
ENDBRANCH   1  11
BRANCH   1  26
ATOM     26  C   UNL     1       0.567  10.831  21.350  0.00  0.00    +0.000 C 
BRANCH  26  27
ATOM     27  C   UNL     1       0.122  10.137  22.647  0.00  0.00    +0.000 C 
BRANCH  27  28
ATOM     28  C   UNL     1      -1.226  10.513  23.278  0.00  0.00    +0.000 C 
BRANCH  28  29
ATOM     29  O   UNL     1      -1.707  11.739  22.692  0.00  0.00    +0.000 OA
BRANCH  29  30
ATOM     30  C   UNL     1      -2.012  12.906  23.335  0.00  0.00    +0.000 A 
ATOM     31  C   UNL     1      -0.973  13.856  23.212  0.00  0.00    +0.000 A 
ATOM     32  C   UNL     1      -1.040  15.147  23.771  0.00  0.00    +0.000 A 
ATOM     33  C   UNL     1      -2.167  15.532  24.489  0.00  0.00    +0.000 A 
ATOM     34  C   UNL     1      -2.313  16.895  25.096  0.00  0.00    +0.000 C 
ATOM     35  C   UNL     1      -3.199  14.590  24.620  0.00  0.00    +0.000 A 
ATOM     36  C   UNL     1      -3.140  13.287  24.059  0.00  0.00    +0.000 A 
ATOM     37  C   UNL     1      -4.379  12.458  24.241  0.00  0.00    +0.000 C 
ENDBRANCH  29  30
ENDBRANCH  28  29
ENDBRANCH  27  28
ENDBRANCH  26  27
ENDBRANCH   1  26
TORSDOF 12
ENDMDL
