MODEL 1
REMARK VINA RESULT:      -6.6      0.000      0.000
REMARK  Name = 
REMARK  7 active torsions:
REMARK  status: ('A' for Active; 'I' for Inactive)
REMARK    1  A    between atoms: C_1  and  C_2
REMARK    2  A    between atoms: N_5  and  C_6
REMARK    3  A    between atoms: C_6  and  C_7
REMARK    4  A    between atoms: C_8  and  O_9
REMARK    5  A    between atoms: C_15  and  O_16
REMARK    6  A    between atoms: O_16  and  C_17
REMARK    7  A    between atoms: C_24  and  C_25
REMARK                            x       y       z     vdW  Elec       q    Type
REMARK                         _______ _______ _______ _____ _____    ______ ____
ROOT
ATOM      1  C   UNL     1       4.192   5.633  18.120  0.00  0.00    +0.000 A 
ATOM      2  C   UNL     1       4.770   5.637  16.840  0.00  0.00    +0.000 A 
ATOM      3  C   UNL     1       4.765   6.774  16.035  0.00  0.00    +0.000 A 
ATOM      4  C   UNL     1       4.075   7.906  16.447  0.00  0.00    +0.000 A 
ATOM      5  C   UNL     1       3.359   7.865  17.643  0.00  0.00    +0.000 A 
ATOM      6  C   UNL     1       2.427   8.943  17.972  0.00  0.00    +0.000 A 
ATOM      7  O   UNL     1       2.164   9.776  17.112  0.00  0.00    +0.000 OA
ATOM      8  C   UNL     1       1.774   8.908  19.314  0.00  0.00    +0.000 A 
ATOM      9  C   UNL     1       1.897   7.757  20.016  0.00  0.00    +0.000 A 
ATOM     10  O   UNL     1       2.698   6.691  19.642  0.00  0.00    +0.000 OA
ATOM     11  C   UNL     1       3.428   6.760  18.483  0.00  0.00    +0.000 A 
ENDROOT
BRANCH   9  12
ATOM     12  C   UNL     1       1.134   7.500  21.284  0.00  0.00    +0.000 C 
ATOM     13  F   UNL     1       1.539   8.325  22.287  0.00  0.00    +0.000 F 
ATOM     14  F   UNL     1      -0.203   7.687  21.153  0.00  0.00    +0.000 F 
ATOM     15  F   UNL     1       1.328   6.235  21.733  0.00  0.00    +0.000 F 
ENDBRANCH   9  12
BRANCH   2  16
ATOM     16  O   UNL     1       5.332   4.518  16.293  0.00  0.00    +0.000 OA
ATOM     17  H   UNL     1       6.212   4.401  16.710  0.00  0.00    +0.000 HD
ENDBRANCH   2  16
BRANCH   1  18
ATOM     18  C   UNL     1       4.264   4.456  19.078  0.00  0.00    +0.000 C 
BRANCH  18  23
ATOM     19  C   UNL     1       1.127   2.652  22.110  0.00  0.00    +0.000 C 
ATOM     20  C   UNL     1       1.728   2.360  20.735  0.00  0.00    +0.000 C 
ATOM     21  C   UNL     1       3.235   2.109  20.852  0.00  0.00    +0.000 C 
ATOM     22  C   UNL     1       3.917   2.037  19.483  0.00  0.00    +0.000 C 
ATOM     23  N   UNL     1       3.657   3.192  18.596  0.00  0.00    +0.000 NA
ATOM     24  C   UNL     1       2.196   3.344  18.437  0.00  0.00    +0.000 C 
ATOM     25  C   UNL     1       1.429   3.501  19.755  0.00  0.00    +0.000 C 
ENDBRANCH  18  23
ENDBRANCH   1  18
BRANCH   8  26
ATOM     26  O   UNL     1       1.010   9.981  19.792  0.00  0.00    +0.000 OA
BRANCH  26  27
ATOM     27  C   UNL     1       0.021  10.479  18.965  0.00  0.00    +0.000 A 
ATOM     28  C   UNL     1      -0.991   9.633  18.491  0.00  0.00    +0.000 A 
ATOM     29  C   UNL     1      -2.115  10.172  17.865  0.00  0.00    +0.000 A 
ATOM     30  C   UNL     1      -2.194  11.544  17.637  0.00  0.00    +0.000 A 
ATOM     31  C   UNL     1      -1.131  12.376  17.998  0.00  0.00    +0.000 A 
ATOM     32  C   UNL     1      -0.020  11.844  18.661  0.00  0.00    +0.000 A 
ATOM     33 CL   UNL     1       1.258  12.910  19.115  0.00  0.00    +0.000 Cl
ENDBRANCH  26  27
ENDBRANCH   8  26
TORSDOF 6
ENDMDL
MODEL 2
REMARK VINA RESULT:      -6.6      4.789      9.208
REMARK  Name = 
REMARK  7 active torsions:
REMARK  status: ('A' for Active; 'I' for Inactive)
REMARK    1  A    between atoms: C_1  and  C_2
REMARK    2  A    between atoms: N_5  and  C_6
REMARK    3  A    between atoms: C_6  and  C_7
REMARK    4  A    between atoms: C_8  and  O_9
REMARK    5  A    between atoms: C_15  and  O_16
REMARK    6  A    between atoms: O_16  and  C_17
REMARK    7  A    between atoms: C_24  and  C_25
REMARK                            x       y       z     vdW  Elec       q    Type
REMARK                         _______ _______ _______ _____ _____    ______ ____
ROOT
ATOM      1  C   UNL     1      -4.487  11.932  18.519  0.00  0.00    +0.000 A 
ATOM      2  C   UNL     1      -4.992  11.530  17.272  0.00  0.00    +0.000 A 
ATOM      3  C   UNL     1      -4.315  10.617  16.464  0.00  0.00    +0.000 A 
ATOM      4  C   UNL     1      -3.054  10.174  16.835  0.00  0.00    +0.000 A 
ATOM      5  C   UNL     1      -2.467  10.689  17.991  0.00  0.00    +0.000 A 
ATOM      6  C   UNL     1      -1.053  10.435  18.266  0.00  0.00    +0.000 A 
ATOM      7  O   UNL     1      -0.367   9.920  17.391  0.00  0.00    +0.000 OA
ATOM      8  C   UNL     1      -0.506  10.910  19.571  0.00  0.00    +0.000 A 
ATOM      9  C   UNL     1      -1.288  11.757  20.282  0.00  0.00    +0.000 A 
ATOM     10  O   UNL     1      -2.594  12.081  19.955  0.00  0.00    +0.000 OA
ATOM     11  C   UNL     1      -3.173  11.537  18.837  0.00  0.00    +0.000 A 
ENDROOT
BRANCH   9  12
ATOM     12  C   UNL     1      -0.796  12.472  21.508  0.00  0.00    +0.000 C 
ATOM     13  F   UNL     1      -0.587  11.610  22.540  0.00  0.00    +0.000 F 
ATOM     14  F   UNL     1       0.376  13.126  21.314  0.00  0.00    +0.000 F 
ATOM     15  F   UNL     1      -1.702  13.380  21.951  0.00  0.00    +0.000 F 
ENDBRANCH   9  12
BRANCH   2  16
ATOM     16  O   UNL     1      -6.152  12.038  16.759  0.00  0.00    +0.000 OA
ATOM     17  H   UNL     1      -6.346  12.868  17.245  0.00  0.00    +0.000 HD
ENDBRANCH   2  16
BRANCH   1  18
ATOM     18  C   UNL     1      -5.234  12.838  19.482  0.00  0.00    +0.000 C 
BRANCH  18  23
ATOM     19  C   UNL     1      -7.448  13.291  23.628  0.00  0.00    +0.000 C 
ATOM     20  C   UNL     1      -7.766  13.166  22.138  0.00  0.00    +0.000 C 
ATOM     21  C   UNL     1      -7.282  11.816  21.599  0.00  0.00    +0.000 C 
ATOM     22  C   UNL     1      -7.374  11.738  20.072  0.00  0.00    +0.000 C 
ATOM     23  N   UNL     1      -6.711  12.846  19.350  0.00  0.00    +0.000 NA
ATOM     24  C   UNL     1      -7.269  14.125  19.835  0.00  0.00    +0.000 C 
ATOM     25  C   UNL     1      -7.155  14.332  21.351  0.00  0.00    +0.000 C 
ENDBRANCH  18  23
ENDBRANCH   1  18
BRANCH   8  26
ATOM     26  O   UNL     1       0.781  10.561  20.005  0.00  0.00    +0.000 OA
BRANCH  26  27
ATOM     27  C   UNL     1       1.151   9.234  19.897  0.00  0.00    +0.000 A 
ATOM     28  C   UNL     1       1.888   8.797  18.787  0.00  0.00    +0.000 A 
ATOM     29  C   UNL     1       2.469   7.529  18.791  0.00  0.00    +0.000 A 
ATOM     30  C   UNL     1       2.251   6.666  19.861  0.00  0.00    +0.000 A 
ATOM     31  C   UNL     1       1.415   7.053  20.914  0.00  0.00    +0.000 A 
ATOM     32  C   UNL     1       0.863   8.338  20.932  0.00  0.00    +0.000 A 
ATOM     33 CL   UNL     1      -0.140   8.786  22.263  0.00  0.00    +0.000 Cl
ENDBRANCH  26  27
ENDBRANCH   8  26
TORSDOF 6
ENDMDL
MODEL 3
REMARK VINA RESULT:      -6.5      5.141      9.584
REMARK  Name = 
REMARK  7 active torsions:
REMARK  status: ('A' for Active; 'I' for Inactive)
REMARK    1  A    between atoms: C_1  and  C_2
REMARK    2  A    between atoms: N_5  and  C_6
REMARK    3  A    between atoms: C_6  and  C_7
REMARK    4  A    between atoms: C_8  and  O_9
REMARK    5  A    between atoms: C_15  and  O_16
REMARK    6  A    between atoms: O_16  and  C_17
REMARK    7  A    between atoms: C_24  and  C_25
REMARK                            x       y       z     vdW  Elec       q    Type
REMARK                         _______ _______ _______ _____ _____    ______ ____
ROOT
ATOM      1  C   UNL     1      -4.950  12.824  19.430  0.00  0.00    +0.000 A 
ATOM      2  C   UNL     1      -5.886  12.157  18.622  0.00  0.00    +0.000 A 
ATOM      3  C   UNL     1      -5.555  11.004  17.912  0.00  0.00    +0.000 A 
ATOM      4  C   UNL     1      -4.241  10.557  17.901  0.00  0.00    +0.000 A 
ATOM      5  C   UNL     1      -3.266  11.301  18.566  0.00  0.00    +0.000 A 
ATOM      6  C   UNL     1      -1.851  10.996  18.360  0.00  0.00    +0.000 A 
ATOM      7  O   UNL     1      -1.541  10.205  17.476  0.00  0.00    +0.000 OA
ATOM      8  C   UNL     1      -0.855  11.744  19.183  0.00  0.00    +0.000 A 
ATOM      9  C   UNL     1      -1.319  12.818  19.864  0.00  0.00    +0.000 A 
ATOM     10  O   UNL     1      -2.656  13.167  19.964  0.00  0.00    +0.000 OA
ATOM     11  C   UNL     1      -3.609  12.404  19.338  0.00  0.00    +0.000 A 
ENDROOT
BRANCH   9  12
ATOM     12  C   UNL     1      -0.409  13.781  20.570  0.00  0.00    +0.000 C 
ATOM     13  F   UNL     1      -1.094  14.850  21.060  0.00  0.00    +0.000 F 
ATOM     14  F   UNL     1       0.242  13.230  21.625  0.00  0.00    +0.000 F 
ATOM     15  F   UNL     1       0.529  14.286  19.730  0.00  0.00    +0.000 F 
ENDBRANCH   9  12
BRANCH   2  16
ATOM     16  O   UNL     1      -7.161  12.620  18.452  0.00  0.00    +0.000 OA
ATOM     17  H   UNL     1      -7.343  12.622  17.489  0.00  0.00    +0.000 HD
ENDBRANCH   2  16
BRANCH   1  18
ATOM     18  C   UNL     1      -5.287  14.018  20.305  0.00  0.00    +0.000 C 
BRANCH  18  23
ATOM     19  C   UNL     1      -3.333  14.647  24.557  0.00  0.00    +0.000 C 
ATOM     20  C   UNL     1      -4.674  14.270  23.930  0.00  0.00    +0.000 C 
ATOM     21  C   UNL     1      -4.549  12.961  23.143  0.00  0.00    +0.000 C 
ATOM     22  C   UNL     1      -5.802  12.662  22.315  0.00  0.00    +0.000 C 
ATOM     23  N   UNL     1      -6.231  13.759  21.419  0.00  0.00    +0.000 NA
ATOM     24  C   UNL     1      -6.428  14.979  22.229  0.00  0.00    +0.000 C 
ATOM     25  C   UNL     1      -5.199  15.405  23.041  0.00  0.00    +0.000 C 
ENDBRANCH  18  23
ENDBRANCH   1  18
BRANCH   8  26
ATOM     26  O   UNL     1       0.504  11.401  19.192  0.00  0.00    +0.000 OA
BRANCH  26  27
ATOM     27  C   UNL     1       0.874  10.279  19.910  0.00  0.00    +0.000 A 
ATOM     28  C   UNL     1       0.581  10.191  21.277  0.00  0.00    +0.000 A 
ATOM     29  C   UNL     1       0.729   8.976  21.946  0.00  0.00    +0.000 A 
ATOM     30  C   UNL     1       1.245   7.871  21.275  0.00  0.00    +0.000 A 
ATOM     31  C   UNL     1       1.654   7.988  19.943  0.00  0.00    +0.000 A 
ATOM     32  C   UNL     1       1.471   9.194  19.258  0.00  0.00    +0.000 A 
ATOM     33 CL   UNL     1       1.962   9.289  17.608  0.00  0.00    +0.000 Cl
ENDBRANCH  26  27
ENDBRANCH   8  26
TORSDOF 6
ENDMDL
MODEL 4
REMARK VINA RESULT:      -6.4      4.942      9.335
REMARK  Name = 
REMARK  7 active torsions:
REMARK  status: ('A' for Active; 'I' for Inactive)
REMARK    1  A    between atoms: C_1  and  C_2
REMARK    2  A    between atoms: N_5  and  C_6
REMARK    3  A    between atoms: C_6  and  C_7
REMARK    4  A    between atoms: C_8  and  O_9
REMARK    5  A    between atoms: C_15  and  O_16
REMARK    6  A    between atoms: O_16  and  C_17
REMARK    7  A    between atoms: C_24  and  C_25
REMARK                            x       y       z     vdW  Elec       q    Type
REMARK                         _______ _______ _______ _____ _____    ______ ____
ROOT
ATOM      1  C   UNL     1      -4.551  12.664  19.530  0.00  0.00    +0.000 A 
ATOM      2  C   UNL     1      -5.560  12.012  18.802  0.00  0.00    +0.000 A 
ATOM      3  C   UNL     1      -5.302  10.868  18.050  0.00  0.00    +0.000 A 
ATOM      4  C   UNL     1      -3.997  10.415  17.912  0.00  0.00    +0.000 A 
ATOM      5  C   UNL     1      -2.961  11.146  18.495  0.00  0.00    +0.000 A 
ATOM      6  C   UNL     1      -1.572  10.838  18.156  0.00  0.00    +0.000 A 
ATOM      7  O   UNL     1      -1.350  10.059  17.237  0.00  0.00    +0.000 OA
ATOM      8  C   UNL     1      -0.501  11.570  18.894  0.00  0.00    +0.000 A 
ATOM      9  C   UNL     1      -0.895  12.637  19.630  0.00  0.00    +0.000 A 
ATOM     10  O   UNL     1      -2.215  12.990  19.856  0.00  0.00    +0.000 OA
ATOM     11  C   UNL     1      -3.226  12.240  19.310  0.00  0.00    +0.000 A 
ENDROOT
BRANCH   9  12
ATOM     12  C   UNL     1       0.081  13.587  20.262  0.00  0.00    +0.000 C 
ATOM     13  F   UNL     1      -0.553  14.539  20.998  0.00  0.00    +0.000 F 
ATOM     14  F   UNL     1       0.956  12.977  21.100  0.00  0.00    +0.000 F 
ATOM     15  F   UNL     1       0.806  14.250  19.327  0.00  0.00    +0.000 F 
ENDBRANCH   9  12
BRANCH   2  16
ATOM     16  O   UNL     1      -6.843  12.483  18.757  0.00  0.00    +0.000 OA
ATOM     17  H   UNL     1      -7.005  12.967  19.594  0.00  0.00    +0.000 HD
ENDBRANCH   2  16
BRANCH   1  18
ATOM     18  C   UNL     1      -4.800  13.847  20.449  0.00  0.00    +0.000 C 
BRANCH  18  23
ATOM     19  C   UNL     1      -2.846  14.610  24.679  0.00  0.00    +0.000 C 
ATOM     20  C   UNL     1      -4.185  14.203  24.064  0.00  0.00    +0.000 C 
ATOM     21  C   UNL     1      -4.049  12.875  23.313  0.00  0.00    +0.000 C 
ATOM     22  C   UNL     1      -5.299  12.542  22.495  0.00  0.00    +0.000 C 
ATOM     23  N   UNL     1      -5.740  13.610  21.570  0.00  0.00    +0.000 NA
ATOM     24  C   UNL     1      -5.947  14.849  22.347  0.00  0.00    +0.000 C 
ATOM     25  C   UNL     1      -4.721  15.309  23.145  0.00  0.00    +0.000 C 
ENDBRANCH  18  23
ENDBRANCH   1  18
BRANCH   8  26
ATOM     26  O   UNL     1       0.851  11.222  18.773  0.00  0.00    +0.000 OA
BRANCH  26  27
ATOM     27  C   UNL     1       1.184   9.892  18.946  0.00  0.00    +0.000 A 
ATOM     28  C   UNL     1       1.757   9.168  17.892  0.00  0.00    +0.000 A 
ATOM     29  C   UNL     1       2.316   7.912  18.130  0.00  0.00    +0.000 A 
ATOM     30  C   UNL     1       2.232   7.342  19.398  0.00  0.00    +0.000 A 
ATOM     31  C   UNL     1       1.552   8.008  20.422  0.00  0.00    +0.000 A 
ATOM     32  C   UNL     1       1.025   9.285  20.197  0.00  0.00    +0.000 A 
ATOM     33 CL   UNL     1       0.219  10.085  21.494  0.00  0.00    +0.000 Cl
ENDBRANCH  26  27
ENDBRANCH   8  26
TORSDOF 6
ENDMDL
MODEL 5
REMARK VINA RESULT:      -6.4      4.947      9.324
REMARK  Name = 
REMARK  7 active torsions:
REMARK  status: ('A' for Active; 'I' for Inactive)
REMARK    1  A    between atoms: C_1  and  C_2
REMARK    2  A    between atoms: N_5  and  C_6
REMARK    3  A    between atoms: C_6  and  C_7
REMARK    4  A    between atoms: C_8  and  O_9
REMARK    5  A    between atoms: C_15  and  O_16
REMARK    6  A    between atoms: O_16  and  C_17
REMARK    7  A    between atoms: C_24  and  C_25
REMARK                            x       y       z     vdW  Elec       q    Type
REMARK                         _______ _______ _______ _____ _____    ______ ____
ROOT
ATOM      1  C   UNL     1      -4.735  11.975  18.796  0.00  0.00    +0.000 A 
ATOM      2  C   UNL     1      -5.295  11.556  17.578  0.00  0.00    +0.000 A 
ATOM      3  C   UNL     1      -4.610  10.711  16.707  0.00  0.00    +0.000 A 
ATOM      4  C   UNL     1      -3.296  10.360  16.980  0.00  0.00    +0.000 A 
ATOM      5  C   UNL     1      -2.670  10.900  18.104  0.00  0.00    +0.000 A 
ATOM      6  C   UNL     1      -1.225  10.750  18.275  0.00  0.00    +0.000 A 
ATOM      7  O   UNL     1      -0.565  10.303  17.344  0.00  0.00    +0.000 OA
ATOM      8  C   UNL     1      -0.625  11.245  19.549  0.00  0.00    +0.000 A 
ATOM      9  C   UNL     1      -1.416  12.017  20.330  0.00  0.00    +0.000 A 
ATOM     10  O   UNL     1      -2.763  12.246  20.101  0.00  0.00    +0.000 OA
ATOM     11  C   UNL     1      -3.376  11.677  19.014  0.00  0.00    +0.000 A 
ENDROOT
BRANCH   9  12
ATOM     12  C   UNL     1      -0.895  12.749  21.534  0.00  0.00    +0.000 C 
ATOM     13  F   UNL     1       0.294  13.357  21.274  0.00  0.00    +0.000 F 
ATOM     14  F   UNL     1      -1.731  13.721  21.975  0.00  0.00    +0.000 F 
ATOM     15  F   UNL     1      -0.669  11.903  22.571  0.00  0.00    +0.000 F 
ENDBRANCH   9  12
BRANCH   2  16
ATOM     16  O   UNL     1      -6.524  11.982  17.158  0.00  0.00    +0.000 OA
ATOM     17  H   UNL     1      -7.193  11.411  17.590  0.00  0.00    +0.000 HD
ENDBRANCH   2  16
BRANCH   1  18
ATOM     18  C   UNL     1      -5.479  12.806  19.828  0.00  0.00    +0.000 C 
BRANCH  18  23
ATOM     19  C   UNL     1      -7.546  13.594  23.999  0.00  0.00    +0.000 C 
ATOM     20  C   UNL     1      -7.916  13.311  22.543  0.00  0.00    +0.000 C 
ATOM     21  C   UNL     1      -7.404  11.932  22.118  0.00  0.00    +0.000 C 
ATOM     22  C   UNL     1      -7.552  11.699  20.612  0.00  0.00    +0.000 C 
ATOM     23  N   UNL     1      -6.959  12.751  19.758  0.00  0.00    +0.000 NA
ATOM     24  C   UNL     1      -7.546  14.053  20.138  0.00  0.00    +0.000 C 
ATOM     25  C   UNL     1      -7.381  14.413  21.620  0.00  0.00    +0.000 C 
ENDBRANCH  18  23
ENDBRANCH   1  18
BRANCH   8  26
ATOM     26  O   UNL     1       0.712  10.988  19.886  0.00  0.00    +0.000 OA
BRANCH  26  27
ATOM     27  C   UNL     1       1.045   9.691  20.226  0.00  0.00    +0.000 A 
ATOM     28  C   UNL     1       0.597   9.143  21.435  0.00  0.00    +0.000 A 
ATOM     29  C   UNL     1       0.720   7.773  21.669  0.00  0.00    +0.000 A 
ATOM     30  C   UNL     1       1.363   6.963  20.737  0.00  0.00    +0.000 A 
ATOM     31  C   UNL     1       1.922   7.526  19.586  0.00  0.00    +0.000 A 
ATOM     32  C   UNL     1       1.765   8.893  19.330  0.00  0.00    +0.000 A 
ATOM     33 CL   UNL     1       2.444   9.544  17.884  0.00  0.00    +0.000 Cl
ENDBRANCH  26  27
ENDBRANCH   8  26
TORSDOF 6
ENDMDL
MODEL 6
REMARK VINA RESULT:      -6.4      3.843      8.007
REMARK  Name = 
REMARK  7 active torsions:
REMARK  status: ('A' for Active; 'I' for Inactive)
REMARK    1  A    between atoms: C_1  and  C_2
REMARK    2  A    between atoms: N_5  and  C_6
REMARK    3  A    between atoms: C_6  and  C_7
REMARK    4  A    between atoms: C_8  and  O_9
REMARK    5  A    between atoms: C_15  and  O_16
REMARK    6  A    between atoms: O_16  and  C_17
REMARK    7  A    between atoms: C_24  and  C_25
REMARK                            x       y       z     vdW  Elec       q    Type
REMARK                         _______ _______ _______ _____ _____    ______ ____
ROOT
ATOM      1  C   UNL     1      -2.737  11.128  18.909  0.00  0.00    +0.000 A 
ATOM      2  C   UNL     1      -3.106  11.413  17.585  0.00  0.00    +0.000 A 
ATOM      3  C   UNL     1      -2.422  10.872  16.498  0.00  0.00    +0.000 A 
ATOM      4  C   UNL     1      -1.273  10.123  16.713  0.00  0.00    +0.000 A 
ATOM      5  C   UNL     1      -0.800   9.966  18.016  0.00  0.00    +0.000 A 
ATOM      6  C   UNL     1       0.531   9.405  18.245  0.00  0.00    +0.000 A 
ATOM      7  O   UNL     1       1.274   9.241  17.284  0.00  0.00    +0.000 OA
ATOM      8  C   UNL     1       0.942   9.151  19.657  0.00  0.00    +0.000 A 
ATOM      9  C   UNL     1       0.160   9.694  20.620  0.00  0.00    +0.000 A 
ATOM     10  O   UNL     1      -1.051  10.325  20.386  0.00  0.00    +0.000 OA
ATOM     11  C   UNL     1      -1.524  10.438  19.103  0.00  0.00    +0.000 A 
ENDROOT
BRANCH   9  12
ATOM     12  C   UNL     1       0.550   9.697  22.070  0.00  0.00    +0.000 C 
ATOM     13  F   UNL     1       1.902   9.688  22.224  0.00  0.00    +0.000 F 
ATOM     14  F   UNL     1       0.096  10.782  22.746  0.00  0.00    +0.000 F 
ATOM     15  F   UNL     1       0.089   8.594  22.712  0.00  0.00    +0.000 F 
ENDBRANCH   9  12
BRANCH   2  16
ATOM     16  O   UNL     1      -4.129  12.268  17.283  0.00  0.00    +0.000 OA
ATOM     17  H   UNL     1      -4.777  12.217  18.017  0.00  0.00    +0.000 HD
ENDBRANCH   2  16
BRANCH   1  18
ATOM     18  C   UNL     1      -3.513  11.604  20.125  0.00  0.00    +0.000 C 
BRANCH  18  23
ATOM     19  C   UNL     1      -4.306  12.552  24.682  0.00  0.00    +0.000 C 
ATOM     20  C   UNL     1      -3.933  13.269  23.385  0.00  0.00    +0.000 C 
ATOM     21  C   UNL     1      -5.060  13.136  22.356  0.00  0.00    +0.000 C 
ATOM     22  C   UNL     1      -4.642  13.641  20.972  0.00  0.00    +0.000 C 
ATOM     23  N   UNL     1      -3.394  13.048  20.444  0.00  0.00    +0.000 NA
ATOM     24  C   UNL     1      -2.312  13.277  21.424  0.00  0.00    +0.000 C 
ATOM     25  C   UNL     1      -2.606  12.736  22.829  0.00  0.00    +0.000 C 
ENDBRANCH  18  23
ENDBRANCH   1  18
BRANCH   8  26
ATOM     26  O   UNL     1       2.116   8.453  19.973  0.00  0.00    +0.000 OA
BRANCH  26  27
ATOM     27  C   UNL     1       2.100   7.080  19.822  0.00  0.00    +0.000 A 
ATOM     28  C   UNL     1       1.395   6.280  20.732  0.00  0.00    +0.000 A 
ATOM     29  C   UNL     1       1.173   4.932  20.450  0.00  0.00    +0.000 A 
ATOM     30  C   UNL     1       1.722   4.361  19.305  0.00  0.00    +0.000 A 
ATOM     31  C   UNL     1       2.530   5.126  18.458  0.00  0.00    +0.000 A 
ATOM     32  C   UNL     1       2.722   6.487  18.717  0.00  0.00    +0.000 A 
ATOM     33 CL   UNL     1       3.702   7.403  17.633  0.00  0.00    +0.000 Cl
ENDBRANCH  26  27
ENDBRANCH   8  26
TORSDOF 6
ENDMDL
MODEL 7
REMARK VINA RESULT:      -6.4      4.745      9.165
REMARK  Name = 
REMARK  7 active torsions:
REMARK  status: ('A' for Active; 'I' for Inactive)
REMARK    1  A    between atoms: C_1  and  C_2
REMARK    2  A    between atoms: N_5  and  C_6
REMARK    3  A    between atoms: C_6  and  C_7
REMARK    4  A    between atoms: C_8  and  O_9
REMARK    5  A    between atoms: C_15  and  O_16
REMARK    6  A    between atoms: O_16  and  C_17
REMARK    7  A    between atoms: C_24  and  C_25
REMARK                            x       y       z     vdW  Elec       q    Type
REMARK                         _______ _______ _______ _____ _____    ______ ____
ROOT
ATOM      1  C   UNL     1      -3.794  12.613  19.671  0.00  0.00    +0.000 A 
ATOM      2  C   UNL     1      -4.933  12.215  18.953  0.00  0.00    +0.000 A 
ATOM      3  C   UNL     1      -4.929  11.089  18.131  0.00  0.00    +0.000 A 
ATOM      4  C   UNL     1      -3.744  10.400  17.915  0.00  0.00    +0.000 A 
ATOM      5  C   UNL     1      -2.566  10.879  18.491  0.00  0.00    +0.000 A 
ATOM      6  C   UNL     1      -1.277  10.327  18.079  0.00  0.00    +0.000 A 
ATOM      7  O   UNL     1      -1.240   9.576  17.111  0.00  0.00    +0.000 OA
ATOM      8  C   UNL     1      -0.060  10.791  18.809  0.00  0.00    +0.000 A 
ATOM      9  C   UNL     1      -0.214  11.868  19.615  0.00  0.00    +0.000 A 
ATOM     10  O   UNL     1      -1.431  12.458  19.916  0.00  0.00    +0.000 OA
ATOM     11  C   UNL     1      -2.585  11.953  19.374  0.00  0.00    +0.000 A 
ENDROOT
BRANCH   9  12
ATOM     12  C   UNL     1       0.950  12.570  20.255  0.00  0.00    +0.000 C 
ATOM     13  F   UNL     1       1.936  12.828  19.353  0.00  0.00    +0.000 F 
ATOM     14  F   UNL     1       0.619  13.763  20.809  0.00  0.00    +0.000 F 
ATOM     15  F   UNL     1       1.516  11.811  21.227  0.00  0.00    +0.000 F 
ENDBRANCH   9  12
BRANCH   2  16
ATOM     16  O   UNL     1      -6.099  12.928  18.986  0.00  0.00    +0.000 OA
ATOM     17  H   UNL     1      -6.795  12.366  18.585  0.00  0.00    +0.000 HD
ENDBRANCH   2  16
BRANCH   1  18
ATOM     18  C   UNL     1      -3.776  13.765  20.660  0.00  0.00    +0.000 C 
BRANCH  18  23
ATOM     19  C   UNL     1      -2.776  14.895  25.135  0.00  0.00    +0.000 C 
ATOM     20  C   UNL     1      -3.984  14.643  24.232  0.00  0.00    +0.000 C 
ATOM     21  C   UNL     1      -3.978  13.200  23.719  0.00  0.00    +0.000 C 
ATOM     22  C   UNL     1      -5.037  12.966  22.638  0.00  0.00    +0.000 C 
ATOM     23  N   UNL     1      -4.987  13.913  21.503  0.00  0.00    +0.000 NA
ATOM     24  C   UNL     1      -5.087  15.289  22.033  0.00  0.00    +0.000 C 
ATOM     25  C   UNL     1      -4.017  15.646  23.072  0.00  0.00    +0.000 C 
ENDBRANCH  18  23
ENDBRANCH   1  18
BRANCH   8  26
ATOM     26  O   UNL     1       1.193  10.194  18.613  0.00  0.00    +0.000 OA
BRANCH  26  27
ATOM     27  C   UNL     1       1.475   9.053  19.340  0.00  0.00    +0.000 A 
ATOM     28  C   UNL     1       0.922   8.876  20.615  0.00  0.00    +0.000 A 
ATOM     29  C   UNL     1       1.002   7.633  21.244  0.00  0.00    +0.000 A 
ATOM     30  C   UNL     1       1.702   6.592  20.642  0.00  0.00    +0.000 A 
ATOM     31  C   UNL     1       2.360   6.801  19.426  0.00  0.00    +0.000 A 
ATOM     32  C   UNL     1       2.249   8.034  18.774  0.00  0.00    +0.000 A 
ATOM     33 CL   UNL     1       3.053   8.242  17.262  0.00  0.00    +0.000 Cl
ENDBRANCH  26  27
ENDBRANCH   8  26
TORSDOF 6
ENDMDL
MODEL 8
REMARK VINA RESULT:      -6.3      5.496     10.007
REMARK  Name = 
REMARK  7 active torsions:
REMARK  status: ('A' for Active; 'I' for Inactive)
REMARK    1  A    between atoms: C_1  and  C_2
REMARK    2  A    between atoms: N_5  and  C_6
REMARK    3  A    between atoms: C_6  and  C_7
REMARK    4  A    between atoms: C_8  and  O_9
REMARK    5  A    between atoms: C_15  and  O_16
REMARK    6  A    between atoms: O_16  and  C_17
REMARK    7  A    between atoms: C_24  and  C_25
REMARK                            x       y       z     vdW  Elec       q    Type
REMARK                         _______ _______ _______ _____ _____    ______ ____
ROOT
ATOM      1  C   UNL     1      -5.573  12.254  20.087  0.00  0.00    +0.000 A 
ATOM      2  C   UNL     1      -6.252  12.068  18.873  0.00  0.00    +0.000 A 
ATOM      3  C   UNL     1      -5.584  11.705  17.705  0.00  0.00    +0.000 A 
ATOM      4  C   UNL     1      -4.198  11.635  17.699  0.00  0.00    +0.000 A 
ATOM      5  C   UNL     1      -3.497  11.977  18.856  0.00  0.00    +0.000 A 
ATOM      6  C   UNL     1      -2.047  12.156  18.803  0.00  0.00    +0.000 A 
ATOM      7  O   UNL     1      -1.495  12.171  17.709  0.00  0.00    +0.000 OA
ATOM      8  C   UNL     1      -1.333  12.406  20.090  0.00  0.00    +0.000 A 
ATOM      9  C   UNL     1      -2.106  12.701  21.162  0.00  0.00    +0.000 A 
ATOM     10  O   UNL     1      -3.490  12.636  21.174  0.00  0.00    +0.000 OA
ATOM     11  C   UNL     1      -4.165  12.261  20.041  0.00  0.00    +0.000 A 
ENDROOT
BRANCH   9  12
ATOM     12  C   UNL     1      -1.530  13.170  22.468  0.00  0.00    +0.000 C 
ATOM     13  F   UNL     1      -0.844  12.177  23.097  0.00  0.00    +0.000 F 
ATOM     14  F   UNL     1      -0.664  14.204  22.331  0.00  0.00    +0.000 F 
ATOM     15  F   UNL     1      -2.503  13.562  23.328  0.00  0.00    +0.000 F 
ENDBRANCH   9  12
BRANCH   2  16
ATOM     16  O   UNL     1      -7.598  12.270  18.754  0.00  0.00    +0.000 OA
ATOM     17  H   UNL     1      -7.986  12.185  19.651  0.00  0.00    +0.000 HD
ENDBRANCH   2  16
BRANCH   1  18
ATOM     18  C   UNL     1      -6.264  12.544  21.408  0.00  0.00    +0.000 C 
BRANCH  18  23
ATOM     19  C   UNL     1      -4.960  15.973  24.381  0.00  0.00    +0.000 C 
ATOM     20  C   UNL     1      -6.060  15.658  23.367  0.00  0.00    +0.000 C 
ATOM     21  C   UNL     1      -6.865  14.433  23.814  0.00  0.00    +0.000 C 
ATOM     22  C   UNL     1      -7.826  13.945  22.727  0.00  0.00    +0.000 C 
ATOM     23  N   UNL     1      -7.201  13.694  21.410  0.00  0.00    +0.000 NA
ATOM     24  C   UNL     1      -6.512  14.926  20.973  0.00  0.00    +0.000 C 
ATOM     25  C   UNL     1      -5.469  15.454  21.967  0.00  0.00    +0.000 C 
ENDBRANCH  18  23
ENDBRANCH   1  18
BRANCH   8  26
ATOM     26  O   UNL     1       0.067  12.412  20.171  0.00  0.00    +0.000 OA
BRANCH  26  27
ATOM     27  C   UNL     1       0.734  11.279  19.745  0.00  0.00    +0.000 A 
ATOM     28  C   UNL     1       0.474  10.040  20.347  0.00  0.00    +0.000 A 
ATOM     29  C   UNL     1       0.955   8.867  19.766  0.00  0.00    +0.000 A 
ATOM     30  C   UNL     1       1.763   8.931  18.634  0.00  0.00    +0.000 A 
ATOM     31  C   UNL     1       2.126  10.173  18.102  0.00  0.00    +0.000 A 
ATOM     32  C   UNL     1       1.614  11.349  18.659  0.00  0.00    +0.000 A 
ATOM     33 CL   UNL     1       2.064  12.859  17.957  0.00  0.00    +0.000 Cl
ENDBRANCH  26  27
ENDBRANCH   8  26
TORSDOF 6
ENDMDL
MODEL 9
REMARK VINA RESULT:      -6.3      4.993      9.439
REMARK  Name = 
REMARK  7 active torsions:
REMARK  status: ('A' for Active; 'I' for Inactive)
REMARK    1  A    between atoms: C_1  and  C_2
REMARK    2  A    between atoms: N_5  and  C_6
REMARK    3  A    between atoms: C_6  and  C_7
REMARK    4  A    between atoms: C_8  and  O_9
REMARK    5  A    between atoms: C_15  and  O_16
REMARK    6  A    between atoms: O_16  and  C_17
REMARK    7  A    between atoms: C_24  and  C_25
REMARK                            x       y       z     vdW  Elec       q    Type
REMARK                         _______ _______ _______ _____ _____    ______ ____
ROOT
ATOM      1  C   UNL     1      -4.763  12.215  19.199  0.00  0.00    +0.000 A 
ATOM      2  C   UNL     1      -5.454  11.836  18.037  0.00  0.00    +0.000 A 
ATOM      3  C   UNL     1      -4.890  10.979  17.093  0.00  0.00    +0.000 A 
ATOM      4  C   UNL     1      -3.570  10.575  17.233  0.00  0.00    +0.000 A 
ATOM      5  C   UNL     1      -2.817  11.074  18.297  0.00  0.00    +0.000 A 
ATOM      6  C   UNL     1      -1.370  10.868  18.324  0.00  0.00    +0.000 A 
ATOM      7  O   UNL     1      -0.821  10.411  17.328  0.00  0.00    +0.000 OA
ATOM      8  C   UNL     1      -0.630  11.320  19.539  0.00  0.00    +0.000 A 
ATOM      9  C   UNL     1      -1.311  12.109  20.403  0.00  0.00    +0.000 A 
ATOM     10  O   UNL     1      -2.664  12.392  20.309  0.00  0.00    +0.000 OA
ATOM     11  C   UNL     1      -3.401  11.863  19.280  0.00  0.00    +0.000 A 
ENDROOT
BRANCH   9  12
ATOM     12  C   UNL     1      -0.648  12.802  21.559  0.00  0.00    +0.000 C 
ATOM     13  F   UNL     1      -1.090  14.082  21.695  0.00  0.00    +0.000 F 
ATOM     14  F   UNL     1      -0.873  12.193  22.750  0.00  0.00    +0.000 F 
ATOM     15  F   UNL     1       0.695  12.881  21.387  0.00  0.00    +0.000 F 
ENDBRANCH   9  12
BRANCH   2  16
ATOM     16  O   UNL     1      -6.700  12.314  17.744  0.00  0.00    +0.000 OA
ATOM     17  H   UNL     1      -6.583  13.085  17.150  0.00  0.00    +0.000 HD
ENDBRANCH   2  16
BRANCH   1  18
ATOM     18  C   UNL     1      -5.370  13.056  20.309  0.00  0.00    +0.000 C 
BRANCH  18  23
ATOM     19  C   UNL     1      -7.917  15.671  23.304  0.00  0.00    +0.000 C 
ATOM     20  C   UNL     1      -7.333  14.264  23.183  0.00  0.00    +0.000 C 
ATOM     21  C   UNL     1      -5.803  14.322  23.124  0.00  0.00    +0.000 C 
ATOM     22  C   UNL     1      -5.186  12.964  22.778  0.00  0.00    +0.000 C 
ATOM     23  N   UNL     1      -5.722  12.330  21.553  0.00  0.00    +0.000 NA
ATOM     24  C   UNL     1      -7.188  12.211  21.688  0.00  0.00    +0.000 C 
ATOM     25  C   UNL     1      -7.909  13.537  21.962  0.00  0.00    +0.000 C 
ENDBRANCH  18  23
ENDBRANCH   1  18
BRANCH   8  26
ATOM     26  O   UNL     1       0.722  11.009  19.741  0.00  0.00    +0.000 OA
BRANCH  26  27
ATOM     27  C   UNL     1       1.092   9.681  19.643  0.00  0.00    +0.000 A 
ATOM     28  C   UNL     1       1.695   9.203  18.471  0.00  0.00    +0.000 A 
ATOM     29  C   UNL     1       2.287   7.940  18.456  0.00  0.00    +0.000 A 
ATOM     30  C   UNL     1       2.207   7.120  19.579  0.00  0.00    +0.000 A 
ATOM     31  C   UNL     1       1.499   7.545  20.708  0.00  0.00    +0.000 A 
ATOM     32  C   UNL     1       0.939   8.826  20.740  0.00  0.00    +0.000 A 
ATOM     33 CL   UNL     1       0.098   9.323  22.162  0.00  0.00    +0.000 Cl
ENDBRANCH  26  27
ENDBRANCH   8  26
TORSDOF 6
ENDMDL
