MODEL 1
REMARK VINA RESULT:      -8.0      0.000      0.000
REMARK  Name = 
REMARK  10 active torsions:
REMARK  status: ('A' for Active; 'I' for Inactive)
REMARK    1  A    between atoms: C_1  and  C_2
REMARK    2  A    between atoms: C_2  and  C_3
REMARK    3  A    between atoms: C_2  and  C_4
REMARK    4  A    between atoms: C_8  and  C_9
REMARK    5  A    between atoms: C_9  and  C_10
REMARK    6  A    between atoms: C_9  and  C_11
REMARK    7  A    between atoms: C_12  and  N_13
REMARK    8  A    between atoms: C_14  and  C_16
REMARK    9  A    between atoms: C_16  and  O_17
REMARK   10  A    between atoms: O_17  and  C_18
REMARK                            x       y       z     vdW  Elec       q    Type
REMARK                         _______ _______ _______ _____ _____    ______ ____
ROOT
ATOM      1  N   UNL     1       2.836   6.717  17.849  0.00  0.00    +0.000 N 
ATOM      2  C   UNL     1       2.355   7.757  18.677  0.00  0.00    +0.000 C 
ATOM      3  O   UNL     1       2.314   7.677  19.909  0.00  0.00    +0.000 OA
ATOM      4  H   UNL     1       2.589   6.794  16.884  0.00  0.00    +0.000 HD
ENDROOT
BRANCH   1  10
ATOM      5  C   UNL     1       2.893   4.357  18.828  0.00  0.00    +0.000 A 
ATOM      6  C   UNL     1       3.679   3.247  19.276  0.00  0.00    +0.000 A 
ATOM      7  C   UNL     1       5.048   3.230  19.206  0.00  0.00    +0.000 A 
ATOM      8  C   UNL     1       5.675   4.301  18.609  0.00  0.00    +0.000 A 
ATOM      9  C   UNL     1       4.960   5.428  18.101  0.00  0.00    +0.000 A 
ATOM     10  C   UNL     1       3.531   5.491  18.229  0.00  0.00    +0.000 A 
BRANCH   5  12
ATOM     11  C   UNL     1       0.970   2.785  18.633  0.00  0.00    +0.000 C 
ATOM     12  C   UNL     1       1.393   4.195  19.074  0.00  0.00    +0.000 C 
ATOM     13  C   UNL     1       0.964   4.400  20.540  0.00  0.00    +0.000 C 
ENDBRANCH   5  12
BRANCH   9  14
ATOM     14  C   UNL     1       5.931   6.403  17.428  0.00  0.00    +0.000 C 
ATOM     15  C   UNL     1       7.377   6.458  17.898  0.00  0.00    +0.000 C 
ATOM     16  C   UNL     1       5.801   6.328  15.905  0.00  0.00    +0.000 C 
ENDBRANCH   9  14
ENDBRANCH   1  10
BRANCH   2  17
ATOM     17  C   UNL     1       1.518   8.970  17.988  0.00  0.00    +0.000 C 
BRANCH  17  18
ATOM     18  O   UNL     1       0.873  10.207  18.297  0.00  0.00    +0.000 OA
BRANCH  18  19
ATOM     19  C   UNL     1      -0.377  10.213  18.888  0.00  0.00    +0.000 A 
ATOM     20  N   UNL     1      -1.319  10.892  18.183  0.00  0.00    +0.000 NA
ATOM     21  N   UNL     1      -2.126  11.707  18.862  0.00  0.00    +0.000 NA
ATOM     22  C   UNL     1      -1.836  12.000  20.148  0.00  0.00    +0.000 A 
ATOM     23  C   UNL     1      -0.908  11.296  20.917  0.00  0.00    +0.000 A 
ATOM     24  C   UNL     1      -0.737  11.564  22.281  0.00  0.00    +0.000 A 
ATOM     25  C   UNL     1      -0.580  10.495  23.145  0.00  0.00    +0.000 A 
ATOM     26  C   UNL     1      -0.557   9.212  22.603  0.00  0.00    +0.000 A 
ATOM     27  C   UNL     1      -0.392   9.044  21.211  0.00  0.00    +0.000 A 
ATOM     28  C   UNL     1      -0.442  10.162  20.313  0.00  0.00    +0.000 A 
ENDBRANCH  18  19
ENDBRANCH  17  18
ENDBRANCH   2  17
TORSDOF 6
ENDMDL
MODEL 2
REMARK VINA RESULT:      -7.8      2.038      2.513
REMARK  Name = 
REMARK  10 active torsions:
REMARK  status: ('A' for Active; 'I' for Inactive)
REMARK    1  A    between atoms: C_1  and  C_2
REMARK    2  A    between atoms: C_2  and  C_3
REMARK    3  A    between atoms: C_2  and  C_4
REMARK    4  A    between atoms: C_8  and  C_9
REMARK    5  A    between atoms: C_9  and  C_10
REMARK    6  A    between atoms: C_9  and  C_11
REMARK    7  A    between atoms: C_12  and  N_13
REMARK    8  A    between atoms: C_14  and  C_16
REMARK    9  A    between atoms: C_16  and  O_17
REMARK   10  A    between atoms: O_17  and  C_18
REMARK                            x       y       z     vdW  Elec       q    Type
REMARK                         _______ _______ _______ _____ _____    ______ ____
ROOT
ATOM      1  N   UNL     1       2.679   6.469  19.267  0.00  0.00    +0.000 N 
ATOM      2  C   UNL     1       2.044   7.633  18.777  0.00  0.00    +0.000 C 
ATOM      3  O   UNL     1       1.906   7.873  17.573  0.00  0.00    +0.000 OA
ATOM      4  H   UNL     1       2.952   6.507  20.228  0.00  0.00    +0.000 HD
ENDROOT
BRANCH   1  10
ATOM      5  C   UNL     1       2.457   4.003  18.632  0.00  0.00    +0.000 A 
ATOM      6  C   UNL     1       3.017   2.865  17.969  0.00  0.00    +0.000 A 
ATOM      7  C   UNL     1       4.195   2.919  17.269  0.00  0.00    +0.000 A 
ATOM      8  C   UNL     1       4.814   4.144  17.145  0.00  0.00    +0.000 A 
ATOM      9  C   UNL     1       4.297   5.333  17.742  0.00  0.00    +0.000 A 
ATOM     10  C   UNL     1       3.101   5.279  18.536  0.00  0.00    +0.000 A 
BRANCH   5  12
ATOM     11  C   UNL     1       0.571   2.394  18.882  0.00  0.00    +0.000 C 
ATOM     12  C   UNL     1       1.182   3.698  19.418  0.00  0.00    +0.000 C 
ATOM     13  C   UNL     1       1.393   3.551  20.938  0.00  0.00    +0.000 C 
ENDBRANCH   5  12
BRANCH   9  14
ATOM     14  C   UNL     1       5.164   6.533  17.351  0.00  0.00    +0.000 C 
ATOM     15  C   UNL     1       6.628   6.563  17.768  0.00  0.00    +0.000 C 
ATOM     16  C   UNL     1       4.956   6.892  15.878  0.00  0.00    +0.000 C 
ENDBRANCH   9  14
ENDBRANCH   1  10
BRANCH   2  17
ATOM     17  C   UNL     1       1.778   8.862  19.810  0.00  0.00    +0.000 C 
BRANCH  17  18
ATOM     18  O   UNL     1       0.971  10.028  19.983  0.00  0.00    +0.000 OA
BRANCH  18  19
ATOM     19  C   UNL     1       0.612  10.796  18.891  0.00  0.00    +0.000 A 
ATOM     20  N   UNL     1       1.274  11.981  18.806  0.00  0.00    +0.000 NA
ATOM     21  N   UNL     1       0.558  13.064  18.509  0.00  0.00    +0.000 NA
ATOM     22  C   UNL     1      -0.791  12.991  18.535  0.00  0.00    +0.000 A 
ATOM     23  C   UNL     1      -1.504  11.792  18.576  0.00  0.00    +0.000 A 
ATOM     24  C   UNL     1      -2.902  11.771  18.476  0.00  0.00    +0.000 A 
ATOM     25  C   UNL     1      -3.488  10.790  17.697  0.00  0.00    +0.000 A 
ATOM     26  C   UNL     1      -2.658   9.851  17.090  0.00  0.00    +0.000 A 
ATOM     27  C   UNL     1      -1.315   9.732  17.508  0.00  0.00    +0.000 A 
ATOM     28  C   UNL     1      -0.725  10.683  18.406  0.00  0.00    +0.000 A 
ENDBRANCH  18  19
ENDBRANCH  17  18
ENDBRANCH   2  17
TORSDOF 6
ENDMDL
MODEL 3
REMARK VINA RESULT:      -7.8      2.301      8.086
REMARK  Name = 
REMARK  10 active torsions:
REMARK  status: ('A' for Active; 'I' for Inactive)
REMARK    1  A    between atoms: C_1  and  C_2
REMARK    2  A    between atoms: C_2  and  C_3
REMARK    3  A    between atoms: C_2  and  C_4
REMARK    4  A    between atoms: C_8  and  C_9
REMARK    5  A    between atoms: C_9  and  C_10
REMARK    6  A    between atoms: C_9  and  C_11
REMARK    7  A    between atoms: C_12  and  N_13
REMARK    8  A    between atoms: C_14  and  C_16
REMARK    9  A    between atoms: C_16  and  O_17
REMARK   10  A    between atoms: O_17  and  C_18
REMARK                            x       y       z     vdW  Elec       q    Type
REMARK                         _______ _______ _______ _____ _____    ______ ____
ROOT
ATOM      1  N   UNL     1       0.681   9.995  17.880  0.00  0.00    +0.000 N 
ATOM      2  C   UNL     1       1.339   8.931  18.539  0.00  0.00    +0.000 C 
ATOM      3  O   UNL     1       1.404   8.834  19.768  0.00  0.00    +0.000 OA
ATOM      4  H   UNL     1       0.908  10.100  16.913  0.00  0.00    +0.000 HD
ENDROOT
BRANCH   1  10
ATOM      5  C   UNL     1       0.289  12.130  19.230  0.00  0.00    +0.000 A 
ATOM      6  C   UNL     1      -0.645  13.025  19.841  0.00  0.00    +0.000 A 
ATOM      7  C   UNL     1      -2.003  12.855  19.754  0.00  0.00    +0.000 A 
ATOM      8  C   UNL     1      -2.472  11.816  18.981  0.00  0.00    +0.000 A 
ATOM      9  C   UNL     1      -1.606  10.904  18.307  0.00  0.00    +0.000 A 
ATOM     10  C   UNL     1      -0.182  11.029  18.444  0.00  0.00    +0.000 A 
BRANCH   5  12
ATOM     11  C   UNL     1       2.357  13.150  18.285  0.00  0.00    +0.000 C 
ATOM     12  C   UNL     1       1.752  12.465  19.521  0.00  0.00    +0.000 C 
ATOM     13  C   UNL     1       1.962  13.383  20.741  0.00  0.00    +0.000 C 
ENDBRANCH   5  12
BRANCH   9  14
ATOM     14  C   UNL     1      -2.430   9.921  17.470  0.00  0.00    +0.000 C 
ATOM     15  C   UNL     1      -3.790   9.466  17.979  0.00  0.00    +0.000 C 
ATOM     16  C   UNL     1      -2.457  10.354  16.002  0.00  0.00    +0.000 C 
ENDBRANCH   9  14
ENDBRANCH   1  10
BRANCH   2  17
ATOM     17  C   UNL     1       2.331   7.979  17.669  0.00  0.00    +0.000 C 
BRANCH  17  18
ATOM     18  O   UNL     1       3.686   7.532  17.605  0.00  0.00    +0.000 OA
BRANCH  18  19
ATOM     19  C   UNL     1       4.016   6.246  17.994  0.00  0.00    +0.000 A 
ATOM     20  N   UNL     1       4.859   5.608  17.140  0.00  0.00    +0.000 NA
ATOM     21  N   UNL     1       4.579   4.343  16.831  0.00  0.00    +0.000 NA
ATOM     22  C   UNL     1       3.378   3.830  17.179  0.00  0.00    +0.000 A 
ATOM     23  C   UNL     1       2.507   4.434  18.086  0.00  0.00    +0.000 A 
ATOM     24  C   UNL     1       1.331   3.796  18.504  0.00  0.00    +0.000 A 
ATOM     25  C   UNL     1       0.983   3.873  19.840  0.00  0.00    +0.000 A 
ATOM     26  C   UNL     1       1.799   4.616  20.689  0.00  0.00    +0.000 A 
ATOM     27  C   UNL     1       2.757   5.498  20.143  0.00  0.00    +0.000 A 
ATOM     28  C   UNL     1       3.048   5.506  18.738  0.00  0.00    +0.000 A 
ENDBRANCH  18  19
ENDBRANCH  17  18
ENDBRANCH   2  17
TORSDOF 6
ENDMDL
MODEL 4
REMARK VINA RESULT:      -7.6      1.899      4.082
REMARK  Name = 
REMARK  10 active torsions:
REMARK  status: ('A' for Active; 'I' for Inactive)
REMARK    1  A    between atoms: C_1  and  C_2
REMARK    2  A    between atoms: C_2  and  C_3
REMARK    3  A    between atoms: C_2  and  C_4
REMARK    4  A    between atoms: C_8  and  C_9
REMARK    5  A    between atoms: C_9  and  C_10
REMARK    6  A    between atoms: C_9  and  C_11
REMARK    7  A    between atoms: C_12  and  N_13
REMARK    8  A    between atoms: C_14  and  C_16
REMARK    9  A    between atoms: C_16  and  O_17
REMARK   10  A    between atoms: O_17  and  C_18
REMARK                            x       y       z     vdW  Elec       q    Type
REMARK                         _______ _______ _______ _____ _____    ______ ____
ROOT
ATOM      1  N   UNL     1       2.826   6.181  19.855  0.00  0.00    +0.000 N 
ATOM      2  C   UNL     1       2.167   7.332  19.364  0.00  0.00    +0.000 C 
ATOM      3  O   UNL     1       2.123   7.625  18.165  0.00  0.00    +0.000 OA
ATOM      4  H   UNL     1       3.010   6.184  20.837  0.00  0.00    +0.000 HD
ENDROOT
BRANCH   1  10
ATOM      5  C   UNL     1       4.618   5.099  18.389  0.00  0.00    +0.000 A 
ATOM      6  C   UNL     1       5.021   3.982  17.589  0.00  0.00    +0.000 A 
ATOM      7  C   UNL     1       4.244   2.863  17.431  0.00  0.00    +0.000 A 
ATOM      8  C   UNL     1       3.065   2.794  18.138  0.00  0.00    +0.000 A 
ATOM      9  C   UNL     1       2.612   3.849  18.989  0.00  0.00    +0.000 A 
ATOM     10  C   UNL     1       3.381   5.055  19.110  0.00  0.00    +0.000 A 
BRANCH   5  12
ATOM     11  C   UNL     1       7.000   5.750  18.724  0.00  0.00    +0.000 C 
ATOM     12  C   UNL     1       5.601   6.270  18.360  0.00  0.00    +0.000 C 
ATOM     13  C   UNL     1       5.685   6.994  17.002  0.00  0.00    +0.000 C 
ENDBRANCH   5  12
BRANCH   9  14
ATOM     14  C   UNL     1       1.317   3.434  19.691  0.00  0.00    +0.000 C 
ATOM     15  C   UNL     1       0.391   2.430  19.018  0.00  0.00    +0.000 C 
ATOM     16  C   UNL     1       1.582   3.107  21.162  0.00  0.00    +0.000 C 
ENDBRANCH   9  14
ENDBRANCH   1  10
BRANCH   2  17
ATOM     17  C   UNL     1       1.739   8.488  20.424  0.00  0.00    +0.000 C 
BRANCH  17  18
ATOM     18  O   UNL     1       0.762   9.509  20.638  0.00  0.00    +0.000 OA
BRANCH  18  19
ATOM     19  C   UNL     1       0.614  10.535  19.723  0.00  0.00    +0.000 A 
ATOM     20  N   UNL     1       1.181  11.708  20.110  0.00  0.00    +0.000 NA
ATOM     21  N   UNL     1       0.473  12.822  19.928  0.00  0.00    +0.000 NA
ATOM     22  C   UNL     1      -0.833  12.726  19.595  0.00  0.00    +0.000 A 
ATOM     23  C   UNL     1      -1.439  11.550  19.150  0.00  0.00    +0.000 A 
ATOM     24  C   UNL     1      -2.766  11.537  18.701  0.00  0.00    +0.000 A 
ATOM     25  C   UNL     1      -3.070  10.790  17.577  0.00  0.00    +0.000 A 
ATOM     26  C   UNL     1      -2.047  10.058  16.980  0.00  0.00    +0.000 A 
ATOM     27  C   UNL     1      -0.837   9.850  17.677  0.00  0.00    +0.000 A 
ATOM     28  C   UNL     1      -0.556  10.536  18.905  0.00  0.00    +0.000 A 
ENDBRANCH  18  19
ENDBRANCH  17  18
ENDBRANCH   2  17
TORSDOF 6
ENDMDL
MODEL 5
REMARK VINA RESULT:      -7.6      1.936      4.125
REMARK  Name = 
REMARK  10 active torsions:
REMARK  status: ('A' for Active; 'I' for Inactive)
REMARK    1  A    between atoms: C_1  and  C_2
REMARK    2  A    between atoms: C_2  and  C_3
REMARK    3  A    between atoms: C_2  and  C_4
REMARK    4  A    between atoms: C_8  and  C_9
REMARK    5  A    between atoms: C_9  and  C_10
REMARK    6  A    between atoms: C_9  and  C_11
REMARK    7  A    between atoms: C_12  and  N_13
REMARK    8  A    between atoms: C_14  and  C_16
REMARK    9  A    between atoms: C_16  and  O_17
REMARK   10  A    between atoms: O_17  and  C_18
REMARK                            x       y       z     vdW  Elec       q    Type
REMARK                         _______ _______ _______ _____ _____    ______ ____
ROOT
ATOM      1  N   UNL     1       2.830   5.974  19.948  0.00  0.00    +0.000 N 
ATOM      2  C   UNL     1       2.206   7.185  19.570  0.00  0.00    +0.000 C 
ATOM      3  O   UNL     1       2.196   7.608  18.410  0.00  0.00    +0.000 OA
ATOM      4  H   UNL     1       2.990   5.867  20.928  0.00  0.00    +0.000 HD
ENDROOT
BRANCH   1  10
ATOM      5  C   UNL     1       4.624   5.030  18.391  0.00  0.00    +0.000 A 
ATOM      6  C   UNL     1       5.024   3.996  17.486  0.00  0.00    +0.000 A 
ATOM      7  C   UNL     1       4.241   2.904  17.213  0.00  0.00    +0.000 A 
ATOM      8  C   UNL     1       3.057   2.774  17.904  0.00  0.00    +0.000 A 
ATOM      9  C   UNL     1       2.606   3.741  18.853  0.00  0.00    +0.000 A 
ATOM     10  C   UNL     1       3.383   4.924  19.097  0.00  0.00    +0.000 A 
BRANCH   5  12
ATOM     11  C   UNL     1       6.948   5.661  19.034  0.00  0.00    +0.000 C 
ATOM     12  C   UNL     1       5.614   6.191  18.483  0.00  0.00    +0.000 C 
ATOM     13  C   UNL     1       5.886   6.902  17.143  0.00  0.00    +0.000 C 
ENDBRANCH   5  12
BRANCH   9  14
ATOM     14  C   UNL     1       1.304   3.268  19.504  0.00  0.00    +0.000 C 
ATOM     15  C   UNL     1       0.482   2.181  18.825  0.00  0.00    +0.000 C 
ATOM     16  C   UNL     1       1.510   3.013  20.999  0.00  0.00    +0.000 C 
ENDBRANCH   9  14
ENDBRANCH   1  10
BRANCH   2  17
ATOM     17  C   UNL     1       1.773   8.229  20.740  0.00  0.00    +0.000 C 
BRANCH  17  18
ATOM     18  O   UNL     1       0.625   8.747  21.414  0.00  0.00    +0.000 OA
BRANCH  18  19
ATOM     19  C   UNL     1       0.543  10.094  21.717  0.00  0.00    +0.000 A 
ATOM     20  N   UNL     1       0.165  10.351  22.997  0.00  0.00    +0.000 NA
ATOM     21  N   UNL     1      -0.748  11.303  23.188  0.00  0.00    +0.000 NA
ATOM     22  C   UNL     1      -1.416  11.799  22.124  0.00  0.00    +0.000 A 
ATOM     23  C   UNL     1      -1.031  11.594  20.798  0.00  0.00    +0.000 A 
ATOM     24  C   UNL     1      -1.689  12.234  19.740  0.00  0.00    +0.000 A 
ATOM     25  C   UNL     1      -0.924  12.742  18.704  0.00  0.00    +0.000 A 
ATOM     26  C   UNL     1       0.454  12.550  18.752  0.00  0.00    +0.000 A 
ATOM     27  C   UNL     1       0.999  11.614  19.657  0.00  0.00    +0.000 A 
ATOM     28  C   UNL     1       0.191  10.995  20.667  0.00  0.00    +0.000 A 
ENDBRANCH  18  19
ENDBRANCH  17  18
ENDBRANCH   2  17
TORSDOF 6
ENDMDL
MODEL 6
REMARK VINA RESULT:      -7.6      1.990      2.493
REMARK  Name = 
REMARK  10 active torsions:
REMARK  status: ('A' for Active; 'I' for Inactive)
REMARK    1  A    between atoms: C_1  and  C_2
REMARK    2  A    between atoms: C_2  and  C_3
REMARK    3  A    between atoms: C_2  and  C_4
REMARK    4  A    between atoms: C_8  and  C_9
REMARK    5  A    between atoms: C_9  and  C_10
REMARK    6  A    between atoms: C_9  and  C_11
REMARK    7  A    between atoms: C_12  and  N_13
REMARK    8  A    between atoms: C_14  and  C_16
REMARK    9  A    between atoms: C_16  and  O_17
REMARK   10  A    between atoms: O_17  and  C_18
REMARK                            x       y       z     vdW  Elec       q    Type
REMARK                         _______ _______ _______ _____ _____    ______ ____
ROOT
ATOM      1  N   UNL     1       2.683   6.365  19.422  0.00  0.00    +0.000 N 
ATOM      2  C   UNL     1       2.011   7.514  18.947  0.00  0.00    +0.000 C 
ATOM      3  O   UNL     1       1.838   7.748  17.746  0.00  0.00    +0.000 OA
ATOM      4  H   UNL     1       2.979   6.411  20.375  0.00  0.00    +0.000 HD
ENDROOT
BRANCH   1  10
ATOM      5  C   UNL     1       2.466   3.905  18.764  0.00  0.00    +0.000 A 
ATOM      6  C   UNL     1       3.031   2.773  18.093  0.00  0.00    +0.000 A 
ATOM      7  C   UNL     1       4.213   2.834  17.400  0.00  0.00    +0.000 A 
ATOM      8  C   UNL     1       4.831   4.060  17.290  0.00  0.00    +0.000 A 
ATOM      9  C   UNL     1       4.310   5.244  17.896  0.00  0.00    +0.000 A 
ATOM     10  C   UNL     1       3.110   5.181  18.682  0.00  0.00    +0.000 A 
BRANCH   5  12
ATOM     11  C   UNL     1       0.510   2.368  18.902  0.00  0.00    +0.000 C 
ATOM     12  C   UNL     1       1.187   3.591  19.540  0.00  0.00    +0.000 C 
ATOM     13  C   UNL     1       1.408   3.304  21.038  0.00  0.00    +0.000 C 
ENDBRANCH   5  12
BRANCH   9  14
ATOM     14  C   UNL     1       5.179   6.448  17.521  0.00  0.00    +0.000 C 
ATOM     15  C   UNL     1       6.650   6.457  17.910  0.00  0.00    +0.000 C 
ATOM     16  C   UNL     1       4.946   6.847  16.062  0.00  0.00    +0.000 C 
ENDBRANCH   9  14
ENDBRANCH   1  10
BRANCH   2  17
ATOM     17  C   UNL     1       1.748   8.740  19.983  0.00  0.00    +0.000 C 
BRANCH  17  18
ATOM     18  O   UNL     1       1.040   9.975  20.105  0.00  0.00    +0.000 OA
BRANCH  18  19
ATOM     19  C   UNL     1       0.895  10.576  21.342  0.00  0.00    +0.000 A 
ATOM     20  N   UNL     1       1.085   9.734  22.392  0.00  0.00    +0.000 NA
ATOM     21  N   UNL     1       0.217   9.805  23.400  0.00  0.00    +0.000 NA
ATOM     22  C   UNL     1      -0.919  10.519  23.244  0.00  0.00    +0.000 A 
ATOM     23  C   UNL     1      -1.131  11.426  22.204  0.00  0.00    +0.000 A 
ATOM     24  C   UNL     1      -2.277  12.231  22.160  0.00  0.00    +0.000 A 
ATOM     25  C   UNL     1      -2.135  13.554  21.782  0.00  0.00    +0.000 A 
ATOM     26  C   UNL     1      -0.865  14.001  21.425  0.00  0.00    +0.000 A 
ATOM     27  C   UNL     1       0.159  13.064  21.166  0.00  0.00    +0.000 A 
ATOM     28  C   UNL     1      -0.017  11.669  21.451  0.00  0.00    +0.000 A 
ENDBRANCH  18  19
ENDBRANCH  17  18
ENDBRANCH   2  17
TORSDOF 6
ENDMDL
MODEL 7
REMARK VINA RESULT:      -7.6      4.862      7.754
REMARK  Name = 
REMARK  10 active torsions:
REMARK  status: ('A' for Active; 'I' for Inactive)
REMARK    1  A    between atoms: C_1  and  C_2
REMARK    2  A    between atoms: C_2  and  C_3
REMARK    3  A    between atoms: C_2  and  C_4
REMARK    4  A    between atoms: C_8  and  C_9
REMARK    5  A    between atoms: C_9  and  C_10
REMARK    6  A    between atoms: C_9  and  C_11
REMARK    7  A    between atoms: C_12  and  N_13
REMARK    8  A    between atoms: C_14  and  C_16
REMARK    9  A    between atoms: C_16  and  O_17
REMARK   10  A    between atoms: O_17  and  C_18
REMARK                            x       y       z     vdW  Elec       q    Type
REMARK                         _______ _______ _______ _____ _____    ______ ____
ROOT
ATOM      1  N   UNL     1       5.716   7.418  17.084  0.00  0.00    +0.000 N 
ATOM      2  C   UNL     1       7.008   7.426  17.659  0.00  0.00    +0.000 C 
ATOM      3  O   UNL     1       7.403   6.562  18.447  0.00  0.00    +0.000 OA
ATOM      4  H   UNL     1       5.430   8.283  16.673  0.00  0.00    +0.000 HD
ENDROOT
BRANCH   1  10
ATOM      5  C   UNL     1       3.494   6.441  17.883  0.00  0.00    +0.000 A 
ATOM      6  C   UNL     1       2.620   5.310  17.951  0.00  0.00    +0.000 A 
ATOM      7  C   UNL     1       2.908   4.111  17.350  0.00  0.00    +0.000 A 
ATOM      8  C   UNL     1       4.055   4.032  16.591  0.00  0.00    +0.000 A 
ATOM      9  C   UNL     1       4.958   5.128  16.441  0.00  0.00    +0.000 A 
ATOM     10  C   UNL     1       4.704   6.367  17.120  0.00  0.00    +0.000 A 
BRANCH   5  12
ATOM     11  C   UNL     1       2.231   8.585  17.758  0.00  0.00    +0.000 C 
ATOM     12  C   UNL     1       3.013   7.646  18.690  0.00  0.00    +0.000 C 
ATOM     13  C   UNL     1       2.114   7.288  19.891  0.00  0.00    +0.000 C 
ENDBRANCH   5  12
BRANCH   9  14
ATOM     14  C   UNL     1       6.084   4.748  15.476  0.00  0.00    +0.000 C 
ATOM     15  C   UNL     1       7.342   4.087  16.019  0.00  0.00    +0.000 C 
ATOM     16  C   UNL     1       5.520   4.035  14.244  0.00  0.00    +0.000 C 
ENDBRANCH   9  14
ENDBRANCH   1  10
BRANCH   2  17
ATOM     17  C   UNL     1       7.894   8.786  17.549  0.00  0.00    +0.000 C 
BRANCH  17  18
ATOM     18  O   UNL     1       7.990  10.110  18.078  0.00  0.00    +0.000 OA
BRANCH  18  19
ATOM     19  C   UNL     1       9.114  10.499  18.783  0.00  0.00    +0.000 A 
ATOM     20  N   UNL     1       9.077  10.179  20.103  0.00  0.00    +0.000 NA
ATOM     21  N   UNL     1       9.468  11.111  20.972  0.00  0.00    +0.000 NA
ATOM     22  C   UNL     1       9.655  12.377  20.540  0.00  0.00    +0.000 A 
ATOM     23  C   UNL     1       9.744  12.736  19.194  0.00  0.00    +0.000 A 
ATOM     24  C   UNL     1      10.064  14.044  18.807  0.00  0.00    +0.000 A 
ATOM     25  C   UNL     1      10.939  14.220  17.750  0.00  0.00    +0.000 A 
ATOM     26  C   UNL     1      11.421  13.085  17.103  0.00  0.00    +0.000 A 
ATOM     27  C   UNL     1      10.799  11.837  17.323  0.00  0.00    +0.000 A 
ATOM     28  C   UNL     1       9.806  11.668  18.344  0.00  0.00    +0.000 A 
ENDBRANCH  18  19
ENDBRANCH  17  18
ENDBRANCH   2  17
TORSDOF 6
ENDMDL
MODEL 8
REMARK VINA RESULT:      -7.6      1.817      8.230
REMARK  Name = 
REMARK  10 active torsions:
REMARK  status: ('A' for Active; 'I' for Inactive)
REMARK    1  A    between atoms: C_1  and  C_2
REMARK    2  A    between atoms: C_2  and  C_3
REMARK    3  A    between atoms: C_2  and  C_4
REMARK    4  A    between atoms: C_8  and  C_9
REMARK    5  A    between atoms: C_9  and  C_10
REMARK    6  A    between atoms: C_9  and  C_11
REMARK    7  A    between atoms: C_12  and  N_13
REMARK    8  A    between atoms: C_14  and  C_16
REMARK    9  A    between atoms: C_16  and  O_17
REMARK   10  A    between atoms: O_17  and  C_18
REMARK                            x       y       z     vdW  Elec       q    Type
REMARK                         _______ _______ _______ _____ _____    ______ ____
ROOT
ATOM      1  N   UNL     1      -0.461  10.444  19.064  0.00  0.00    +0.000 N 
ATOM      2  C   UNL     1       0.877  10.789  18.765  0.00  0.00    +0.000 C 
ATOM      3  O   UNL     1       1.268  11.957  18.663  0.00  0.00    +0.000 OA
ATOM      4  H   UNL     1      -0.707   9.495  18.871  0.00  0.00    +0.000 HD
ENDROOT
BRANCH   1  10
ATOM      5  C   UNL     1      -1.655  11.900  20.793  0.00  0.00    +0.000 A 
ATOM      6  C   UNL     1      -2.827  12.635  21.159  0.00  0.00    +0.000 A 
ATOM      7  C   UNL     1      -3.911  12.766  20.329  0.00  0.00    +0.000 A 
ATOM      8  C   UNL     1      -3.822  12.226  19.065  0.00  0.00    +0.000 A 
ATOM      9  C   UNL     1      -2.671  11.514  18.610  0.00  0.00    +0.000 A 
ATOM     10  C   UNL     1      -1.556  11.309  19.492  0.00  0.00    +0.000 A 
BRANCH   5  12
ATOM     11  C   UNL     1      -0.792  13.008  22.852  0.00  0.00    +0.000 C 
ATOM     12  C   UNL     1      -0.604  11.816  21.899  0.00  0.00    +0.000 C 
ATOM     13  C   UNL     1      -0.654  10.516  22.726  0.00  0.00    +0.000 C 
ENDBRANCH   5  12
BRANCH   9  14
ATOM     14  C   UNL     1      -2.850  11.115  17.142  0.00  0.00    +0.000 C 
ATOM     15  C   UNL     1      -2.381   9.743  16.679  0.00  0.00    +0.000 C 
ATOM     16  C   UNL     1      -4.262  11.457  16.660  0.00  0.00    +0.000 C 
ENDBRANCH   9  14
ENDBRANCH   1  10
BRANCH   2  17
ATOM     17  C   UNL     1       1.868   9.627  18.205  0.00  0.00    +0.000 C 
BRANCH  17  18
ATOM     18  O   UNL     1       1.862   8.283  17.721  0.00  0.00    +0.000 OA
BRANCH  18  19
ATOM     19  C   UNL     1       2.778   7.365  18.200  0.00  0.00    +0.000 A 
ATOM     20  N   UNL     1       3.930   7.306  17.480  0.00  0.00    +0.000 NA
ATOM     21  N   UNL     1       4.413   6.097  17.193  0.00  0.00    +0.000 NA
ATOM     22  C   UNL     1       3.643   5.010  17.415  0.00  0.00    +0.000 A 
ATOM     23  C   UNL     1       2.480   5.024  18.186  0.00  0.00    +0.000 A 
ATOM     24  C   UNL     1       1.789   3.842  18.486  0.00  0.00    +0.000 A 
ATOM     25  C   UNL     1       1.293   3.680  19.767  0.00  0.00    +0.000 A 
ATOM     26  C   UNL     1       1.471   4.720  20.675  0.00  0.00    +0.000 A 
ATOM     27  C   UNL     1       1.865   5.994  20.212  0.00  0.00    +0.000 A 
ATOM     28  C   UNL     1       2.277   6.199  18.853  0.00  0.00    +0.000 A 
ENDBRANCH  18  19
ENDBRANCH  17  18
ENDBRANCH   2  17
TORSDOF 6
ENDMDL
MODEL 9
REMARK VINA RESULT:      -7.6      1.970      7.695
REMARK  Name = 
REMARK  10 active torsions:
REMARK  status: ('A' for Active; 'I' for Inactive)
REMARK    1  A    between atoms: C_1  and  C_2
REMARK    2  A    between atoms: C_2  and  C_3
REMARK    3  A    between atoms: C_2  and  C_4
REMARK    4  A    between atoms: C_8  and  C_9
REMARK    5  A    between atoms: C_9  and  C_10
REMARK    6  A    between atoms: C_9  and  C_11
REMARK    7  A    between atoms: C_12  and  N_13
REMARK    8  A    between atoms: C_14  and  C_16
REMARK    9  A    between atoms: C_16  and  O_17
REMARK   10  A    between atoms: O_17  and  C_18
REMARK                            x       y       z     vdW  Elec       q    Type
REMARK                         _______ _______ _______ _____ _____    ______ ____
ROOT
ATOM      1  N   UNL     1       1.072  10.889  20.069  0.00  0.00    +0.000 N 
ATOM      2  C   UNL     1       0.781  10.284  18.825  0.00  0.00    +0.000 C 
ATOM      3  O   UNL     1      -0.366  10.014  18.456  0.00  0.00    +0.000 OA
ATOM      4  H   UNL     1       2.027  10.827  20.358  0.00  0.00    +0.000 HD
ENDROOT
BRANCH   1  10
ATOM      5  C   UNL     1      -0.360  10.785  22.183  0.00  0.00    +0.000 A 
ATOM      6  C   UNL     1      -1.350  11.404  23.011  0.00  0.00    +0.000 A 
ATOM      7  C   UNL     1      -1.885  12.636  22.733  0.00  0.00    +0.000 A 
ATOM      8  C   UNL     1      -1.383  13.326  21.652  0.00  0.00    +0.000 A 
ATOM      9  C   UNL     1      -0.367  12.794  20.801  0.00  0.00    +0.000 A 
ATOM     10  C   UNL     1       0.153  11.477  21.039  0.00  0.00    +0.000 A 
BRANCH   5  12
ATOM     11  C   UNL     1      -0.610   8.355  21.688  0.00  0.00    +0.000 C 
ATOM     12  C   UNL     1       0.035   9.379  22.636  0.00  0.00    +0.000 C 
ATOM     13  C   UNL     1       1.556   9.127  22.667  0.00  0.00    +0.000 C 
ENDBRANCH   5  12
BRANCH   9  14
ATOM     14  C   UNL     1       0.029  13.832  19.748  0.00  0.00    +0.000 C 
ATOM     15  C   UNL     1      -0.424  13.643  18.307  0.00  0.00    +0.000 C 
ATOM     16  C   UNL     1      -0.218  15.250  20.269  0.00  0.00    +0.000 C 
ENDBRANCH   9  14
ENDBRANCH   1  10
BRANCH   2  17
ATOM     17  C   UNL     1       2.004   9.614  17.987  0.00  0.00    +0.000 C 
BRANCH  17  18
ATOM     18  O   UNL     1       2.358   8.429  17.271  0.00  0.00    +0.000 OA
BRANCH  18  19
ATOM     19  C   UNL     1       3.171   7.476  17.858  0.00  0.00    +0.000 A 
ATOM     20  N   UNL     1       4.284   7.179  17.136  0.00  0.00    +0.000 NA
ATOM     21  N   UNL     1       4.608   5.893  17.010  0.00  0.00    +0.000 NA
ATOM     22  C   UNL     1       3.720   4.948  17.389  0.00  0.00    +0.000 A 
ATOM     23  C   UNL     1       2.592   5.210  18.168  0.00  0.00    +0.000 A 
ATOM     24  C   UNL     1       1.772   4.174  18.637  0.00  0.00    +0.000 A 
ATOM     25  C   UNL     1       1.301   4.248  19.935  0.00  0.00    +0.000 A 
ATOM     26  C   UNL     1       1.632   5.370  20.690  0.00  0.00    +0.000 A 
ATOM     27  C   UNL     1       2.162   6.512  20.051  0.00  0.00    +0.000 A 
ATOM     28  C   UNL     1       2.553   6.480  18.671  0.00  0.00    +0.000 A 
ENDBRANCH  18  19
ENDBRANCH  17  18
ENDBRANCH   2  17
TORSDOF 6
ENDMDL
