MODEL 1
REMARK VINA RESULT:      -8.6      0.000      0.000
REMARK  Name = 
REMARK  8 active torsions:
REMARK  status: ('A' for Active; 'I' for Inactive)
REMARK    1  A    between atoms: C_1  and  O_2
REMARK    2  A    between atoms: O_2  and  C_3
REMARK    3  A    between atoms: N_9  and  C_10
REMARK    4  A    between atoms: C_10  and  C_11
REMARK    5  A    between atoms: C_11  and  N_12
REMARK    6  A    between atoms: C_15  and  N_16
REMARK    7  A    between atoms: N_16  and  C_17
REMARK    8  A    between atoms: C_17  and  C_18
REMARK                            x       y       z     vdW  Elec       q    Type
REMARK                         _______ _______ _______ _____ _____    ______ ____
ROOT
ATOM      1  N   UNL     1       1.417   6.891  20.136  0.00  0.00    +0.000 NA
ATOM      2  C   UNL     1       2.485   6.973  19.126  0.00  0.00    +0.000 C 
ATOM      3  C   UNL     1       2.525   5.736  18.227  0.00  0.00    +0.000 C 
ATOM      4  C   UNL     1       2.672   4.437  19.028  0.00  0.00    +0.000 C 
ATOM      5  C   UNL     1       1.542   4.414  20.068  0.00  0.00    +0.000 C 
ATOM      6  C   UNL     1       1.545   5.669  20.948  0.00  0.00    +0.000 C 
ENDROOT
BRANCH   4   7
ATOM      7  N   UNL     1       4.031   4.343  19.599  0.00  0.00    +0.000 NA
ATOM      8  H   UNL     1       3.978   4.066  20.580  0.00  0.00    +0.000 HD
BRANCH   7   9
ATOM      9  C   UNL     1       4.869   3.363  18.894  0.00  0.00    +0.000 C 
BRANCH   9  10
ATOM     10  C   UNL     1       5.641   3.973  17.738  0.00  0.00    +0.000 A 
ATOM     11  C   UNL     1       6.463   5.074  17.945  0.00  0.00    +0.000 A 
ATOM     12  C   UNL     1       7.155   5.619  16.864  0.00  0.00    +0.000 A 
ATOM     13  C   UNL     1       6.999   5.044  15.604  0.00  0.00    +0.000 A 
ATOM     14  C   UNL     1       6.125   3.963  15.481  0.00  0.00    +0.000 A 
ATOM     15  N   UNL     1       5.462   3.410  16.513  0.00  0.00    +0.000 NA
ATOM     16  N   UNL     1       5.853   3.456  14.219  0.00  0.00    +0.000 N 
ATOM     17  C   UNL     1       6.480   3.927  13.103  0.00  0.00    +0.000 C 
ATOM     18  O   UNL     1       6.145   3.600  11.971  0.00  0.00    +0.000 OA
ATOM     19  C   UNL     1       7.696   4.811  13.399  0.00  0.00    +0.000 C 
ATOM     20  O   UNL     1       7.653   5.632  14.561  0.00  0.00    +0.000 OA
ATOM     21  H   UNL     1       5.106   2.782  14.131  0.00  0.00    +0.000 HD
ENDBRANCH   9  10
ENDBRANCH   7   9
ENDBRANCH   4   7
BRANCH   1  22
ATOM     22  C   UNL     1       1.373   8.094  21.005  0.00  0.00    +0.000 C 
BRANCH  22  23
ATOM     23  C   UNL     1      -0.046   8.406  21.529  0.00  0.00    +0.000 C 
BRANCH  23  30
ATOM     24  C   UNL     1      -1.439  10.878  18.238  0.00  0.00    +0.000 A 
ATOM     25  C   UNL     1      -1.966  12.134  18.518  0.00  0.00    +0.000 A 
ATOM     26  C   UNL     1      -1.945  12.615  19.823  0.00  0.00    +0.000 A 
ATOM     27  C   UNL     1      -1.394  11.845  20.857  0.00  0.00    +0.000 A 
ATOM     28  C   UNL     1      -0.901  10.569  20.601  0.00  0.00    +0.000 A 
ATOM     29  C   UNL     1      -0.947  10.086  19.282  0.00  0.00    +0.000 A 
ATOM     30  N   UNL     1      -0.359   9.829  21.681  0.00  0.00    +0.000 N 
ATOM     31  C   UNL     1      -0.197  10.366  22.958  0.00  0.00    +0.000 C 
ATOM     32  O   UNL     1       0.412   9.782  23.851  0.00  0.00    +0.000 OA
ATOM     33  O   UNL     1      -0.768  11.566  23.231  0.00  0.00    +0.000 OA
ATOM     34  C   UNL     1      -1.345  12.406  22.236  0.00  0.00    +0.000 C 
BRANCH  24  36
ATOM     35  C   UNL     1      -2.635  10.230  16.317  0.00  0.00    +0.000 C 
ATOM     36  O   UNL     1      -1.379  10.324  16.988  0.00  0.00    +0.000 OA
ENDBRANCH  24  36
ENDBRANCH  23  30
ENDBRANCH  22  23
ENDBRANCH   1  22
TORSDOF 7
ENDMDL
MODEL 2
REMARK VINA RESULT:      -8.3      3.355     10.940
REMARK  Name = 
REMARK  8 active torsions:
REMARK  status: ('A' for Active; 'I' for Inactive)
REMARK    1  A    between atoms: C_1  and  O_2
REMARK    2  A    between atoms: O_2  and  C_3
REMARK    3  A    between atoms: N_9  and  C_10
REMARK    4  A    between atoms: C_10  and  C_11
REMARK    5  A    between atoms: C_11  and  N_12
REMARK    6  A    between atoms: C_15  and  N_16
REMARK    7  A    between atoms: N_16  and  C_17
REMARK    8  A    between atoms: C_17  and  C_18
REMARK                            x       y       z     vdW  Elec       q    Type
REMARK                         _______ _______ _______ _____ _____    ______ ____
ROOT
ATOM      1  N   UNL     1       1.982   8.321  19.777  0.00  0.00    +0.000 NA
ATOM      2  C   UNL     1       1.609   9.058  18.558  0.00  0.00    +0.000 C 
ATOM      3  C   UNL     1       1.390  10.548  18.830  0.00  0.00    +0.000 C 
ATOM      4  C   UNL     1       0.342  10.794  19.922  0.00  0.00    +0.000 C 
ATOM      5  C   UNL     1       0.779   9.994  21.159  0.00  0.00    +0.000 C 
ATOM      6  C   UNL     1       0.981   8.508  20.840  0.00  0.00    +0.000 C 
ENDROOT
BRANCH   4   7
ATOM      7  N   UNL     1      -1.005  10.457  19.420  0.00  0.00    +0.000 NA
ATOM      8  H   UNL     1      -1.707  10.689  20.122  0.00  0.00    +0.000 HD
BRANCH   7   9
ATOM      9  C   UNL     1      -1.340  11.182  18.185  0.00  0.00    +0.000 C 
BRANCH   9  10
ATOM     10  C   UNL     1      -2.830  11.433  18.038  0.00  0.00    +0.000 A 
ATOM     11  C   UNL     1      -3.471  11.173  16.832  0.00  0.00    +0.000 A 
ATOM     12  C   UNL     1      -4.838  11.419  16.722  0.00  0.00    +0.000 A 
ATOM     13  C   UNL     1      -5.524  11.924  17.826  0.00  0.00    +0.000 A 
ATOM     14  C   UNL     1      -4.793  12.190  18.986  0.00  0.00    +0.000 A 
ATOM     15  N   UNL     1      -3.478  11.942  19.119  0.00  0.00    +0.000 NA
ATOM     16  N   UNL     1      -5.425  12.811  20.052  0.00  0.00    +0.000 N 
ATOM     17  C   UNL     1      -6.759  13.093  20.035  0.00  0.00    +0.000 C 
ATOM     18  O   UNL     1      -7.301  13.774  20.898  0.00  0.00    +0.000 OA
ATOM     19  C   UNL     1      -7.527  12.399  18.905  0.00  0.00    +0.000 C 
ATOM     20  O   UNL     1      -6.851  12.198  17.669  0.00  0.00    +0.000 OA
ATOM     21  H   UNL     1      -4.851  13.135  20.817  0.00  0.00    +0.000 HD
ENDBRANCH   9  10
ENDBRANCH   7   9
ENDBRANCH   4   7
BRANCH   1  22
ATOM     22  C   UNL     1       2.201   6.877  19.513  0.00  0.00    +0.000 C 
BRANCH  22  23
ATOM     23  C   UNL     1       2.266   6.544  18.005  0.00  0.00    +0.000 C 
BRANCH  23  30
ATOM     24  C   UNL     1       6.513   6.694  17.102  0.00  0.00    +0.000 A 
ATOM     25  C   UNL     1       7.231   5.505  17.049  0.00  0.00    +0.000 A 
ATOM     26  C   UNL     1       6.564   4.291  17.184  0.00  0.00    +0.000 A 
ATOM     27  C   UNL     1       5.175   4.259  17.369  0.00  0.00    +0.000 A 
ATOM     28  C   UNL     1       4.449   5.441  17.467  0.00  0.00    +0.000 A 
ATOM     29  C   UNL     1       5.136   6.661  17.350  0.00  0.00    +0.000 A 
ATOM     30  N   UNL     1       3.046   5.355  17.659  0.00  0.00    +0.000 N 
ATOM     31  C   UNL     1       2.356   4.143  17.641  0.00  0.00    +0.000 C 
ATOM     32  O   UNL     1       1.129   4.079  17.652  0.00  0.00    +0.000 OA
ATOM     33  O   UNL     1       3.073   2.991  17.649  0.00  0.00    +0.000 OA
ATOM     34  C   UNL     1       4.484   2.943  17.465  0.00  0.00    +0.000 C 
BRANCH  24  36
ATOM     35  C   UNL     1       8.046   8.280  17.925  0.00  0.00    +0.000 C 
ATOM     36  O   UNL     1       7.063   7.938  16.949  0.00  0.00    +0.000 OA
ENDBRANCH  24  36
ENDBRANCH  23  30
ENDBRANCH  22  23
ENDBRANCH   1  22
TORSDOF 7
ENDMDL
MODEL 3
REMARK VINA RESULT:      -8.3      1.627      2.064
REMARK  Name = 
REMARK  8 active torsions:
REMARK  status: ('A' for Active; 'I' for Inactive)
REMARK    1  A    between atoms: C_1  and  O_2
REMARK    2  A    between atoms: O_2  and  C_3
REMARK    3  A    between atoms: N_9  and  C_10
REMARK    4  A    between atoms: C_10  and  C_11
REMARK    5  A    between atoms: C_11  and  N_12
REMARK    6  A    between atoms: C_15  and  N_16
REMARK    7  A    between atoms: N_16  and  C_17
REMARK    8  A    between atoms: C_17  and  C_18
REMARK                            x       y       z     vdW  Elec       q    Type
REMARK                         _______ _______ _______ _____ _____    ______ ____
ROOT
ATOM      1  N   UNL     1       1.397   8.330  19.513  0.00  0.00    +0.000 NA
ATOM      2  C   UNL     1       2.373   7.994  18.463  0.00  0.00    +0.000 C 
ATOM      3  C   UNL     1       2.373   6.500  18.133  0.00  0.00    +0.000 C 
ATOM      4  C   UNL     1       2.626   5.629  19.369  0.00  0.00    +0.000 C 
ATOM      5  C   UNL     1       1.589   6.032  20.429  0.00  0.00    +0.000 C 
ATOM      6  C   UNL     1       1.630   7.534  20.730  0.00  0.00    +0.000 C 
ENDROOT
BRANCH   4   7
ATOM      7  N   UNL     1       4.030   5.762  19.806  0.00  0.00    +0.000 NA
ATOM      8  H   UNL     1       4.073   5.837  20.823  0.00  0.00    +0.000 HD
BRANCH   7   9
ATOM      9  C   UNL     1       4.855   4.615  19.399  0.00  0.00    +0.000 C 
BRANCH   9  10
ATOM     10  C   UNL     1       5.628   4.872  18.119  0.00  0.00    +0.000 A 
ATOM     11  C   UNL     1       6.649   5.815  18.091  0.00  0.00    +0.000 A 
ATOM     12  C   UNL     1       7.338   6.036  16.899  0.00  0.00    +0.000 A 
ATOM     13  C   UNL     1       6.980   5.305  15.768  0.00  0.00    +0.000 A 
ATOM     14  C   UNL     1       5.919   4.405  15.877  0.00  0.00    +0.000 A 
ATOM     15  N   UNL     1       5.253   4.163  17.020  0.00  0.00    +0.000 NA
ATOM     16  N   UNL     1       5.459   3.763  14.738  0.00  0.00    +0.000 N 
ATOM     17  C   UNL     1       6.069   3.918  13.527  0.00  0.00    +0.000 C 
ATOM     18  O   UNL     1       5.590   3.482  12.486  0.00  0.00    +0.000 OA
ATOM     19  C   UNL     1       7.443   4.590  13.605  0.00  0.00    +0.000 C 
ATOM     20  O   UNL     1       7.643   5.581  14.607  0.00  0.00    +0.000 OA
ATOM     21  H   UNL     1       4.599   3.238  14.805  0.00  0.00    +0.000 HD
ENDBRANCH   9  10
ENDBRANCH   7   9
ENDBRANCH   4   7
BRANCH   1  22
ATOM     22  C   UNL     1       1.392   9.780  19.829  0.00  0.00    +0.000 C 
BRANCH  22  23
ATOM     23  C   UNL     1       0.824  10.644  18.681  0.00  0.00    +0.000 C 
BRANCH  23  30
ATOM     24  C   UNL     1      -2.831  10.383  16.346  0.00  0.00    +0.000 A 
ATOM     25  C   UNL     1      -4.002  10.920  16.868  0.00  0.00    +0.000 A 
ATOM     26  C   UNL     1      -3.964  11.615  18.073  0.00  0.00    +0.000 A 
ATOM     27  C   UNL     1      -2.754  11.781  18.761  0.00  0.00    +0.000 A 
ATOM     28  C   UNL     1      -1.581  11.213  18.273  0.00  0.00    +0.000 A 
ATOM     29  C   UNL     1      -1.636  10.495  17.065  0.00  0.00    +0.000 A 
ATOM     30  N   UNL     1      -0.384  11.405  19.008  0.00  0.00    +0.000 N 
ATOM     31  C   UNL     1      -0.313  12.227  20.132  0.00  0.00    +0.000 C 
ATOM     32  O   UNL     1       0.750  12.517  20.676  0.00  0.00    +0.000 OA
ATOM     33  O   UNL     1      -1.470  12.695  20.665  0.00  0.00    +0.000 OA
ATOM     34  C   UNL     1      -2.737  12.568  20.025  0.00  0.00    +0.000 C 
BRANCH  24  36
ATOM     35  C   UNL     1      -3.855   9.919  14.278  0.00  0.00    +0.000 C 
ATOM     36  O   UNL     1      -2.750   9.711  15.156  0.00  0.00    +0.000 OA
ENDBRANCH  24  36
ENDBRANCH  23  30
ENDBRANCH  22  23
ENDBRANCH   1  22
TORSDOF 7
ENDMDL
MODEL 4
REMARK VINA RESULT:      -8.2      2.877     10.786
REMARK  Name = 
REMARK  8 active torsions:
REMARK  status: ('A' for Active; 'I' for Inactive)
REMARK    1  A    between atoms: C_1  and  O_2
REMARK    2  A    between atoms: O_2  and  C_3
REMARK    3  A    between atoms: N_9  and  C_10
REMARK    4  A    between atoms: C_10  and  C_11
REMARK    5  A    between atoms: C_11  and  N_12
REMARK    6  A    between atoms: C_15  and  N_16
REMARK    7  A    between atoms: N_16  and  C_17
REMARK    8  A    between atoms: C_17  and  C_18
REMARK                            x       y       z     vdW  Elec       q    Type
REMARK                         _______ _______ _______ _____ _____    ______ ____
ROOT
ATOM      1  N   UNL     1       1.532   8.449  18.594  0.00  0.00    +0.000 NA
ATOM      2  C   UNL     1       1.823   8.286  20.029  0.00  0.00    +0.000 C 
ATOM      3  C   UNL     1       0.599   8.573  20.902  0.00  0.00    +0.000 C 
ATOM      4  C   UNL     1       0.016   9.968  20.649  0.00  0.00    +0.000 C 
ATOM      5  C   UNL     1      -0.256  10.080  19.141  0.00  0.00    +0.000 C 
ATOM      6  C   UNL     1       0.999   9.791  18.308  0.00  0.00    +0.000 C 
ENDROOT
BRANCH   4   7
ATOM      7  N   UNL     1       0.922  11.002  21.186  0.00  0.00    +0.000 NA
ATOM      8  H   UNL     1       1.797  11.007  20.661  0.00  0.00    +0.000 HD
BRANCH   7   9
ATOM      9  C   UNL     1       0.340  12.351  21.110  0.00  0.00    +0.000 C 
BRANCH   9  10
ATOM     10  C   UNL     1      -1.082  12.408  21.635  0.00  0.00    +0.000 A 
ATOM     11  C   UNL     1      -1.354  12.096  22.962  0.00  0.00    +0.000 A 
ATOM     12  C   UNL     1      -2.671  12.150  23.416  0.00  0.00    +0.000 A 
ATOM     13  C   UNL     1      -3.679  12.513  22.524  0.00  0.00    +0.000 A 
ATOM     14  C   UNL     1      -3.319  12.775  21.201  0.00  0.00    +0.000 A 
ATOM     15  N   UNL     1      -2.054  12.747  20.746  0.00  0.00    +0.000 NA
ATOM     16  N   UNL     1      -4.315  13.012  20.266  0.00  0.00    +0.000 N 
ATOM     17  C   UNL     1      -5.632  13.081  20.618  0.00  0.00    +0.000 C 
ATOM     18  O   UNL     1      -6.534  13.137  19.789  0.00  0.00    +0.000 OA
ATOM     19  C   UNL     1      -5.868  13.186  22.128  0.00  0.00    +0.000 C 
ATOM     20  O   UNL     1      -4.962  12.509  22.991  0.00  0.00    +0.000 OA
ATOM     21  H   UNL     1      -4.051  13.045  19.292  0.00  0.00    +0.000 HD
ENDBRANCH   9  10
ENDBRANCH   7   9
ENDBRANCH   4   7
BRANCH   1  22
ATOM     22  C   UNL     1       2.717   8.165  17.747  0.00  0.00    +0.000 C 
BRANCH  22  23
ATOM     23  C   UNL     1       3.771   7.289  18.461  0.00  0.00    +0.000 C 
BRANCH  23  30
ATOM     24  C   UNL     1       1.710   3.545  19.244  0.00  0.00    +0.000 A 
ATOM     25  C   UNL     1       1.904   2.477  18.376  0.00  0.00    +0.000 A 
ATOM     26  C   UNL     1       2.824   2.591  17.338  0.00  0.00    +0.000 A 
ATOM     27  C   UNL     1       3.559   3.772  17.165  0.00  0.00    +0.000 A 
ATOM     28  C   UNL     1       3.346   4.864  18.000  0.00  0.00    +0.000 A 
ATOM     29  C   UNL     1       2.398   4.745  19.031  0.00  0.00    +0.000 A 
ATOM     30  N   UNL     1       4.111   6.038  17.780  0.00  0.00    +0.000 N 
ATOM     31  C   UNL     1       5.139   6.102  16.840  0.00  0.00    +0.000 C 
ATOM     32  O   UNL     1       5.902   7.063  16.757  0.00  0.00    +0.000 OA
ATOM     33  O   UNL     1       5.278   5.078  15.962  0.00  0.00    +0.000 OA
ATOM     34  C   UNL     1       4.569   3.847  16.073  0.00  0.00    +0.000 C 
BRANCH  24  36
ATOM     35  C   UNL     1       1.381   2.909  21.487  0.00  0.00    +0.000 C 
ATOM     36  O   UNL     1       0.856   3.528  20.314  0.00  0.00    +0.000 OA
ENDBRANCH  24  36
ENDBRANCH  23  30
ENDBRANCH  22  23
ENDBRANCH   1  22
TORSDOF 7
ENDMDL
MODEL 5
REMARK VINA RESULT:      -8.2      3.405     10.651
REMARK  Name = 
REMARK  8 active torsions:
REMARK  status: ('A' for Active; 'I' for Inactive)
REMARK    1  A    between atoms: C_1  and  O_2
REMARK    2  A    between atoms: O_2  and  C_3
REMARK    3  A    between atoms: N_9  and  C_10
REMARK    4  A    between atoms: C_10  and  C_11
REMARK    5  A    between atoms: C_11  and  N_12
REMARK    6  A    between atoms: C_15  and  N_16
REMARK    7  A    between atoms: N_16  and  C_17
REMARK    8  A    between atoms: C_17  and  C_18
REMARK                            x       y       z     vdW  Elec       q    Type
REMARK                         _______ _______ _______ _____ _____    ______ ____
ROOT
ATOM      1  N   UNL     1       1.786   8.155  19.942  0.00  0.00    +0.000 NA
ATOM      2  C   UNL     1       1.690   8.342  18.485  0.00  0.00    +0.000 C 
ATOM      3  C   UNL     1       1.892   9.803  18.076  0.00  0.00    +0.000 C 
ATOM      4  C   UNL     1       0.912  10.748  18.783  0.00  0.00    +0.000 C 
ATOM      5  C   UNL     1       1.051  10.499  20.292  0.00  0.00    +0.000 C 
ATOM      6  C   UNL     1       0.835   9.025  20.654  0.00  0.00    +0.000 C 
ENDROOT
BRANCH   4   7
ATOM      7  N   UNL     1      -0.452  10.553  18.254  0.00  0.00    +0.000 NA
ATOM      8  H   UNL     1      -1.006  10.003  18.911  0.00  0.00    +0.000 HD
BRANCH   7   9
ATOM      9  C   UNL     1      -1.152  11.827  18.025  0.00  0.00    +0.000 C 
BRANCH   9  10
ATOM     10  C   UNL     1      -2.662  11.679  18.046  0.00  0.00    +0.000 A 
ATOM     11  C   UNL     1      -3.338  11.208  16.925  0.00  0.00    +0.000 A 
ATOM     12  C   UNL     1      -4.726  11.089  16.970  0.00  0.00    +0.000 A 
ATOM     13  C   UNL     1      -5.397  11.450  18.137  0.00  0.00    +0.000 A 
ATOM     14  C   UNL     1      -4.642  11.947  19.200  0.00  0.00    +0.000 A 
ATOM     15  N   UNL     1      -3.302  12.053  19.186  0.00  0.00    +0.000 NA
ATOM     16  N   UNL     1      -5.296  12.433  20.322  0.00  0.00    +0.000 N 
ATOM     17  C   UNL     1      -6.652  12.361  20.454  0.00  0.00    +0.000 C 
ATOM     18  O   UNL     1      -7.257  12.918  21.362  0.00  0.00    +0.000 OA
ATOM     19  C   UNL     1      -7.328  11.442  19.431  0.00  0.00    +0.000 C 
ATOM     20  O   UNL     1      -6.760  11.366  18.129  0.00  0.00    +0.000 OA
ATOM     21  H   UNL     1      -4.749  12.929  21.011  0.00  0.00    +0.000 HD
ENDBRANCH   9  10
ENDBRANCH   7   9
ENDBRANCH   4   7
BRANCH   1  22
ATOM     22  C   UNL     1       1.596   6.738  20.339  0.00  0.00    +0.000 C 
BRANCH  22  23
ATOM     23  C   UNL     1       2.872   5.886  20.156  0.00  0.00    +0.000 C 
BRANCH  23  30
ATOM     24  C   UNL     1       5.606   6.194  16.793  0.00  0.00    +0.000 A 
ATOM     25  C   UNL     1       5.699   5.130  15.904  0.00  0.00    +0.000 A 
ATOM     26  C   UNL     1       4.851   4.036  16.046  0.00  0.00    +0.000 A 
ATOM     27  C   UNL     1       3.901   4.002  17.076  0.00  0.00    +0.000 A 
ATOM     28  C   UNL     1       3.823   5.040  18.000  0.00  0.00    +0.000 A 
ATOM     29  C   UNL     1       4.700   6.130  17.858  0.00  0.00    +0.000 A 
ATOM     30  N   UNL     1       2.849   4.956  19.026  0.00  0.00    +0.000 N 
ATOM     31  C   UNL     1       1.898   3.937  19.081  0.00  0.00    +0.000 C 
ATOM     32  O   UNL     1       0.960   3.948  19.875  0.00  0.00    +0.000 OA
ATOM     33  O   UNL     1       2.037   2.877  18.246  0.00  0.00    +0.000 OA
ATOM     34  C   UNL     1       2.976   2.838  17.175  0.00  0.00    +0.000 C 
BRANCH  24  36
ATOM     35  C   UNL     1       7.532   7.317  17.548  0.00  0.00    +0.000 C 
ATOM     36  O   UNL     1       6.367   7.330  16.725  0.00  0.00    +0.000 OA
ENDBRANCH  24  36
ENDBRANCH  23  30
ENDBRANCH  22  23
ENDBRANCH   1  22
TORSDOF 7
ENDMDL
MODEL 6
REMARK VINA RESULT:      -8.1      1.944      3.585
REMARK  Name = 
REMARK  8 active torsions:
REMARK  status: ('A' for Active; 'I' for Inactive)
REMARK    1  A    between atoms: C_1  and  O_2
REMARK    2  A    between atoms: O_2  and  C_3
REMARK    3  A    between atoms: N_9  and  C_10
REMARK    4  A    between atoms: C_10  and  C_11
REMARK    5  A    between atoms: C_11  and  N_12
REMARK    6  A    between atoms: C_15  and  N_16
REMARK    7  A    between atoms: N_16  and  C_17
REMARK    8  A    between atoms: C_17  and  C_18
REMARK                            x       y       z     vdW  Elec       q    Type
REMARK                         _______ _______ _______ _____ _____    ______ ____
ROOT
ATOM      1  N   UNL     1       1.407   4.182  20.491  0.00  0.00    +0.000 NA
ATOM      2  C   UNL     1       1.066   3.585  19.189  0.00  0.00    +0.000 C 
ATOM      3  C   UNL     1       1.525   2.129  19.084  0.00  0.00    +0.000 C 
ATOM      4  C   UNL     1       3.028   1.971  19.345  0.00  0.00    +0.000 C 
ATOM      5  C   UNL     1       3.323   2.620  20.706  0.00  0.00    +0.000 C 
ATOM      6  C   UNL     1       2.851   4.078  20.762  0.00  0.00    +0.000 C 
ENDROOT
BRANCH   4   7
ATOM      7  N   UNL     1       3.801   2.533  18.219  0.00  0.00    +0.000 NA
ATOM      8  H   UNL     1       3.167   2.928  17.524  0.00  0.00    +0.000 HD
BRANCH   7   9
ATOM      9  C   UNL     1       4.725   3.594  18.648  0.00  0.00    +0.000 C 
BRANCH   9  10
ATOM     10  C   UNL     1       5.545   4.156  17.501  0.00  0.00    +0.000 A 
ATOM     11  C   UNL     1       6.357   5.268  17.697  0.00  0.00    +0.000 A 
ATOM     12  C   UNL     1       7.094   5.768  16.625  0.00  0.00    +0.000 A 
ATOM     13  C   UNL     1       6.993   5.140  15.385  0.00  0.00    +0.000 A 
ATOM     14  C   UNL     1       6.126   4.052  15.270  0.00  0.00    +0.000 A 
ATOM     15  N   UNL     1       5.420   3.542  16.295  0.00  0.00    +0.000 NA
ATOM     16  N   UNL     1       5.909   3.492  14.020  0.00  0.00    +0.000 N 
ATOM     17  C   UNL     1       6.584   3.917  12.913  0.00  0.00    +0.000 C 
ATOM     18  O   UNL     1       6.298   3.541  11.782  0.00  0.00    +0.000 OA
ATOM     19  C   UNL     1       7.785   4.816  13.224  0.00  0.00    +0.000 C 
ATOM     20  O   UNL     1       7.692   5.685  14.346  0.00  0.00    +0.000 OA
ATOM     21  H   UNL     1       5.167   2.813  13.929  0.00  0.00    +0.000 HD
ENDBRANCH   9  10
ENDBRANCH   7   9
ENDBRANCH   4   7
BRANCH   1  22
ATOM     22  C   UNL     1       0.956   5.592  20.595  0.00  0.00    +0.000 C 
BRANCH  22  23
ATOM     23  C   UNL     1       2.118   6.605  20.493  0.00  0.00    +0.000 C 
BRANCH  23  30
ATOM     24  C   UNL     1       0.499  10.491  21.568  0.00  0.00    +0.000 A 
ATOM     25  C   UNL     1       0.599  11.536  20.657  0.00  0.00    +0.000 A 
ATOM     26  C   UNL     1       1.119  11.297  19.389  0.00  0.00    +0.000 A 
ATOM     27  C   UNL     1       1.538  10.011  19.023  0.00  0.00    +0.000 A 
ATOM     28  C   UNL     1       1.485   8.964  19.938  0.00  0.00    +0.000 A 
ATOM     29  C   UNL     1       0.977   9.222  21.222  0.00  0.00    +0.000 A 
ATOM     30  N   UNL     1       1.926   7.682  19.520  0.00  0.00    +0.000 N 
ATOM     31  C   UNL     1       2.303   7.406  18.206  0.00  0.00    +0.000 C 
ATOM     32  O   UNL     1       2.536   6.267  17.809  0.00  0.00    +0.000 OA
ATOM     33  O   UNL     1       2.453   8.444  17.345  0.00  0.00    +0.000 OA
ATOM     34  C   UNL     1       2.049   9.777  17.643  0.00  0.00    +0.000 C 
BRANCH  24  36
ATOM     35  C   UNL     1      -0.398   9.373  23.436  0.00  0.00    +0.000 C 
ATOM     36  O   UNL     1      -0.026  10.608  22.828  0.00  0.00    +0.000 OA
ENDBRANCH  24  36
ENDBRANCH  23  30
ENDBRANCH  22  23
ENDBRANCH   1  22
TORSDOF 7
ENDMDL
MODEL 7
REMARK VINA RESULT:      -8.1      3.727      5.931
REMARK  Name = 
REMARK  8 active torsions:
REMARK  status: ('A' for Active; 'I' for Inactive)
REMARK    1  A    between atoms: C_1  and  O_2
REMARK    2  A    between atoms: O_2  and  C_3
REMARK    3  A    between atoms: N_9  and  C_10
REMARK    4  A    between atoms: C_10  and  C_11
REMARK    5  A    between atoms: C_11  and  N_12
REMARK    6  A    between atoms: C_15  and  N_16
REMARK    7  A    between atoms: N_16  and  C_17
REMARK    8  A    between atoms: C_17  and  C_18
REMARK                            x       y       z     vdW  Elec       q    Type
REMARK                         _______ _______ _______ _____ _____    ______ ____
ROOT
ATOM      1  N   UNL     1      -1.041  11.477  22.823  0.00  0.00    +0.000 NA
ATOM      2  C   UNL     1      -0.865  10.032  23.047  0.00  0.00    +0.000 C 
ATOM      3  C   UNL     1       0.593   9.598  22.889  0.00  0.00    +0.000 C 
ATOM      4  C   UNL     1       1.172   9.982  21.522  0.00  0.00    +0.000 C 
ATOM      5  C   UNL     1       0.950  11.491  21.342  0.00  0.00    +0.000 C 
ATOM      6  C   UNL     1      -0.525  11.878  21.504  0.00  0.00    +0.000 C 
ENDROOT
BRANCH   4   7
ATOM      7  N   UNL     1       0.572   9.145  20.464  0.00  0.00    +0.000 NA
ATOM      8  H   UNL     1      -0.289   9.574  20.126  0.00  0.00    +0.000 HD
BRANCH   7   9
ATOM      9  C   UNL     1       1.472   8.966  19.314  0.00  0.00    +0.000 C 
BRANCH   9  10
ATOM     10  C   UNL     1       2.028   7.557  19.217  0.00  0.00    +0.000 A 
ATOM     11  C   UNL     1       2.715   7.150  18.078  0.00  0.00    +0.000 A 
ATOM     12  C   UNL     1       3.209   5.848  18.013  0.00  0.00    +0.000 A 
ATOM     13  C   UNL     1       2.996   4.990  19.091  0.00  0.00    +0.000 A 
ATOM     14  C   UNL     1       2.265   5.472  20.177  0.00  0.00    +0.000 A 
ATOM     15  N   UNL     1       1.795   6.729  20.270  0.00  0.00    +0.000 NA
ATOM     16  N   UNL     1       1.929   4.602  21.203  0.00  0.00    +0.000 N 
ATOM     17  C   UNL     1       2.366   3.309  21.224  0.00  0.00    +0.000 C 
ATOM     18  O   UNL     1       1.957   2.488  22.037  0.00  0.00    +0.000 OA
ATOM     19  C   UNL     1       3.478   3.013  20.213  0.00  0.00    +0.000 C 
ATOM     20  O   UNL     1       3.452   3.709  18.973  0.00  0.00    +0.000 OA
ATOM     21  H   UNL     1       1.272   4.923  21.900  0.00  0.00    +0.000 HD
ENDBRANCH   9  10
ENDBRANCH   7   9
ENDBRANCH   4   7
BRANCH   1  22
ATOM     22  C   UNL     1      -2.455  11.900  22.982  0.00  0.00    +0.000 C 
BRANCH  22  23
ATOM     23  C   UNL     1      -2.872  12.995  21.975  0.00  0.00    +0.000 C 
BRANCH  23  30
ATOM     24  C   UNL     1      -3.703  11.512  17.977  0.00  0.00    +0.000 A 
ATOM     25  C   UNL     1      -5.009  11.172  17.644  0.00  0.00    +0.000 A 
ATOM     26  C   UNL     1      -6.035  11.405  18.555  0.00  0.00    +0.000 A 
ATOM     27  C   UNL     1      -5.762  11.984  19.802  0.00  0.00    +0.000 A 
ATOM     28  C   UNL     1      -4.454  12.291  20.166  0.00  0.00    +0.000 A 
ATOM     29  C   UNL     1      -3.424  12.031  19.246  0.00  0.00    +0.000 A 
ATOM     30  N   UNL     1      -4.230  12.870  21.441  0.00  0.00    +0.000 N 
ATOM     31  C   UNL     1      -5.269  13.245  22.292  0.00  0.00    +0.000 C 
ATOM     32  O   UNL     1      -5.082  13.886  23.324  0.00  0.00    +0.000 OA
ATOM     33  O   UNL     1      -6.531  12.854  21.983  0.00  0.00    +0.000 OA
ATOM     34  C   UNL     1      -6.887  12.263  20.737  0.00  0.00    +0.000 C 
BRANCH  24  36
ATOM     35  C   UNL     1      -1.579  10.543  17.673  0.00  0.00    +0.000 C 
ATOM     36  O   UNL     1      -2.626  11.356  17.146  0.00  0.00    +0.000 OA
ENDBRANCH  24  36
ENDBRANCH  23  30
ENDBRANCH  22  23
ENDBRANCH   1  22
TORSDOF 7
ENDMDL
MODEL 8
REMARK VINA RESULT:      -8.0      3.024     10.852
REMARK  Name = 
REMARK  8 active torsions:
REMARK  status: ('A' for Active; 'I' for Inactive)
REMARK    1  A    between atoms: C_1  and  O_2
REMARK    2  A    between atoms: O_2  and  C_3
REMARK    3  A    between atoms: N_9  and  C_10
REMARK    4  A    between atoms: C_10  and  C_11
REMARK    5  A    between atoms: C_11  and  N_12
REMARK    6  A    between atoms: C_15  and  N_16
REMARK    7  A    between atoms: N_16  and  C_17
REMARK    8  A    between atoms: C_17  and  C_18
REMARK                            x       y       z     vdW  Elec       q    Type
REMARK                         _______ _______ _______ _____ _____    ______ ____
ROOT
ATOM      1  N   UNL     1       1.275   8.213  19.772  0.00  0.00    +0.000 NA
ATOM      2  C   UNL     1       1.315   8.385  21.234  0.00  0.00    +0.000 C 
ATOM      3  C   UNL     1       0.039   9.037  21.772  0.00  0.00    +0.000 C 
ATOM      4  C   UNL     1      -0.255  10.385  21.103  0.00  0.00    +0.000 C 
ATOM      5  C   UNL     1      -0.273  10.144  19.586  0.00  0.00    +0.000 C 
ATOM      6  C   UNL     1       1.026   9.496  19.092  0.00  0.00    +0.000 C 
ENDROOT
BRANCH   4   7
ATOM      7  N   UNL     1       0.721  11.398  21.550  0.00  0.00    +0.000 NA
ATOM      8  H   UNL     1       1.509  11.432  20.903  0.00  0.00    +0.000 HD
BRANCH   7   9
ATOM      9  C   UNL     1       0.136  12.745  21.625  0.00  0.00    +0.000 C 
BRANCH   9  10
ATOM     10  C   UNL     1      -1.359  12.723  21.882  0.00  0.00    +0.000 A 
ATOM     11  C   UNL     1      -1.852  12.350  23.128  0.00  0.00    +0.000 A 
ATOM     12  C   UNL     1      -3.231  12.331  23.335  0.00  0.00    +0.000 A 
ATOM     13  C   UNL     1      -4.076  12.686  22.285  0.00  0.00    +0.000 A 
ATOM     14  C   UNL     1      -3.495  13.012  21.058  0.00  0.00    +0.000 A 
ATOM     15  N   UNL     1      -2.169  13.054  20.841  0.00  0.00    +0.000 NA
ATOM     16  N   UNL     1      -4.316  13.241  19.964  0.00  0.00    +0.000 N 
ATOM     17  C   UNL     1      -5.676  13.242  20.071  0.00  0.00    +0.000 C 
ATOM     18  O   UNL     1      -6.414  13.292  19.093  0.00  0.00    +0.000 OA
ATOM     19  C   UNL     1      -6.186  13.281  21.514  0.00  0.00    +0.000 C 
ATOM     20  O   UNL     1      -5.420  12.610  22.508  0.00  0.00    +0.000 OA
ATOM     21  H   UNL     1      -3.881  13.322  19.056  0.00  0.00    +0.000 HD
ENDBRANCH   9  10
ENDBRANCH   7   9
ENDBRANCH   4   7
BRANCH   1  22
ATOM     22  C   UNL     1       2.509   7.575  19.249  0.00  0.00    +0.000 C 
BRANCH  22  23
ATOM     23  C   UNL     1       2.767   6.178  19.857  0.00  0.00    +0.000 C 
BRANCH  23  30
ATOM     24  C   UNL     1       5.783   6.047  16.732  0.00  0.00    +0.000 A 
ATOM     25  C   UNL     1       5.976   4.860  16.034  0.00  0.00    +0.000 A 
ATOM     26  C   UNL     1       5.139   3.775  16.275  0.00  0.00    +0.000 A 
ATOM     27  C   UNL     1       4.102   3.871  17.213  0.00  0.00    +0.000 A 
ATOM     28  C   UNL     1       3.923   5.038  17.950  0.00  0.00    +0.000 A 
ATOM     29  C   UNL     1       4.788   6.119  17.713  0.00  0.00    +0.000 A 
ATOM     30  N   UNL     1       2.862   5.083  18.891  0.00  0.00    +0.000 N 
ATOM     31  C   UNL     1       1.930   4.054  19.025  0.00  0.00    +0.000 C 
ATOM     32  O   UNL     1       0.925   4.158  19.725  0.00  0.00    +0.000 OA
ATOM     33  O   UNL     1       2.163   2.882  18.384  0.00  0.00    +0.000 OA
ATOM     34  C   UNL     1       3.194   2.707  17.417  0.00  0.00    +0.000 C 
BRANCH  24  36
ATOM     35  C   UNL     1       7.549   7.388  17.523  0.00  0.00    +0.000 C 
ATOM     36  O   UNL     1       6.526   7.182  16.550  0.00  0.00    +0.000 OA
ENDBRANCH  24  36
ENDBRANCH  23  30
ENDBRANCH  22  23
ENDBRANCH   1  22
TORSDOF 7
ENDMDL
MODEL 9
REMARK VINA RESULT:      -8.0      3.452      5.477
REMARK  Name = 
REMARK  8 active torsions:
REMARK  status: ('A' for Active; 'I' for Inactive)
REMARK    1  A    between atoms: C_1  and  O_2
REMARK    2  A    between atoms: O_2  and  C_3
REMARK    3  A    between atoms: N_9  and  C_10
REMARK    4  A    between atoms: C_10  and  C_11
REMARK    5  A    between atoms: C_11  and  N_12
REMARK    6  A    between atoms: C_15  and  N_16
REMARK    7  A    between atoms: N_16  and  C_17
REMARK    8  A    between atoms: C_17  and  C_18
REMARK                            x       y       z     vdW  Elec       q    Type
REMARK                         _______ _______ _______ _____ _____    ______ ____
ROOT
ATOM      1  N   UNL     1      -0.320  11.510  20.068  0.00  0.00    +0.000 NA
ATOM      2  C   UNL     1       1.148  11.526  19.950  0.00  0.00    +0.000 C 
ATOM      3  C   UNL     1       1.614  11.217  18.526  0.00  0.00    +0.000 C 
ATOM      4  C   UNL     1       1.070   9.880  18.010  0.00  0.00    +0.000 C 
ATOM      5  C   UNL     1      -0.458   9.920  18.169  0.00  0.00    +0.000 C 
ATOM      6  C   UNL     1      -0.878  10.226  19.611  0.00  0.00    +0.000 C 
ENDROOT
BRANCH   4   7
ATOM      7  N   UNL     1       1.728   8.759  18.710  0.00  0.00    +0.000 NA
ATOM      8  H   UNL     1       1.045   8.034  18.928  0.00  0.00    +0.000 HD
BRANCH   7   9
ATOM      9  C   UNL     1       2.798   8.148  17.907  0.00  0.00    +0.000 C 
BRANCH   9  10
ATOM     10  C   UNL     1       3.092   6.715  18.313  0.00  0.00    +0.000 A 
ATOM     11  C   UNL     1       3.907   5.913  17.522  0.00  0.00    +0.000 A 
ATOM     12  C   UNL     1       4.155   4.599  17.915  0.00  0.00    +0.000 A 
ATOM     13  C   UNL     1       3.574   4.125  19.090  0.00  0.00    +0.000 A 
ATOM     14  C   UNL     1       2.740   4.988  19.803  0.00  0.00    +0.000 A 
ATOM     15  N   UNL     1       2.502   6.264  19.453  0.00  0.00    +0.000 NA
ATOM     16  N   UNL     1       2.048   4.502  20.902  0.00  0.00    +0.000 N 
ATOM     17  C   UNL     1       2.225   3.229  21.360  0.00  0.00    +0.000 C 
ATOM     18  O   UNL     1       1.516   2.736  22.230  0.00  0.00    +0.000 OA
ATOM     19  C   UNL     1       3.444   2.518  20.764  0.00  0.00    +0.000 C 
ATOM     20  O   UNL     1       3.799   2.820  19.420  0.00  0.00    +0.000 OA
ATOM     21  H   UNL     1       1.336   5.090  21.311  0.00  0.00    +0.000 HD
ENDBRANCH   9  10
ENDBRANCH   7   9
ENDBRANCH   4   7
BRANCH   1  22
ATOM     22  C   UNL     1      -0.774  11.816  21.448  0.00  0.00    +0.000 C 
BRANCH  22  23
ATOM     23  C   UNL     1      -1.357  13.240  21.588  0.00  0.00    +0.000 C 
BRANCH  23  30
ATOM     24  C   UNL     1      -5.043  12.365  19.461  0.00  0.00    +0.000 A 
ATOM     25  C   UNL     1      -6.216  12.199  20.188  0.00  0.00    +0.000 A 
ATOM     26  C   UNL     1      -6.210  12.414  21.563  0.00  0.00    +0.000 A 
ATOM     27  C   UNL     1      -5.032  12.801  22.218  0.00  0.00    +0.000 A 
ATOM     28  C   UNL     1      -3.841  12.929  21.510  0.00  0.00    +0.000 A 
ATOM     29  C   UNL     1      -3.855  12.688  20.125  0.00  0.00    +0.000 A 
ATOM     30  N   UNL     1      -2.676  13.318  22.219  0.00  0.00    +0.000 N 
ATOM     31  C   UNL     1      -2.699  13.682  23.565  0.00  0.00    +0.000 C 
ATOM     32  O   UNL     1      -1.725  14.165  24.138  0.00  0.00    +0.000 OA
ATOM     33  O   UNL     1      -3.833  13.459  24.276  0.00  0.00    +0.000 OA
ATOM     34  C   UNL     1      -5.068  13.068  23.683  0.00  0.00    +0.000 C 
BRANCH  24  36
ATOM     35  C   UNL     1      -6.159  12.432  17.389  0.00  0.00    +0.000 C 
ATOM     36  O   UNL     1      -4.945  12.210  18.104  0.00  0.00    +0.000 OA
ENDBRANCH  24  36
ENDBRANCH  23  30
ENDBRANCH  22  23
ENDBRANCH   1  22
TORSDOF 7
ENDMDL
