MODEL 1
REMARK VINA RESULT:      -8.1      0.000      0.000
REMARK  Name = 
REMARK  8 active torsions:
REMARK  status: ('A' for Active; 'I' for Inactive)
REMARK    1  A    between atoms: C_1  and  C_2
REMARK    2  A    between atoms: C_2  and  C_3
REMARK    3  A    between atoms: C_4  and  C_5
REMARK    4  A    between atoms: C_5  and  C_6
REMARK    5  A    between atoms: C_7  and  C_8
REMARK    6  A    between atoms: C_7  and  C_9
REMARK    7  A    between atoms: C_12  and  C_13
REMARK    8  A    between atoms: C_23  and  O_24
REMARK                            x       y       z     vdW  Elec       q    Type
REMARK                         _______ _______ _______ _____ _____    ______ ____
ROOT
ATOM      1  C   UNL     1       5.888   4.416  16.995  0.00  0.00    +0.000 C 
ATOM      2  C   UNL     1       6.307   4.593  18.458  0.00  0.00    +0.000 C 
ATOM      3  C   UNL     1       5.351   3.655  19.201  0.00  0.00    +0.000 C 
ATOM      4  C   UNL     1       4.076   3.575  18.318  0.00  0.00    +0.000 C 
ATOM      5  C   UNL     1       3.891   2.128  17.814  0.00  0.00    +0.000 C 
ATOM      6  O   UNL     1       2.907   3.835  19.097  0.00  0.00    +0.000 OA
ATOM      7  C   UNL     1       2.516   5.137  19.305  0.00  0.00    +0.000 C 
ATOM      8  C   UNL     1       2.935   6.146  18.528  0.00  0.00    +0.000 C 
ATOM      9  C   UNL     1       3.827   5.959  17.342  0.00  0.00    +0.000 C 
ATOM     10  C   UNL     1       4.339   4.521  17.115  0.00  0.00    +0.000 C 
ATOM     11  C   UNL     1       2.516   7.538  18.861  0.00  0.00    +0.000 C 
ATOM     12  O   UNL     1       2.743   8.458  18.077  0.00  0.00    +0.000 OA
ATOM     13  C   UNL     1       1.910   7.808  20.219  0.00  0.00    +0.000 C 
ATOM     14  C   UNL     1       0.995   6.690  20.687  0.00  0.00    +0.000 C 
ATOM     15  C   UNL     1       1.558   5.289  20.467  0.00  0.00    +0.000 C 
ENDROOT
BRANCH   1  17
ATOM     16  C   UNL     1       6.698   4.778  14.550  0.00  0.00    +0.000 C 
ATOM     17  C   UNL     1       6.562   5.146  15.838  0.00  0.00    +0.000 C 
ATOM     18  C   UNL     1       7.026   6.544  16.221  0.00  0.00    +0.000 C 
BRANCH  16  19
ATOM     19  C   UNL     1       6.157   3.582  13.829  0.00  0.00    +0.000 C 
BRANCH  19  23
ATOM     20  C   UNL     1       3.733   3.424  10.802  0.00  0.00    +0.000 C 
ATOM     21  C   UNL     1       4.859   3.127  11.751  0.00  0.00    +0.000 C 
ATOM     22  C   UNL     1       5.736   1.942  11.423  0.00  0.00    +0.000 C 
ATOM     23  C   UNL     1       5.066   3.879  12.845  0.00  0.00    +0.000 C 
ENDBRANCH  19  23
ENDBRANCH  16  19
ENDBRANCH   1  17
BRANCH  15  24
ATOM     24  O   UNL     1       2.185   4.877  21.682  0.00  0.00    +0.000 OA
ATOM     25  H   UNL     1       2.836   4.189  21.470  0.00  0.00    +0.000 HD
ENDBRANCH  15  24
TORSDOF 4
ENDMDL
MODEL 2
REMARK VINA RESULT:      -7.7      3.175      6.396
REMARK  Name = 
REMARK  8 active torsions:
REMARK  status: ('A' for Active; 'I' for Inactive)
REMARK    1  A    between atoms: C_1  and  C_2
REMARK    2  A    between atoms: C_2  and  C_3
REMARK    3  A    between atoms: C_4  and  C_5
REMARK    4  A    between atoms: C_5  and  C_6
REMARK    5  A    between atoms: C_7  and  C_8
REMARK    6  A    between atoms: C_7  and  C_9
REMARK    7  A    between atoms: C_12  and  C_13
REMARK    8  A    between atoms: C_23  and  O_24
REMARK                            x       y       z     vdW  Elec       q    Type
REMARK                         _______ _______ _______ _____ _____    ______ ____
ROOT
ATOM      1  C   UNL     1       6.383   6.773  17.676  0.00  0.00    +0.000 C 
ATOM      2  C   UNL     1       6.135   5.885  16.453  0.00  0.00    +0.000 C 
ATOM      3  C   UNL     1       4.649   6.116  16.161  0.00  0.00    +0.000 C 
ATOM      4  C   UNL     1       4.009   6.486  17.527  0.00  0.00    +0.000 C 
ATOM      5  C   UNL     1       3.465   7.928  17.465  0.00  0.00    +0.000 C 
ATOM      6  O   UNL     1       2.857   5.679  17.778  0.00  0.00    +0.000 OA
ATOM      7  C   UNL     1       3.020   4.436  18.343  0.00  0.00    +0.000 C 
ATOM      8  C   UNL     1       4.130   4.089  19.009  0.00  0.00    +0.000 C 
ATOM      9  C   UNL     1       5.278   5.019  19.241  0.00  0.00    +0.000 C 
ATOM     10  C   UNL     1       5.160   6.402  18.566  0.00  0.00    +0.000 C 
ATOM     11  C   UNL     1       4.253   2.700  19.537  0.00  0.00    +0.000 C 
ATOM     12  O   UNL     1       5.178   2.403  20.292  0.00  0.00    +0.000 OA
ATOM     13  C   UNL     1       3.288   1.647  19.041  0.00  0.00    +0.000 C 
ATOM     14  C   UNL     1       1.880   2.182  18.854  0.00  0.00    +0.000 C 
ATOM     15  C   UNL     1       1.815   3.539  18.156  0.00  0.00    +0.000 C 
ENDROOT
BRANCH   1  17
ATOM     16  C   UNL     1       8.515   7.989  18.540  0.00  0.00    +0.000 C 
ATOM     17  C   UNL     1       7.743   6.901  18.354  0.00  0.00    +0.000 C 
ATOM     18  C   UNL     1       8.194   5.603  19.007  0.00  0.00    +0.000 C 
BRANCH  16  19
ATOM     19  C   UNL     1       8.244   9.426  18.217  0.00  0.00    +0.000 C 
BRANCH  19  23
ATOM     20  C   UNL     1      11.191  11.794  19.094  0.00  0.00    +0.000 C 
ATOM     21  C   UNL     1       9.945  10.962  19.196  0.00  0.00    +0.000 C 
ATOM     22  C   UNL     1       9.268  10.905  20.546  0.00  0.00    +0.000 C 
ATOM     23  C   UNL     1       9.462  10.294  18.134  0.00  0.00    +0.000 C 
ENDBRANCH  19  23
ENDBRANCH  16  19
ENDBRANCH   1  17
BRANCH  15  24
ATOM     24  O   UNL     1       1.587   3.301  16.767  0.00  0.00    +0.000 OA
ATOM     25  H   UNL     1       0.732   2.852  16.671  0.00  0.00    +0.000 HD
ENDBRANCH  15  24
TORSDOF 4
ENDMDL
MODEL 3
REMARK VINA RESULT:      -7.5      1.745      3.302
REMARK  Name = 
REMARK  8 active torsions:
REMARK  status: ('A' for Active; 'I' for Inactive)
REMARK    1  A    between atoms: C_1  and  C_2
REMARK    2  A    between atoms: C_2  and  C_3
REMARK    3  A    between atoms: C_4  and  C_5
REMARK    4  A    between atoms: C_5  and  C_6
REMARK    5  A    between atoms: C_7  and  C_8
REMARK    6  A    between atoms: C_7  and  C_9
REMARK    7  A    between atoms: C_12  and  C_13
REMARK    8  A    between atoms: C_23  and  O_24
REMARK                            x       y       z     vdW  Elec       q    Type
REMARK                         _______ _______ _______ _____ _____    ______ ____
ROOT
ATOM      1  C   UNL     1       5.026   5.003  16.778  0.00  0.00    +0.000 C 
ATOM      2  C   UNL     1       3.808   4.155  16.398  0.00  0.00    +0.000 C 
ATOM      3  C   UNL     1       2.645   4.929  17.027  0.00  0.00    +0.000 C 
ATOM      4  C   UNL     1       3.254   5.680  18.243  0.00  0.00    +0.000 C 
ATOM      5  C   UNL     1       3.146   7.202  18.012  0.00  0.00    +0.000 C 
ATOM      6  O   UNL     1       2.483   5.440  19.420  0.00  0.00    +0.000 OA
ATOM      7  C   UNL     1       2.731   4.311  20.165  0.00  0.00    +0.000 C 
ATOM      8  C   UNL     1       3.879   3.627  20.072  0.00  0.00    +0.000 C 
ATOM      9  C   UNL     1       5.015   4.036  19.189  0.00  0.00    +0.000 C 
ATOM     10  C   UNL     1       4.748   5.261  18.288  0.00  0.00    +0.000 C 
ATOM     11  C   UNL     1       4.043   2.376  20.868  0.00  0.00    +0.000 C 
ATOM     12  O   UNL     1       5.139   1.821  20.932  0.00  0.00    +0.000 OA
ATOM     13  C   UNL     1       2.820   1.751  21.498  0.00  0.00    +0.000 C 
ATOM     14  C   UNL     1       1.847   2.782  22.042  0.00  0.00    +0.000 C 
ATOM     15  C   UNL     1       1.596   3.959  21.103  0.00  0.00    +0.000 C 
ENDROOT
BRANCH   1  17
ATOM     16  C   UNL     1       6.951   4.364  15.150  0.00  0.00    +0.000 C 
ATOM     17  C   UNL     1       6.451   4.651  16.367  0.00  0.00    +0.000 C 
ATOM     18  C   UNL     1       7.438   4.774  17.518  0.00  0.00    +0.000 C 
BRANCH  16  19
ATOM     19  C   UNL     1       6.286   4.385  13.808  0.00  0.00    +0.000 C 
BRANCH  19  23
ATOM     20  C   UNL     1       6.151   1.640  11.068  0.00  0.00    +0.000 C 
ATOM     21  C   UNL     1       5.779   2.782  11.968  0.00  0.00    +0.000 C 
ATOM     22  C   UNL     1       4.426   3.417  11.744  0.00  0.00    +0.000 C 
ATOM     23  C   UNL     1       6.617   3.222  12.922  0.00  0.00    +0.000 C 
ENDBRANCH  19  23
ENDBRANCH  16  19
ENDBRANCH   1  17
BRANCH  15  24
ATOM     24  O   UNL     1       0.411   3.675  20.359  0.00  0.00    +0.000 OA
ATOM     25  H   UNL     1      -0.235   3.269  20.958  0.00  0.00    +0.000 HD
ENDBRANCH  15  24
TORSDOF 4
ENDMDL
MODEL 4
REMARK VINA RESULT:      -7.0      2.883      5.721
REMARK  Name = 
REMARK  8 active torsions:
REMARK  status: ('A' for Active; 'I' for Inactive)
REMARK    1  A    between atoms: C_1  and  C_2
REMARK    2  A    between atoms: C_2  and  C_3
REMARK    3  A    between atoms: C_4  and  C_5
REMARK    4  A    between atoms: C_5  and  C_6
REMARK    5  A    between atoms: C_7  and  C_8
REMARK    6  A    between atoms: C_7  and  C_9
REMARK    7  A    between atoms: C_12  and  C_13
REMARK    8  A    between atoms: C_23  and  O_24
REMARK                            x       y       z     vdW  Elec       q    Type
REMARK                         _______ _______ _______ _____ _____    ______ ____
ROOT
ATOM      1  C   UNL     1       5.221   6.020  17.398  0.00  0.00    +0.000 C 
ATOM      2  C   UNL     1       4.233   5.102  16.670  0.00  0.00    +0.000 C 
ATOM      3  C   UNL     1       2.874   5.608  17.161  0.00  0.00    +0.000 C 
ATOM      4  C   UNL     1       3.138   6.216  18.566  0.00  0.00    +0.000 C 
ATOM      5  C   UNL     1       2.838   7.729  18.535  0.00  0.00    +0.000 C 
ATOM      6  O   UNL     1       2.219   5.688  19.523  0.00  0.00    +0.000 OA
ATOM      7  C   UNL     1       2.504   4.491  20.137  0.00  0.00    +0.000 C 
ATOM      8  C   UNL     1       3.742   3.980  20.175  0.00  0.00    +0.000 C 
ATOM      9  C   UNL     1       4.938   4.670  19.599  0.00  0.00    +0.000 C 
ATOM     10  C   UNL     1       4.647   5.985  18.845  0.00  0.00    +0.000 C 
ATOM     11  C   UNL     1       3.955   2.645  20.805  0.00  0.00    +0.000 C 
ATOM     12  O   UNL     1       5.095   2.228  21.004  0.00  0.00    +0.000 OA
ATOM     13  C   UNL     1       2.752   1.776  21.087  0.00  0.00    +0.000 C 
ATOM     14  C   UNL     1       1.552   2.572  21.569  0.00  0.00    +0.000 C 
ATOM     15  C   UNL     1       1.290   3.849  20.774  0.00  0.00    +0.000 C 
ENDROOT
BRANCH   1  17
ATOM     16  C   UNL     1       7.672   6.884  17.296  0.00  0.00    +0.000 C 
ATOM     17  C   UNL     1       6.733   5.921  17.230  0.00  0.00    +0.000 C 
ATOM     18  C   UNL     1       7.212   4.484  17.089  0.00  0.00    +0.000 C 
BRANCH  16  19
ATOM     19  C   UNL     1       7.538   8.336  17.640  0.00  0.00    +0.000 C 
BRANCH  19  23
ATOM     20  C   UNL     1       9.919  10.648  19.651  0.00  0.00    +0.000 C 
ATOM     21  C   UNL     1       8.916  10.149  18.651  0.00  0.00    +0.000 C 
ATOM     22  C   UNL     1       8.315  11.173  17.717  0.00  0.00    +0.000 C 
ATOM     23  C   UNL     1       8.565   8.853  18.601  0.00  0.00    +0.000 C 
ENDBRANCH  19  23
ENDBRANCH  16  19
ENDBRANCH   1  17
BRANCH  15  24
ATOM     24  O   UNL     1       0.311   3.547  19.778  0.00  0.00    +0.000 OA
ATOM     25  H   UNL     1       0.627   2.788  19.262  0.00  0.00    +0.000 HD
ENDBRANCH  15  24
TORSDOF 4
ENDMDL
MODEL 5
REMARK VINA RESULT:      -6.9      2.574      6.870
REMARK  Name = 
REMARK  8 active torsions:
REMARK  status: ('A' for Active; 'I' for Inactive)
REMARK    1  A    between atoms: C_1  and  C_2
REMARK    2  A    between atoms: C_2  and  C_3
REMARK    3  A    between atoms: C_4  and  C_5
REMARK    4  A    between atoms: C_5  and  C_6
REMARK    5  A    between atoms: C_7  and  C_8
REMARK    6  A    between atoms: C_7  and  C_9
REMARK    7  A    between atoms: C_12  and  C_13
REMARK    8  A    between atoms: C_23  and  O_24
REMARK                            x       y       z     vdW  Elec       q    Type
REMARK                         _______ _______ _______ _____ _____    ______ ____
ROOT
ATOM      1  C   UNL     1       2.394   4.130  19.366  0.00  0.00    +0.000 C 
ATOM      2  C   UNL     1       1.937   4.749  18.041  0.00  0.00    +0.000 C 
ATOM      3  C   UNL     1       2.337   3.686  17.014  0.00  0.00    +0.000 C 
ATOM      4  C   UNL     1       3.548   2.939  17.637  0.00  0.00    +0.000 C 
ATOM      5  C   UNL     1       3.167   1.465  17.886  0.00  0.00    +0.000 C 
ATOM      6  O   UNL     1       4.632   2.877  16.709  0.00  0.00    +0.000 OA
ATOM      7  C   UNL     1       5.503   3.937  16.625  0.00  0.00    +0.000 C 
ATOM      8  C   UNL     1       5.622   4.849  17.600  0.00  0.00    +0.000 C 
ATOM      9  C   UNL     1       4.861   4.786  18.886  0.00  0.00    +0.000 C 
ATOM     10  C   UNL     1       3.825   3.646  18.990  0.00  0.00    +0.000 C 
ATOM     11  C   UNL     1       6.544   6.005  17.402  0.00  0.00    +0.000 C 
ATOM     12  O   UNL     1       6.800   6.761  18.338  0.00  0.00    +0.000 OA
ATOM     13  C   UNL     1       7.063   6.289  16.012  0.00  0.00    +0.000 C 
ATOM     14  C   UNL     1       7.380   5.024  15.233  0.00  0.00    +0.000 C 
ATOM     15  C   UNL     1       6.313   3.938  15.346  0.00  0.00    +0.000 C 
ENDROOT
BRANCH   1  17
ATOM     16  C   UNL     1       2.047   6.117  21.009  0.00  0.00    +0.000 C 
ATOM     17  C   UNL     1       2.205   4.812  20.716  0.00  0.00    +0.000 C 
ATOM     18  C   UNL     1       2.060   3.816  21.858  0.00  0.00    +0.000 C 
BRANCH  16  19
ATOM     19  C   UNL     1       1.920   7.298  20.096  0.00  0.00    +0.000 C 
BRANCH  19  23
ATOM     20  C   UNL     1       0.066  10.677  20.543  0.00  0.00    +0.000 C 
ATOM     21  C   UNL     1       0.831   9.534  19.942  0.00  0.00    +0.000 C 
ATOM     22  C   UNL     1       1.167   9.633  18.473  0.00  0.00    +0.000 C 
ATOM     23  C   UNL     1       1.190   8.469  20.679  0.00  0.00    +0.000 C 
ENDBRANCH  19  23
ENDBRANCH  16  19
ENDBRANCH   1  17
BRANCH  15  24
ATOM     24  O   UNL     1       5.450   4.059  14.215  0.00  0.00    +0.000 OA
ATOM     25  H   UNL     1       5.996   4.242  13.433  0.00  0.00    +0.000 HD
ENDBRANCH  15  24
TORSDOF 4
ENDMDL
MODEL 6
REMARK VINA RESULT:      -6.7      3.028      5.919
REMARK  Name = 
REMARK  8 active torsions:
REMARK  status: ('A' for Active; 'I' for Inactive)
REMARK    1  A    between atoms: C_1  and  C_2
REMARK    2  A    between atoms: C_2  and  C_3
REMARK    3  A    between atoms: C_4  and  C_5
REMARK    4  A    between atoms: C_5  and  C_6
REMARK    5  A    between atoms: C_7  and  C_8
REMARK    6  A    between atoms: C_7  and  C_9
REMARK    7  A    between atoms: C_12  and  C_13
REMARK    8  A    between atoms: C_23  and  O_24
REMARK                            x       y       z     vdW  Elec       q    Type
REMARK                         _______ _______ _______ _____ _____    ______ ____
ROOT
ATOM      1  C   UNL     1       7.127   5.870  17.690  0.00  0.00    +0.000 C 
ATOM      2  C   UNL     1       7.153   4.351  17.487  0.00  0.00    +0.000 C 
ATOM      3  C   UNL     1       6.148   4.144  16.350  0.00  0.00    +0.000 C 
ATOM      4  C   UNL     1       5.145   5.324  16.460  0.00  0.00    +0.000 C 
ATOM      5  C   UNL     1       5.243   6.200  15.194  0.00  0.00    +0.000 C 
ATOM      6  O   UNL     1       3.800   4.842  16.459  0.00  0.00    +0.000 OA
ATOM      7  C   UNL     1       3.235   4.429  17.642  0.00  0.00    +0.000 C 
ATOM      8  C   UNL     1       3.723   4.793  18.837  0.00  0.00    +0.000 C 
ATOM      9  C   UNL     1       4.893   5.709  19.007  0.00  0.00    +0.000 C 
ATOM     10  C   UNL     1       5.593   6.141  17.700  0.00  0.00    +0.000 C 
ATOM     11  C   UNL     1       3.091   4.249  20.073  0.00  0.00    +0.000 C 
ATOM     12  O   UNL     1       3.405   4.692  21.177  0.00  0.00    +0.000 OA
ATOM     13  C   UNL     1       2.146   3.076  19.949  0.00  0.00    +0.000 C 
ATOM     14  C   UNL     1       1.266   3.158  18.714  0.00  0.00    +0.000 C 
ATOM     15  C   UNL     1       2.011   3.562  17.443  0.00  0.00    +0.000 C 
ENDROOT
BRANCH   1  17
ATOM     16  C   UNL     1       8.344   7.885  18.797  0.00  0.00    +0.000 C 
ATOM     17  C   UNL     1       7.983   6.589  18.726  0.00  0.00    +0.000 C 
ATOM     18  C   UNL     1       8.360   5.693  19.896  0.00  0.00    +0.000 C 
BRANCH  16  19
ATOM     19  C   UNL     1       7.948   9.042  17.931  0.00  0.00    +0.000 C 
BRANCH  19  23
ATOM     20  C   UNL     1      10.744  11.701  18.344  0.00  0.00    +0.000 C 
ATOM     21  C   UNL     1       9.623  10.746  18.638  0.00  0.00    +0.000 C 
ATOM     22  C   UNL     1       9.190  10.623  20.080  0.00  0.00    +0.000 C 
ATOM     23  C   UNL     1       9.042  10.030  17.661  0.00  0.00    +0.000 C 
ENDBRANCH  19  23
ENDBRANCH  16  19
ENDBRANCH   1  17
BRANCH  15  24
ATOM     24  O   UNL     1       2.361   2.365  16.747  0.00  0.00    +0.000 OA
ATOM     25  H   UNL     1       3.106   2.563  16.158  0.00  0.00    +0.000 HD
ENDBRANCH  15  24
TORSDOF 4
ENDMDL
MODEL 7
REMARK VINA RESULT:      -6.7      2.452      4.185
REMARK  Name = 
REMARK  8 active torsions:
REMARK  status: ('A' for Active; 'I' for Inactive)
REMARK    1  A    between atoms: C_1  and  C_2
REMARK    2  A    between atoms: C_2  and  C_3
REMARK    3  A    between atoms: C_4  and  C_5
REMARK    4  A    between atoms: C_5  and  C_6
REMARK    5  A    between atoms: C_7  and  C_8
REMARK    6  A    between atoms: C_7  and  C_9
REMARK    7  A    between atoms: C_12  and  C_13
REMARK    8  A    between atoms: C_23  and  O_24
REMARK                            x       y       z     vdW  Elec       q    Type
REMARK                         _______ _______ _______ _____ _____    ______ ____
ROOT
ATOM      1  C   UNL     1       3.533   4.224  18.417  0.00  0.00    +0.000 C 
ATOM      2  C   UNL     1       4.420   4.945  19.437  0.00  0.00    +0.000 C 
ATOM      3  C   UNL     1       3.519   5.028  20.672  0.00  0.00    +0.000 C 
ATOM      4  C   UNL     1       2.064   5.036  20.127  0.00  0.00    +0.000 C 
ATOM      5  C   UNL     1       1.328   3.770  20.613  0.00  0.00    +0.000 C 
ATOM      6  O   UNL     1       1.323   6.120  20.689  0.00  0.00    +0.000 OA
ATOM      7  C   UNL     1       1.404   7.361  20.104  0.00  0.00    +0.000 C 
ATOM      8  C   UNL     1       1.828   7.536  18.845  0.00  0.00    +0.000 C 
ATOM      9  C   UNL     1       2.212   6.410  17.939  0.00  0.00    +0.000 C 
ATOM     10  C   UNL     1       2.196   5.006  18.581  0.00  0.00    +0.000 C 
ATOM     11  C   UNL     1       1.948   8.922  18.307  0.00  0.00    +0.000 C 
ATOM     12  O   UNL     1       2.171   9.107  17.112  0.00  0.00    +0.000 OA
ATOM     13  C   UNL     1       1.900  10.082  19.275  0.00  0.00    +0.000 C 
ATOM     14  C   UNL     1       0.899   9.871  20.396  0.00  0.00    +0.000 C 
ATOM     15  C   UNL     1       0.942   8.477  21.017  0.00  0.00    +0.000 C 
ENDROOT
BRANCH   1  17
ATOM     16  C   UNL     1       5.198   4.041  16.427  0.00  0.00    +0.000 C 
ATOM     17  C   UNL     1       3.990   3.887  17.002  0.00  0.00    +0.000 C 
ATOM     18  C   UNL     1       2.920   3.160  16.201  0.00  0.00    +0.000 C 
BRANCH  16  19
ATOM     19  C   UNL     1       6.492   4.509  17.018  0.00  0.00    +0.000 C 
BRANCH  19  23
ATOM     20  C   UNL     1       7.731   8.145  17.571  0.00  0.00    +0.000 C 
ATOM     21  C   UNL     1       7.438   6.686  17.776  0.00  0.00    +0.000 C 
ATOM     22  C   UNL     1       7.943   6.060  19.054  0.00  0.00    +0.000 C 
ATOM     23  C   UNL     1       6.765   5.974  16.857  0.00  0.00    +0.000 C 
ENDBRANCH  19  23
ENDBRANCH  16  19
ENDBRANCH   1  17
BRANCH  15  24
ATOM     24  O   UNL     1       1.773   8.543  22.176  0.00  0.00    +0.000 OA
ATOM     25  H   UNL     1       1.988   7.637  22.449  0.00  0.00    +0.000 HD
ENDBRANCH  15  24
TORSDOF 4
ENDMDL
MODEL 8
REMARK VINA RESULT:      -6.7      2.373      4.989
REMARK  Name = 
REMARK  8 active torsions:
REMARK  status: ('A' for Active; 'I' for Inactive)
REMARK    1  A    between atoms: C_1  and  C_2
REMARK    2  A    between atoms: C_2  and  C_3
REMARK    3  A    between atoms: C_4  and  C_5
REMARK    4  A    between atoms: C_5  and  C_6
REMARK    5  A    between atoms: C_7  and  C_8
REMARK    6  A    between atoms: C_7  and  C_9
REMARK    7  A    between atoms: C_12  and  C_13
REMARK    8  A    between atoms: C_23  and  O_24
REMARK                            x       y       z     vdW  Elec       q    Type
REMARK                         _______ _______ _______ _____ _____    ______ ____
ROOT
ATOM      1  C   UNL     1       4.886   4.885  16.875  0.00  0.00    +0.000 C 
ATOM      2  C   UNL     1       3.760   3.935  16.455  0.00  0.00    +0.000 C 
ATOM      3  C   UNL     1       2.508   4.631  16.997  0.00  0.00    +0.000 C 
ATOM      4  C   UNL     1       2.988   5.459  18.220  0.00  0.00    +0.000 C 
ATOM      5  C   UNL     1       2.776   6.961  17.939  0.00  0.00    +0.000 C 
ATOM      6  O   UNL     1       2.172   5.189  19.361  0.00  0.00    +0.000 OA
ATOM      7  C   UNL     1       2.464   4.104  20.152  0.00  0.00    +0.000 C 
ATOM      8  C   UNL     1       3.664   3.508  20.142  0.00  0.00    +0.000 C 
ATOM      9  C   UNL     1       4.813   3.982  19.310  0.00  0.00    +0.000 C 
ATOM     10  C   UNL     1       4.505   5.159  18.359  0.00  0.00    +0.000 C 
ATOM     11  C   UNL     1       3.879   2.296  20.983  0.00  0.00    +0.000 C 
ATOM     12  O   UNL     1       5.009   1.830  21.123  0.00  0.00    +0.000 OA
ATOM     13  C   UNL     1       2.674   1.593  21.564  0.00  0.00    +0.000 C 
ATOM     14  C   UNL     1       1.596   2.559  22.024  0.00  0.00    +0.000 C 
ATOM     15  C   UNL     1       1.308   3.688  21.037  0.00  0.00    +0.000 C 
ENDROOT
BRANCH   1  17
ATOM     16  C   UNL     1       7.459   4.977  17.242  0.00  0.00    +0.000 C 
ATOM     17  C   UNL     1       6.354   4.635  16.552  0.00  0.00    +0.000 C 
ATOM     18  C   UNL     1       6.541   3.759  15.321  0.00  0.00    +0.000 C 
BRANCH  16  19
ATOM     19  C   UNL     1       7.591   5.634  18.581  0.00  0.00    +0.000 C 
BRANCH  19  23
ATOM     20  C   UNL     1       8.481   9.372  18.038  0.00  0.00    +0.000 C 
ATOM     21  C   UNL     1       7.767   8.051  18.002  0.00  0.00    +0.000 C 
ATOM     22  C   UNL     1       6.426   8.017  17.308  0.00  0.00    +0.000 C 
ATOM     23  C   UNL     1       8.299   6.955  18.569  0.00  0.00    +0.000 C 
ENDBRANCH  19  23
ENDBRANCH  16  19
ENDBRANCH   1  17
BRANCH  15  24
ATOM     24  O   UNL     1       0.192   3.293  20.239  0.00  0.00    +0.000 OA
ATOM     25  H   UNL     1       0.035   3.981  19.573  0.00  0.00    +0.000 HD
ENDBRANCH  15  24
TORSDOF 4
ENDMDL
MODEL 9
REMARK VINA RESULT:      -6.6      6.687      9.754
REMARK  Name = 
REMARK  8 active torsions:
REMARK  status: ('A' for Active; 'I' for Inactive)
REMARK    1  A    between atoms: C_1  and  C_2
REMARK    2  A    between atoms: C_2  and  C_3
REMARK    3  A    between atoms: C_4  and  C_5
REMARK    4  A    between atoms: C_5  and  C_6
REMARK    5  A    between atoms: C_7  and  C_8
REMARK    6  A    between atoms: C_7  and  C_9
REMARK    7  A    between atoms: C_12  and  C_13
REMARK    8  A    between atoms: C_23  and  O_24
REMARK                            x       y       z     vdW  Elec       q    Type
REMARK                         _______ _______ _______ _____ _____    ______ ____
ROOT
ATOM      1  C   UNL     1      -1.292  10.815  17.977  0.00  0.00    +0.000 C 
ATOM      2  C   UNL     1      -2.049   9.564  18.435  0.00  0.00    +0.000 C 
ATOM      3  C   UNL     1      -3.240   9.518  17.474  0.00  0.00    +0.000 C 
ATOM      4  C   UNL     1      -3.497  10.992  17.057  0.00  0.00    +0.000 C 
ATOM      5  C   UNL     1      -3.253  11.146  15.541  0.00  0.00    +0.000 C 
ATOM      6  O   UNL     1      -4.872  11.333  17.236  0.00  0.00    +0.000 OA
ATOM      7  C   UNL     1      -5.304  11.750  18.472  0.00  0.00    +0.000 C 
ATOM      8  C   UNL     1      -4.464  12.210  19.410  0.00  0.00    +0.000 C 
ATOM      9  C   UNL     1      -2.991  12.355  19.198  0.00  0.00    +0.000 C 
ATOM     10  C   UNL     1      -2.459  11.836  17.844  0.00  0.00    +0.000 C 
ATOM     11  C   UNL     1      -5.006  12.582  20.748  0.00  0.00    +0.000 C 
ATOM     12  O   UNL     1      -4.293  13.160  21.567  0.00  0.00    +0.000 OA
ATOM     13  C   UNL     1      -6.403  12.137  21.114  0.00  0.00    +0.000 C 
ATOM     14  C   UNL     1      -7.368  12.211  19.944  0.00  0.00    +0.000 C 
ATOM     15  C   UNL     1      -6.806  11.660  18.636  0.00  0.00    +0.000 C 
ENDROOT
BRANCH   1  17
ATOM     16  C   UNL     1       1.030  10.582  19.127  0.00  0.00    +0.000 C 
ATOM     17  C   UNL     1       0.001  11.294  18.628  0.00  0.00    +0.000 C 
ATOM     18  C   UNL     1       0.159  12.806  18.570  0.00  0.00    +0.000 C 
BRANCH  16  19
ATOM     19  C   UNL     1       1.268   9.104  19.123  0.00  0.00    +0.000 C 
BRANCH  19  23
ATOM     20  C   UNL     1       3.944   6.987  17.273  0.00  0.00    +0.000 C 
ATOM     21  C   UNL     1       2.929   7.448  18.279  0.00  0.00    +0.000 C 
ATOM     22  C   UNL     1       2.630   6.513  19.427  0.00  0.00    +0.000 C 
ATOM     23  C   UNL     1       2.312   8.636  18.155  0.00  0.00    +0.000 C 
ENDBRANCH  19  23
ENDBRANCH  16  19
ENDBRANCH   1  17
BRANCH  15  24
ATOM     24  O   UNL     1      -7.236  10.303  18.517  0.00  0.00    +0.000 OA
ATOM     25  H   UNL     1      -8.151  10.301  18.195  0.00  0.00    +0.000 HD
ENDBRANCH  15  24
TORSDOF 4
ENDMDL
