MODEL 1
REMARK VINA RESULT:      -8.3      0.000      0.000
REMARK  Name = 
REMARK  15 active torsions:
REMARK  status: ('A' for Active; 'I' for Inactive)
REMARK    1  A    between atoms: C_1  and  O_2
REMARK    2  A    between atoms: O_2  and  C_3
REMARK    3  A    between atoms: C_3  and  C_5
REMARK    4  A    between atoms: C_5  and  C_6
REMARK    5  A    between atoms: C_6  and  C_7
REMARK    6  A    between atoms: C_6  and  N_15
REMARK    7  A    between atoms: C_10  and  O_11
REMARK    8  A    between atoms: O_11  and  C_12
REMARK    9  A    between atoms: N_15  and  C_16
REMARK   10  A    between atoms: C_17  and  C_19
REMARK   11  A    between atoms: C_19  and  C_20
REMARK   12  A    between atoms: C_20  and  C_21
REMARK   13  A    between atoms: C_21  and  C_22
REMARK   14  A    between atoms: C_22  and  C_23
REMARK   15  A    between atoms: C_28  and  N_29
REMARK                            x       y       z     vdW  Elec       q    Type
REMARK                         _______ _______ _______ _____ _____    ______ ____
ROOT
ATOM      1  N   UNL     1       6.877   5.538  17.331  0.00  0.00    +0.000 N 
ATOM      2  C   UNL     1       7.779   4.669  18.086  0.00  0.00    +0.000 C 
ATOM      3  C   UNL     1       7.050   6.922  17.287  0.00  0.00    +0.000 C 
ATOM      4  O   UNL     1       6.400   7.633  16.521  0.00  0.00    +0.000 OA
ENDROOT
BRANCH   1   5
ATOM      5  C   UNL     1       5.785   4.938  16.513  0.00  0.00    +0.000 C 
BRANCH   5   6
ATOM      6  C   UNL     1       4.615   4.472  17.375  0.00  0.00    +0.000 A 
ATOM      7  C   UNL     1       3.775   3.443  16.932  0.00  0.00    +0.000 A 
ATOM      8  C   UNL     1       2.705   3.025  17.721  0.00  0.00    +0.000 A 
ATOM      9  C   UNL     1       2.498   3.657  18.935  0.00  0.00    +0.000 A 
ATOM     10  N   UNL     1       3.272   4.660  19.394  0.00  0.00    +0.000 NA
ATOM     11  C   UNL     1       4.306   5.036  18.612  0.00  0.00    +0.000 A 
BRANCH   9  12
ATOM     12  O   UNL     1       1.430   3.218  19.692  0.00  0.00    +0.000 OA
ATOM     13  C   UNL     1       0.944   4.218  20.585  0.00  0.00    +0.000 C 
ENDBRANCH   9  12
ENDBRANCH   5   6
BRANCH   5  14
ATOM     14  C   UNL     1       6.365   3.882  15.556  0.00  0.00    +0.000 C 
BRANCH  14  15
ATOM     15  C   UNL     1       6.696   4.473  14.206  0.00  0.00    +0.000 C 
ATOM     16  O   UNL     1       7.594   5.271  13.985  0.00  0.00    +0.000 OA
BRANCH  15  18
ATOM     17  C   UNL     1       6.492   3.470  12.093  0.00  0.00    +0.000 C 
ATOM     18  O   UNL     1       5.846   3.971  13.265  0.00  0.00    +0.000 OA
ENDBRANCH  15  18
ENDBRANCH  14  15
ENDBRANCH   5  14
ENDBRANCH   1   5
BRANCH   3  19
ATOM     19  C   UNL     1       8.111   7.520  18.206  0.00  0.00    +0.000 C 
BRANCH  19  20
ATOM     20  C   UNL     1       8.293   9.031  18.029  0.00  0.00    +0.000 C 
BRANCH  20  21
ATOM     21  C   UNL     1       9.244   9.647  19.070  0.00  0.00    +0.000 C 
BRANCH  21  22
ATOM     22  C   UNL     1       9.480  11.142  18.802  0.00  0.00    +0.000 C 
BRANCH  22  23
ATOM     23  C   UNL     1       9.160  12.042  19.981  0.00  0.00    +0.000 A 
ATOM     24  N   UNL     1       9.119  11.467  21.222  0.00  0.00    +0.000 NA
ATOM     25  C   UNL     1       8.808  12.233  22.306  0.00  0.00    +0.000 A 
ATOM     26  C   UNL     1       8.543  13.587  22.192  0.00  0.00    +0.000 A 
ATOM     27  C   UNL     1       8.589  14.179  20.932  0.00  0.00    +0.000 A 
ATOM     28  C   UNL     1       8.897  13.396  19.827  0.00  0.00    +0.000 A 
ATOM     29  C   UNL     1       8.195  14.439  23.367  0.00  0.00    +0.000 C 
ATOM     30  C   UNL     1       8.186  13.761  24.726  0.00  0.00    +0.000 C 
ATOM     31  C   UNL     1       8.493  12.271  24.787  0.00  0.00    +0.000 C 
ATOM     32  N   UNL     1       8.742  11.613  23.524  0.00  0.00    +0.000 N 
ATOM     33  H   UNL     1       8.982  10.628  23.519  0.00  0.00    +0.000 HD
BRANCH  28  34
ATOM     34  N   UNL     1       8.932  14.053  18.543  0.00  0.00    +0.000 N 
ATOM     35  O   UNL     1      10.017  14.511  18.167  0.00  0.00    +0.000 OA
ATOM     36  O   UNL     1       7.879  14.063  17.896  0.00  0.00    +0.000 OA
ENDBRANCH  28  34
ENDBRANCH  22  23
ENDBRANCH  21  22
ENDBRANCH  20  21
ENDBRANCH  19  20
ENDBRANCH   3  19
TORSDOF 12
ENDMDL
MODEL 2
REMARK VINA RESULT:      -8.0      1.281      1.488
REMARK  Name = 
REMARK  15 active torsions:
REMARK  status: ('A' for Active; 'I' for Inactive)
REMARK    1  A    between atoms: C_1  and  O_2
REMARK    2  A    between atoms: O_2  and  C_3
REMARK    3  A    between atoms: C_3  and  C_5
REMARK    4  A    between atoms: C_5  and  C_6
REMARK    5  A    between atoms: C_6  and  C_7
REMARK    6  A    between atoms: C_6  and  N_15
REMARK    7  A    between atoms: C_10  and  O_11
REMARK    8  A    between atoms: O_11  and  C_12
REMARK    9  A    between atoms: N_15  and  C_16
REMARK   10  A    between atoms: C_17  and  C_19
REMARK   11  A    between atoms: C_19  and  C_20
REMARK   12  A    between atoms: C_20  and  C_21
REMARK   13  A    between atoms: C_21  and  C_22
REMARK   14  A    between atoms: C_22  and  C_23
REMARK   15  A    between atoms: C_28  and  N_29
REMARK                            x       y       z     vdW  Elec       q    Type
REMARK                         _______ _______ _______ _____ _____    ______ ____
ROOT
ATOM      1  N   UNL     1       7.329   6.378  18.218  0.00  0.00    +0.000 N 
ATOM      2  C   UNL     1       8.027   5.806  19.369  0.00  0.00    +0.000 C 
ATOM      3  C   UNL     1       7.623   7.653  17.735  0.00  0.00    +0.000 C 
ATOM      4  O   UNL     1       7.161   8.067  16.672  0.00  0.00    +0.000 OA
ENDROOT
BRANCH   1   5
ATOM      5  C   UNL     1       6.329   5.557  17.477  0.00  0.00    +0.000 C 
BRANCH   5   6
ATOM      6  C   UNL     1       5.176   5.114  18.374  0.00  0.00    +0.000 A 
ATOM      7  C   UNL     1       4.964   3.754  18.633  0.00  0.00    +0.000 A 
ATOM      8  C   UNL     1       3.906   3.354  19.448  0.00  0.00    +0.000 A 
ATOM      9  C   UNL     1       3.080   4.331  19.978  0.00  0.00    +0.000 A 
ATOM     10  N   UNL     1       3.239   5.648  19.744  0.00  0.00    +0.000 NA
ATOM     11  C   UNL     1       4.278   6.004  18.959  0.00  0.00    +0.000 A 
BRANCH   9  12
ATOM     12  O   UNL     1       2.043   3.900  20.782  0.00  0.00    +0.000 OA
ATOM     13  C   UNL     1       1.758   2.514  20.613  0.00  0.00    +0.000 C 
ENDBRANCH   9  12
ENDBRANCH   5   6
BRANCH   5  14
ATOM     14  C   UNL     1       7.040   4.431  16.707  0.00  0.00    +0.000 C 
BRANCH  14  15
ATOM     15  C   UNL     1       6.972   4.645  15.213  0.00  0.00    +0.000 C 
ATOM     16  O   UNL     1       7.638   5.453  14.584  0.00  0.00    +0.000 OA
BRANCH  15  18
ATOM     17  C   UNL     1       6.185   3.615  13.256  0.00  0.00    +0.000 C 
ATOM     18  O   UNL     1       6.059   3.790  14.669  0.00  0.00    +0.000 OA
ENDBRANCH  15  18
ENDBRANCH  14  15
ENDBRANCH   5  14
ENDBRANCH   1   5
BRANCH   3  19
ATOM     19  C   UNL     1       8.576   8.509  18.564  0.00  0.00    +0.000 C 
BRANCH  19  20
ATOM     20  C   UNL     1       8.334  10.014  18.418  0.00  0.00    +0.000 C 
BRANCH  20  21
ATOM     21  C   UNL     1       9.591  10.784  17.978  0.00  0.00    +0.000 C 
BRANCH  21  22
ATOM     22  C   UNL     1      10.594  10.930  19.133  0.00  0.00    +0.000 C 
BRANCH  22  23
ATOM     23  C   UNL     1      10.114  11.824  20.263  0.00  0.00    +0.000 A 
ATOM     24  N   UNL     1       9.398  11.237  21.271  0.00  0.00    +0.000 NA
ATOM     25  C   UNL     1       8.923  12.007  22.291  0.00  0.00    +0.000 A 
ATOM     26  C   UNL     1       9.154  13.371  22.346  0.00  0.00    +0.000 A 
ATOM     27  C   UNL     1       9.887  13.972  21.326  0.00  0.00    +0.000 A 
ATOM     28  C   UNL     1      10.364  13.188  20.282  0.00  0.00    +0.000 A 
ATOM     29  C   UNL     1       8.637  14.229  23.452  0.00  0.00    +0.000 C 
ATOM     30  C   UNL     1       7.869  13.530  24.560  0.00  0.00    +0.000 C 
ATOM     31  C   UNL     1       7.654  12.026  24.446  0.00  0.00    +0.000 C 
ATOM     32  N   UNL     1       8.181  11.389  23.260  0.00  0.00    +0.000 N 
ATOM     33  H   UNL     1       8.089  10.385  23.157  0.00  0.00    +0.000 HD
BRANCH  28  34
ATOM     34  N   UNL     1      11.117  13.855  19.248  0.00  0.00    +0.000 N 
ATOM     35  O   UNL     1      10.496  14.248  18.254  0.00  0.00    +0.000 OA
ATOM     36  O   UNL     1      12.322  14.026  19.463  0.00  0.00    +0.000 OA
ENDBRANCH  28  34
ENDBRANCH  22  23
ENDBRANCH  21  22
ENDBRANCH  20  21
ENDBRANCH  19  20
ENDBRANCH   3  19
TORSDOF 12
ENDMDL
MODEL 3
REMARK VINA RESULT:      -8.0      5.801      8.771
REMARK  Name = 
REMARK  15 active torsions:
REMARK  status: ('A' for Active; 'I' for Inactive)
REMARK    1  A    between atoms: C_1  and  O_2
REMARK    2  A    between atoms: O_2  and  C_3
REMARK    3  A    between atoms: C_3  and  C_5
REMARK    4  A    between atoms: C_5  and  C_6
REMARK    5  A    between atoms: C_6  and  C_7
REMARK    6  A    between atoms: C_6  and  N_15
REMARK    7  A    between atoms: C_10  and  O_11
REMARK    8  A    between atoms: O_11  and  C_12
REMARK    9  A    between atoms: N_15  and  C_16
REMARK   10  A    between atoms: C_17  and  C_19
REMARK   11  A    between atoms: C_19  and  C_20
REMARK   12  A    between atoms: C_20  and  C_21
REMARK   13  A    between atoms: C_21  and  C_22
REMARK   14  A    between atoms: C_22  and  C_23
REMARK   15  A    between atoms: C_28  and  N_29
REMARK                            x       y       z     vdW  Elec       q    Type
REMARK                         _______ _______ _______ _____ _____    ______ ____
ROOT
ATOM      1  N   UNL     1       3.348   4.960  18.166  0.00  0.00    +0.000 N 
ATOM      2  C   UNL     1       2.056   4.506  17.651  0.00  0.00    +0.000 C 
ATOM      3  C   UNL     1       3.495   6.186  18.815  0.00  0.00    +0.000 C 
ATOM      4  O   UNL     1       4.535   6.493  19.395  0.00  0.00    +0.000 OA
ENDROOT
BRANCH   1   5
ATOM      5  C   UNL     1       4.535   4.064  18.077  0.00  0.00    +0.000 C 
BRANCH   5   6
ATOM      6  C   UNL     1       5.426   4.412  16.889  0.00  0.00    +0.000 A 
ATOM      7  C   UNL     1       5.137   3.906  15.615  0.00  0.00    +0.000 A 
ATOM      8  C   UNL     1       5.958   4.222  14.534  0.00  0.00    +0.000 A 
ATOM      9  C   UNL     1       7.056   5.034  14.758  0.00  0.00    +0.000 A 
ATOM     10  N   UNL     1       7.379   5.532  15.968  0.00  0.00    +0.000 NA
ATOM     11  C   UNL     1       6.560   5.215  16.993  0.00  0.00    +0.000 A 
BRANCH   9  12
ATOM     12  O   UNL     1       7.847   5.329  13.666  0.00  0.00    +0.000 OA
ATOM     13  C   UNL     1       7.387   4.702  12.471  0.00  0.00    +0.000 C 
ENDBRANCH   9  12
ENDBRANCH   5   6
BRANCH   5  14
ATOM     14  C   UNL     1       4.091   2.593  18.165  0.00  0.00    +0.000 C 
BRANCH  14  15
ATOM     15  C   UNL     1       3.993   2.122  19.596  0.00  0.00    +0.000 C 
ATOM     16  O   UNL     1       4.932   1.755  20.285  0.00  0.00    +0.000 OA
BRANCH  15  18
ATOM     17  C   UNL     1       2.481   2.978  21.176  0.00  0.00    +0.000 C 
ATOM     18  O   UNL     1       2.694   2.179  20.010  0.00  0.00    +0.000 OA
ENDBRANCH  15  18
ENDBRANCH  14  15
ENDBRANCH   5  14
ENDBRANCH   1   5
BRANCH   3  19
ATOM     19  C   UNL     1       2.292   7.125  18.808  0.00  0.00    +0.000 C 
BRANCH  19  20
ATOM     20  C   UNL     1       2.248   8.057  17.593  0.00  0.00    +0.000 C 
BRANCH  20  21
ATOM     21  C   UNL     1       2.029   9.531  17.975  0.00  0.00    +0.000 C 
BRANCH  21  22
ATOM     22  C   UNL     1       1.185   9.662  19.253  0.00  0.00    +0.000 C 
BRANCH  22  23
ATOM     23  C   UNL     1      -0.194  10.255  19.028  0.00  0.00    +0.000 A 
ATOM     24  N   UNL     1      -0.783  10.043  17.811  0.00  0.00    +0.000 NA
ATOM     25  C   UNL     1      -2.009  10.582  17.557  0.00  0.00    +0.000 A 
ATOM     26  C   UNL     1      -2.689  11.331  18.502  0.00  0.00    +0.000 A 
ATOM     27  C   UNL     1      -2.098  11.544  19.745  0.00  0.00    +0.000 A 
ATOM     28  C   UNL     1      -0.844  11.002  20.000  0.00  0.00    +0.000 A 
ATOM     29  C   UNL     1      -4.029  11.932  18.239  0.00  0.00    +0.000 C 
ATOM     30  C   UNL     1      -4.652  11.649  16.882  0.00  0.00    +0.000 C 
ATOM     31  C   UNL     1      -3.857  10.812  15.888  0.00  0.00    +0.000 C 
ATOM     32  N   UNL     1      -2.546  10.377  16.315  0.00  0.00    +0.000 N 
ATOM     33  H   UNL     1      -1.996   9.792  15.698  0.00  0.00    +0.000 HD
BRANCH  28  34
ATOM     34  N   UNL     1      -0.271  11.251  21.301  0.00  0.00    +0.000 N 
ATOM     35  O   UNL     1       0.719  11.989  21.356  0.00  0.00    +0.000 OA
ATOM     36  O   UNL     1      -0.851  10.743  22.268  0.00  0.00    +0.000 OA
ENDBRANCH  28  34
ENDBRANCH  22  23
ENDBRANCH  21  22
ENDBRANCH  20  21
ENDBRANCH  19  20
ENDBRANCH   3  19
TORSDOF 12
ENDMDL
MODEL 4
REMARK VINA RESULT:      -7.8      2.293      3.502
REMARK  Name = 
REMARK  15 active torsions:
REMARK  status: ('A' for Active; 'I' for Inactive)
REMARK    1  A    between atoms: C_1  and  O_2
REMARK    2  A    between atoms: O_2  and  C_3
REMARK    3  A    between atoms: C_3  and  C_5
REMARK    4  A    between atoms: C_5  and  C_6
REMARK    5  A    between atoms: C_6  and  C_7
REMARK    6  A    between atoms: C_6  and  N_15
REMARK    7  A    between atoms: C_10  and  O_11
REMARK    8  A    between atoms: O_11  and  C_12
REMARK    9  A    between atoms: N_15  and  C_16
REMARK   10  A    between atoms: C_17  and  C_19
REMARK   11  A    between atoms: C_19  and  C_20
REMARK   12  A    between atoms: C_20  and  C_21
REMARK   13  A    between atoms: C_21  and  C_22
REMARK   14  A    between atoms: C_22  and  C_23
REMARK   15  A    between atoms: C_28  and  N_29
REMARK                            x       y       z     vdW  Elec       q    Type
REMARK                         _______ _______ _______ _____ _____    ______ ____
ROOT
ATOM      1  N   UNL     1       5.593   5.967  18.236  0.00  0.00    +0.000 N 
ATOM      2  C   UNL     1       6.230   5.411  19.431  0.00  0.00    +0.000 C 
ATOM      3  C   UNL     1       6.299   6.745  17.318  0.00  0.00    +0.000 C 
ATOM      4  O   UNL     1       5.814   7.069  16.234  0.00  0.00    +0.000 OA
ENDROOT
BRANCH   1   5
ATOM      5  C   UNL     1       4.173   5.634  17.933  0.00  0.00    +0.000 C 
BRANCH   5   6
ATOM      6  C   UNL     1       3.219   6.737  18.383  0.00  0.00    +0.000 A 
ATOM      7  C   UNL     1       2.711   6.745  19.687  0.00  0.00    +0.000 A 
ATOM      8  C   UNL     1       1.835   7.751  20.091  0.00  0.00    +0.000 A 
ATOM      9  C   UNL     1       1.484   8.725  19.171  0.00  0.00    +0.000 A 
ATOM     10  N   UNL     1       1.938   8.748  17.903  0.00  0.00    +0.000 NA
ATOM     11  C   UNL     1       2.791   7.766  17.545  0.00  0.00    +0.000 A 
BRANCH   9  12
ATOM     12  O   UNL     1       0.616   9.708  19.604  0.00  0.00    +0.000 OA
ATOM     13  C   UNL     1       0.580   9.820  21.024  0.00  0.00    +0.000 C 
ENDBRANCH   9  12
ENDBRANCH   5   6
BRANCH   5  14
ATOM     14  C   UNL     1       3.842   4.222  18.446  0.00  0.00    +0.000 C 
BRANCH  14  15
ATOM     15  C   UNL     1       2.466   3.776  18.011  0.00  0.00    +0.000 C 
ATOM     16  O   UNL     1       2.063   3.756  16.858  0.00  0.00    +0.000 OA
BRANCH  15  18
ATOM     17  C   UNL     1       0.865   2.285  18.862  0.00  0.00    +0.000 C 
ATOM     18  O   UNL     1       1.744   3.387  19.100  0.00  0.00    +0.000 OA
ENDBRANCH  15  18
ENDBRANCH  14  15
ENDBRANCH   5  14
ENDBRANCH   1   5
BRANCH   3  19
ATOM     19  C   UNL     1       7.720   7.151  17.697  0.00  0.00    +0.000 C 
BRANCH  19  20
ATOM     20  C   UNL     1       7.955   8.665  17.664  0.00  0.00    +0.000 C 
BRANCH  20  21
ATOM     21  C   UNL     1       8.812   9.165  18.840  0.00  0.00    +0.000 C 
BRANCH  21  22
ATOM     22  C   UNL     1       9.386  10.564  18.561  0.00  0.00    +0.000 C 
BRANCH  22  23
ATOM     23  C   UNL     1       9.214  11.545  19.707  0.00  0.00    +0.000 A 
ATOM     24  N   UNL     1       9.022  11.027  20.959  0.00  0.00    +0.000 NA
ATOM     25  C   UNL     1       8.835  11.871  22.012  0.00  0.00    +0.000 A 
ATOM     26  C   UNL     1       8.846  13.247  21.857  0.00  0.00    +0.000 A 
ATOM     27  C   UNL     1       9.047  13.780  20.587  0.00  0.00    +0.000 A 
ATOM     28  C   UNL     1       9.229  12.918  19.512  0.00  0.00    +0.000 A 
ATOM     29  C   UNL     1       8.638  14.186  22.998  0.00  0.00    +0.000 C 
ATOM     30  C   UNL     1       8.452  13.564  24.372  0.00  0.00    +0.000 C 
ATOM     31  C   UNL     1       8.457  12.044  24.479  0.00  0.00    +0.000 C 
ATOM     32  N   UNL     1       8.610  11.313  23.241  0.00  0.00    +0.000 N 
ATOM     33  H   UNL     1       8.651  10.300  23.268  0.00  0.00    +0.000 HD
BRANCH  28  34
ATOM     34  N   UNL     1       9.433  13.517  18.215  0.00  0.00    +0.000 N 
ATOM     35  O   UNL     1      10.599  13.701  17.849  0.00  0.00    +0.000 OA
ATOM     36  O   UNL     1       8.419  13.755  17.549  0.00  0.00    +0.000 OA
ENDBRANCH  28  34
ENDBRANCH  22  23
ENDBRANCH  21  22
ENDBRANCH  20  21
ENDBRANCH  19  20
ENDBRANCH   3  19
TORSDOF 12
ENDMDL
MODEL 5
REMARK VINA RESULT:      -7.8      5.395     10.232
REMARK  Name = 
REMARK  15 active torsions:
REMARK  status: ('A' for Active; 'I' for Inactive)
REMARK    1  A    between atoms: C_1  and  O_2
REMARK    2  A    between atoms: O_2  and  C_3
REMARK    3  A    between atoms: C_3  and  C_5
REMARK    4  A    between atoms: C_5  and  C_6
REMARK    5  A    between atoms: C_6  and  C_7
REMARK    6  A    between atoms: C_6  and  N_15
REMARK    7  A    between atoms: C_10  and  O_11
REMARK    8  A    between atoms: O_11  and  C_12
REMARK    9  A    between atoms: N_15  and  C_16
REMARK   10  A    between atoms: C_17  and  C_19
REMARK   11  A    between atoms: C_19  and  C_20
REMARK   12  A    between atoms: C_20  and  C_21
REMARK   13  A    between atoms: C_21  and  C_22
REMARK   14  A    between atoms: C_22  and  C_23
REMARK   15  A    between atoms: C_28  and  N_29
REMARK                            x       y       z     vdW  Elec       q    Type
REMARK                         _______ _______ _______ _____ _____    ______ ____
ROOT
ATOM      1  N   UNL     1       1.461   9.432  18.997  0.00  0.00    +0.000 N 
ATOM      2  C   UNL     1       2.150   9.060  17.761  0.00  0.00    +0.000 C 
ATOM      3  C   UNL     1       1.429   8.587  20.107  0.00  0.00    +0.000 C 
ATOM      4  O   UNL     1       1.000   8.964  21.196  0.00  0.00    +0.000 OA
ENDROOT
BRANCH   1   5
ATOM      5  C   UNL     1       0.840  10.781  19.120  0.00  0.00    +0.000 C 
BRANCH   5   6
ATOM      6  C   UNL     1      -0.612  10.787  18.652  0.00  0.00    +0.000 A 
ATOM      7  C   UNL     1      -1.030   9.928  17.627  0.00  0.00    +0.000 A 
ATOM      8  C   UNL     1      -2.356   9.942  17.199  0.00  0.00    +0.000 A 
ATOM      9  C   UNL     1      -3.233  10.824  17.807  0.00  0.00    +0.000 A 
ATOM     10  N   UNL     1      -2.872  11.677  18.785  0.00  0.00    +0.000 NA
ATOM     11  C   UNL     1      -1.583  11.633  19.185  0.00  0.00    +0.000 A 
BRANCH   9  12
ATOM     12  O   UNL     1      -4.539  10.812  17.360  0.00  0.00    +0.000 OA
ATOM     13  C   UNL     1      -5.455  11.308  18.332  0.00  0.00    +0.000 C 
ENDBRANCH   9  12
ENDBRANCH   5   6
BRANCH   5  14
ATOM     14  C   UNL     1       1.749  11.840  18.472  0.00  0.00    +0.000 C 
BRANCH  14  15
ATOM     15  C   UNL     1       2.026  12.989  19.412  0.00  0.00    +0.000 C 
ATOM     16  O   UNL     1       2.642  14.004  19.123  0.00  0.00    +0.000 OA
BRANCH  15  18
ATOM     17  C   UNL     1       1.127  13.894  21.382  0.00  0.00    +0.000 C 
ATOM     18  O   UNL     1       1.475  12.729  20.631  0.00  0.00    +0.000 OA
ENDBRANCH  15  18
ENDBRANCH  14  15
ENDBRANCH   5  14
ENDBRANCH   1   5
BRANCH   3  19
ATOM     19  C   UNL     1       1.985   7.178  19.925  0.00  0.00    +0.000 C 
BRANCH  19  20
ATOM     20  C   UNL     1       1.625   6.224  21.068  0.00  0.00    +0.000 C 
BRANCH  20  21
ATOM     21  C   UNL     1       1.191   4.833  20.575  0.00  0.00    +0.000 C 
BRANCH  21  22
ATOM     22  C   UNL     1       2.360   3.835  20.606  0.00  0.00    +0.000 C 
BRANCH  22  23
ATOM     23  C   UNL     1       3.259   3.895  19.385  0.00  0.00    +0.000 A 
ATOM     24  N   UNL     1       4.581   4.186  19.587  0.00  0.00    +0.000 NA
ATOM     25  C   UNL     1       5.418   4.277  18.515  0.00  0.00    +0.000 A 
ATOM     26  C   UNL     1       4.974   4.071  17.220  0.00  0.00    +0.000 A 
ATOM     27  C   UNL     1       3.630   3.769  17.009  0.00  0.00    +0.000 A 
ATOM     28  C   UNL     1       2.776   3.685  18.102  0.00  0.00    +0.000 A 
ATOM     29  C   UNL     1       5.875   4.172  16.035  0.00  0.00    +0.000 C 
ATOM     30  C   UNL     1       7.339   4.473  16.312  0.00  0.00    +0.000 C 
ATOM     31  C   UNL     1       7.768   4.682  17.758  0.00  0.00    +0.000 C 
ATOM     32  N   UNL     1       6.725   4.605  18.757  0.00  0.00    +0.000 N 
ATOM     33  H   UNL     1       6.969   4.706  19.735  0.00  0.00    +0.000 HD
BRANCH  28  34
ATOM     34  N   UNL     1       1.393   3.370  17.833  0.00  0.00    +0.000 N 
ATOM     35  O   UNL     1       0.736   4.196  17.190  0.00  0.00    +0.000 OA
ATOM     36  O   UNL     1       0.988   2.271  18.228  0.00  0.00    +0.000 OA
ENDBRANCH  28  34
ENDBRANCH  22  23
ENDBRANCH  21  22
ENDBRANCH  20  21
ENDBRANCH  19  20
ENDBRANCH   3  19
TORSDOF 12
ENDMDL
MODEL 6
REMARK VINA RESULT:      -7.7      1.032      1.366
REMARK  Name = 
REMARK  15 active torsions:
REMARK  status: ('A' for Active; 'I' for Inactive)
REMARK    1  A    between atoms: C_1  and  O_2
REMARK    2  A    between atoms: O_2  and  C_3
REMARK    3  A    between atoms: C_3  and  C_5
REMARK    4  A    between atoms: C_5  and  C_6
REMARK    5  A    between atoms: C_6  and  C_7
REMARK    6  A    between atoms: C_6  and  N_15
REMARK    7  A    between atoms: C_10  and  O_11
REMARK    8  A    between atoms: O_11  and  C_12
REMARK    9  A    between atoms: N_15  and  C_16
REMARK   10  A    between atoms: C_17  and  C_19
REMARK   11  A    between atoms: C_19  and  C_20
REMARK   12  A    between atoms: C_20  and  C_21
REMARK   13  A    between atoms: C_21  and  C_22
REMARK   14  A    between atoms: C_22  and  C_23
REMARK   15  A    between atoms: C_28  and  N_29
REMARK                            x       y       z     vdW  Elec       q    Type
REMARK                         _______ _______ _______ _____ _____    ______ ____
ROOT
ATOM      1  N   UNL     1       7.095   6.120  17.779  0.00  0.00    +0.000 N 
ATOM      2  C   UNL     1       7.891   5.343  18.730  0.00  0.00    +0.000 C 
ATOM      3  C   UNL     1       7.321   7.480  17.566  0.00  0.00    +0.000 C 
ATOM      4  O   UNL     1       6.771   8.093  16.651  0.00  0.00    +0.000 OA
ENDROOT
BRANCH   1   5
ATOM      5  C   UNL     1       6.064   5.438  16.947  0.00  0.00    +0.000 C 
BRANCH   5   6
ATOM      6  C   UNL     1       4.827   5.068  17.759  0.00  0.00    +0.000 A 
ATOM      7  C   UNL     1       3.763   5.970  17.880  0.00  0.00    +0.000 A 
ATOM      8  C   UNL     1       2.638   5.630  18.629  0.00  0.00    +0.000 A 
ATOM      9  C   UNL     1       2.610   4.391  19.245  0.00  0.00    +0.000 A 
ATOM     10  N   UNL     1       3.615   3.498  19.168  0.00  0.00    +0.000 NA
ATOM     11  C   UNL     1       4.687   3.853  18.428  0.00  0.00    +0.000 A 
BRANCH   9  12
ATOM     12  O   UNL     1       1.480   4.084  19.978  0.00  0.00    +0.000 OA
ATOM     13  C   UNL     1       1.784   3.689  21.313  0.00  0.00    +0.000 C 
ENDBRANCH   9  12
ENDBRANCH   5   6
BRANCH   5  14
ATOM     14  C   UNL     1       6.706   4.285  16.155  0.00  0.00    +0.000 C 
BRANCH  14  15
ATOM     15  C   UNL     1       6.707   4.559  14.670  0.00  0.00    +0.000 C 
ATOM     16  O   UNL     1       5.862   4.168  13.879  0.00  0.00    +0.000 OA
BRANCH  15  18
ATOM     17  C   UNL     1       8.006   5.471  12.939  0.00  0.00    +0.000 C 
ATOM     18  O   UNL     1       7.791   5.320  14.344  0.00  0.00    +0.000 OA
ENDBRANCH  15  18
ENDBRANCH  14  15
ENDBRANCH   5  14
ENDBRANCH   1   5
BRANCH   3  19
ATOM     19  C   UNL     1       8.312   8.175  18.495  0.00  0.00    +0.000 C 
BRANCH  19  20
ATOM     20  C   UNL     1       8.571   9.640  18.129  0.00  0.00    +0.000 C 
BRANCH  20  21
ATOM     21  C   UNL     1       9.496  10.354  19.130  0.00  0.00    +0.000 C 
BRANCH  21  22
ATOM     22  C   UNL     1       9.368  11.882  19.023  0.00  0.00    +0.000 C 
BRANCH  22  23
ATOM     23  C   UNL     1       9.186  12.585  20.356  0.00  0.00    +0.000 A 
ATOM     24  N   UNL     1       8.937  11.806  21.453  0.00  0.00    +0.000 NA
ATOM     25  C   UNL     1       8.740  12.397  22.665  0.00  0.00    +0.000 A 
ATOM     26  C   UNL     1       8.796  13.771  22.825  0.00  0.00    +0.000 A 
ATOM     27  C   UNL     1       9.055  14.570  21.713  0.00  0.00    +0.000 A 
ATOM     28  C   UNL     1       9.247  13.966  20.477  0.00  0.00    +0.000 A 
ATOM     29  C   UNL     1       8.577  14.436  24.143  0.00  0.00    +0.000 C 
ATOM     30  C   UNL     1       8.328  13.528  25.335  0.00  0.00    +0.000 C 
ATOM     31  C   UNL     1       8.286  12.024  25.096  0.00  0.00    +0.000 C 
ATOM     32  N   UNL     1       8.458  11.585  23.729  0.00  0.00    +0.000 N 
ATOM     33  H   UNL     1       8.469  10.592  23.528  0.00  0.00    +0.000 HD
BRANCH  28  34
ATOM     34  N   UNL     1       9.511  14.834  19.355  0.00  0.00    +0.000 N 
ATOM     35  O   UNL     1       8.537  15.290  18.746  0.00  0.00    +0.000 OA
ATOM     36  O   UNL     1      10.698  15.092  19.121  0.00  0.00    +0.000 OA
ENDBRANCH  28  34
ENDBRANCH  22  23
ENDBRANCH  21  22
ENDBRANCH  20  21
ENDBRANCH  19  20
ENDBRANCH   3  19
TORSDOF 12
ENDMDL
MODEL 7
REMARK VINA RESULT:      -7.5      6.083     10.889
REMARK  Name = 
REMARK  15 active torsions:
REMARK  status: ('A' for Active; 'I' for Inactive)
REMARK    1  A    between atoms: C_1  and  O_2
REMARK    2  A    between atoms: O_2  and  C_3
REMARK    3  A    between atoms: C_3  and  C_5
REMARK    4  A    between atoms: C_5  and  C_6
REMARK    5  A    between atoms: C_6  and  C_7
REMARK    6  A    between atoms: C_6  and  N_15
REMARK    7  A    between atoms: C_10  and  O_11
REMARK    8  A    between atoms: O_11  and  C_12
REMARK    9  A    between atoms: N_15  and  C_16
REMARK   10  A    between atoms: C_17  and  C_19
REMARK   11  A    between atoms: C_19  and  C_20
REMARK   12  A    between atoms: C_20  and  C_21
REMARK   13  A    between atoms: C_21  and  C_22
REMARK   14  A    between atoms: C_22  and  C_23
REMARK   15  A    between atoms: C_28  and  N_29
REMARK                            x       y       z     vdW  Elec       q    Type
REMARK                         _______ _______ _______ _____ _____    ______ ____
ROOT
ATOM      1  N   UNL     1       0.514  10.872  20.398  0.00  0.00    +0.000 N 
ATOM      2  C   UNL     1       0.353  10.921  18.944  0.00  0.00    +0.000 C 
ATOM      3  C   UNL     1       0.941   9.718  21.055  0.00  0.00    +0.000 C 
ATOM      4  O   UNL     1       1.238   9.724  22.249  0.00  0.00    +0.000 OA
ENDROOT
BRANCH   1   5
ATOM      5  C   UNL     1       0.298  12.105  21.207  0.00  0.00    +0.000 C 
BRANCH   5   6
ATOM      6  C   UNL     1      -1.146  12.233  21.681  0.00  0.00    +0.000 A 
ATOM      7  C   UNL     1      -1.486  11.934  23.006  0.00  0.00    +0.000 A 
ATOM      8  C   UNL     1      -2.808  12.046  23.432  0.00  0.00    +0.000 A 
ATOM      9  C   UNL     1      -3.762  12.450  22.514  0.00  0.00    +0.000 A 
ATOM     10  N   UNL     1      -3.483  12.734  21.227  0.00  0.00    +0.000 NA
ATOM     11  C   UNL     1      -2.192  12.625  20.847  0.00  0.00    +0.000 A 
BRANCH   9  12
ATOM     12  O   UNL     1      -5.062  12.552  22.969  0.00  0.00    +0.000 OA
ATOM     13  C   UNL     1      -5.298  13.761  23.685  0.00  0.00    +0.000 C 
ENDBRANCH   9  12
ENDBRANCH   5   6
BRANCH   5  14
ATOM     14  C   UNL     1       0.862  13.328  20.462  0.00  0.00    +0.000 C 
BRANCH  14  15
ATOM     15  C   UNL     1       2.368  13.390  20.547  0.00  0.00    +0.000 C 
ATOM     16  O   UNL     1       3.015  13.457  21.582  0.00  0.00    +0.000 OA
BRANCH  15  18
ATOM     17  C   UNL     1       2.393  14.346  18.403  0.00  0.00    +0.000 C 
ATOM     18  O   UNL     1       2.901  13.349  19.292  0.00  0.00    +0.000 OA
ENDBRANCH  15  18
ENDBRANCH  14  15
ENDBRANCH   5  14
ENDBRANCH   1   5
BRANCH   3  19
ATOM     19  C   UNL     1       1.061   8.446  20.221  0.00  0.00    +0.000 C 
BRANCH  19  20
ATOM     20  C   UNL     1       1.831   7.323  20.923  0.00  0.00    +0.000 C 
BRANCH  20  21
ATOM     21  C   UNL     1       1.306   5.922  20.566  0.00  0.00    +0.000 C 
BRANCH  21  22
ATOM     22  C   UNL     1       2.400   4.854  20.727  0.00  0.00    +0.000 C 
BRANCH  22  23
ATOM     23  C   UNL     1       3.231   4.625  19.477  0.00  0.00    +0.000 A 
ATOM     24  N   UNL     1       4.334   5.416  19.298  0.00  0.00    +0.000 NA
ATOM     25  C   UNL     1       5.093   5.263  18.177  0.00  0.00    +0.000 A 
ATOM     26  C   UNL     1       4.790   4.317  17.212  0.00  0.00    +0.000 A 
ATOM     27  C   UNL     1       3.672   3.505  17.392  0.00  0.00    +0.000 A 
ATOM     28  C   UNL     1       2.894   3.668  18.531  0.00  0.00    +0.000 A 
ATOM     29  C   UNL     1       5.606   4.140  15.976  0.00  0.00    +0.000 C 
ATOM     30  C   UNL     1       6.834   5.024  15.833  0.00  0.00    +0.000 C 
ATOM     31  C   UNL     1       7.118   6.040  16.932  0.00  0.00    +0.000 C 
ATOM     32  N   UNL     1       6.166   6.098  18.018  0.00  0.00    +0.000 N 
ATOM     33  H   UNL     1       6.332   6.736  18.787  0.00  0.00    +0.000 HD
BRANCH  28  34
ATOM     34  N   UNL     1       1.747   2.804  18.673  0.00  0.00    +0.000 N 
ATOM     35  O   UNL     1       1.881   1.787  19.363  0.00  0.00    +0.000 OA
ATOM     36  O   UNL     1       0.701   3.179  18.131  0.00  0.00    +0.000 OA
ENDBRANCH  28  34
ENDBRANCH  22  23
ENDBRANCH  21  22
ENDBRANCH  20  21
ENDBRANCH  19  20
ENDBRANCH   3  19
TORSDOF 12
ENDMDL
MODEL 8
REMARK VINA RESULT:      -7.4      5.173     10.695
REMARK  Name = 
REMARK  15 active torsions:
REMARK  status: ('A' for Active; 'I' for Inactive)
REMARK    1  A    between atoms: C_1  and  O_2
REMARK    2  A    between atoms: O_2  and  C_3
REMARK    3  A    between atoms: C_3  and  C_5
REMARK    4  A    between atoms: C_5  and  C_6
REMARK    5  A    between atoms: C_6  and  C_7
REMARK    6  A    between atoms: C_6  and  N_15
REMARK    7  A    between atoms: C_10  and  O_11
REMARK    8  A    between atoms: O_11  and  C_12
REMARK    9  A    between atoms: N_15  and  C_16
REMARK   10  A    between atoms: C_17  and  C_19
REMARK   11  A    between atoms: C_19  and  C_20
REMARK   12  A    between atoms: C_20  and  C_21
REMARK   13  A    between atoms: C_21  and  C_22
REMARK   14  A    between atoms: C_22  and  C_23
REMARK   15  A    between atoms: C_28  and  N_29
REMARK                            x       y       z     vdW  Elec       q    Type
REMARK                         _______ _______ _______ _____ _____    ______ ____
ROOT
ATOM      1  N   UNL     1       0.511  10.161  20.473  0.00  0.00    +0.000 N 
ATOM      2  C   UNL     1       0.226  10.188  21.908  0.00  0.00    +0.000 C 
ATOM      3  C   UNL     1       1.159   9.083  19.869  0.00  0.00    +0.000 C 
ATOM      4  O   UNL     1       1.247   8.981  18.646  0.00  0.00    +0.000 OA
ENDROOT
BRANCH   1   5
ATOM      5  C   UNL     1       0.031  11.271  19.603  0.00  0.00    +0.000 C 
BRANCH   5   6
ATOM      6  C   UNL     1       1.066  12.385  19.473  0.00  0.00    +0.000 A 
ATOM      7  C   UNL     1       1.065  13.460  20.371  0.00  0.00    +0.000 A 
ATOM      8  C   UNL     1       2.009  14.477  20.244  0.00  0.00    +0.000 A 
ATOM      9  C   UNL     1       2.929  14.395  19.213  0.00  0.00    +0.000 A 
ATOM     10  N   UNL     1       2.957  13.388  18.320  0.00  0.00    +0.000 NA
ATOM     11  C   UNL     1       2.037  12.413  18.474  0.00  0.00    +0.000 A 
BRANCH   9  12
ATOM     12  O   UNL     1       3.850  15.419  19.117  0.00  0.00    +0.000 OA
ATOM     13  C   UNL     1       4.160  15.752  17.767  0.00  0.00    +0.000 C 
ENDBRANCH   9  12
ENDBRANCH   5   6
BRANCH   5  14
ATOM     14  C   UNL     1      -1.373  11.719  20.048  0.00  0.00    +0.000 C 
BRANCH  14  15
ATOM     15  C   UNL     1      -2.379  11.600  18.928  0.00  0.00    +0.000 C 
ATOM     16  O   UNL     1      -3.415  12.243  18.838  0.00  0.00    +0.000 OA
BRANCH  15  18
ATOM     17  C   UNL     1      -2.963   9.754  17.601  0.00  0.00    +0.000 C 
ATOM     18  O   UNL     1      -1.953  10.672  18.024  0.00  0.00    +0.000 OA
ENDBRANCH  15  18
ENDBRANCH  14  15
ENDBRANCH   5  14
ENDBRANCH   1   5
BRANCH   3  19
ATOM     19  C   UNL     1       1.725   8.006  20.791  0.00  0.00    +0.000 C 
BRANCH  19  20
ATOM     20  C   UNL     1       2.092   6.709  20.065  0.00  0.00    +0.000 C 
BRANCH  20  21
ATOM     21  C   UNL     1       1.386   5.473  20.649  0.00  0.00    +0.000 C 
BRANCH  21  22
ATOM     22  C   UNL     1       2.300   4.237  20.619  0.00  0.00    +0.000 C 
BRANCH  22  23
ATOM     23  C   UNL     1       3.209   4.167  19.405  0.00  0.00    +0.000 A 
ATOM     24  N   UNL     1       4.533   4.458  19.590  0.00  0.00    +0.000 NA
ATOM     25  C   UNL     1       5.380   4.435  18.523  0.00  0.00    +0.000 A 
ATOM     26  C   UNL     1       4.943   4.112  17.249  0.00  0.00    +0.000 A 
ATOM     27  C   UNL     1       3.597   3.809  17.056  0.00  0.00    +0.000 A 
ATOM     28  C   UNL     1       2.733   3.841  18.144  0.00  0.00    +0.000 A 
ATOM     29  C   UNL     1       5.854   4.087  16.069  0.00  0.00    +0.000 C 
ATOM     30  C   UNL     1       7.320   4.393  16.328  0.00  0.00    +0.000 C 
ATOM     31  C   UNL     1       7.741   4.733  17.752  0.00  0.00    +0.000 C 
ATOM     32  N   UNL     1       6.689   4.766  18.744  0.00  0.00    +0.000 N 
ATOM     33  H   UNL     1       6.928   4.957  19.710  0.00  0.00    +0.000 HD
BRANCH  28  34
ATOM     34  N   UNL     1       1.348   3.522  17.894  0.00  0.00    +0.000 N 
ATOM     35  O   UNL     1       0.704   4.298  17.179  0.00  0.00    +0.000 OA
ATOM     36  O   UNL     1       0.928   2.464  18.377  0.00  0.00    +0.000 OA
ENDBRANCH  28  34
ENDBRANCH  22  23
ENDBRANCH  21  22
ENDBRANCH  20  21
ENDBRANCH  19  20
ENDBRANCH   3  19
TORSDOF 12
ENDMDL
MODEL 9
REMARK VINA RESULT:      -7.4      5.170      7.431
REMARK  Name = 
REMARK  15 active torsions:
REMARK  status: ('A' for Active; 'I' for Inactive)
REMARK    1  A    between atoms: C_1  and  O_2
REMARK    2  A    between atoms: O_2  and  C_3
REMARK    3  A    between atoms: C_3  and  C_5
REMARK    4  A    between atoms: C_5  and  C_6
REMARK    5  A    between atoms: C_6  and  C_7
REMARK    6  A    between atoms: C_6  and  N_15
REMARK    7  A    between atoms: C_10  and  O_11
REMARK    8  A    between atoms: O_11  and  C_12
REMARK    9  A    between atoms: N_15  and  C_16
REMARK   10  A    between atoms: C_17  and  C_19
REMARK   11  A    between atoms: C_19  and  C_20
REMARK   12  A    between atoms: C_20  and  C_21
REMARK   13  A    between atoms: C_21  and  C_22
REMARK   14  A    between atoms: C_22  and  C_23
REMARK   15  A    between atoms: C_28  and  N_29
REMARK                            x       y       z     vdW  Elec       q    Type
REMARK                         _______ _______ _______ _____ _____    ______ ____
ROOT
ATOM      1  N   UNL     1       2.453   6.574  18.965  0.00  0.00    +0.000 N 
ATOM      2  C   UNL     1       2.563   7.566  17.895  0.00  0.00    +0.000 C 
ATOM      3  C   UNL     1       1.875   6.880  20.198  0.00  0.00    +0.000 C 
ATOM      4  O   UNL     1       1.629   6.009  21.032  0.00  0.00    +0.000 OA
ENDROOT
BRANCH   1   5
ATOM      5  C   UNL     1       2.890   5.171  18.721  0.00  0.00    +0.000 C 
BRANCH   5   6
ATOM      6  C   UNL     1       4.165   5.107  17.885  0.00  0.00    +0.000 A 
ATOM      7  C   UNL     1       4.134   4.588  16.585  0.00  0.00    +0.000 A 
ATOM      8  C   UNL     1       5.303   4.526  15.828  0.00  0.00    +0.000 A 
ATOM      9  C   UNL     1       6.479   4.982  16.398  0.00  0.00    +0.000 A 
ATOM     10  N   UNL     1       6.558   5.476  17.649  0.00  0.00    +0.000 NA
ATOM     11  C   UNL     1       5.408   5.531  18.354  0.00  0.00    +0.000 A 
BRANCH   9  12
ATOM     12  O   UNL     1       7.619   4.908  15.621  0.00  0.00    +0.000 OA
ATOM     13  C   UNL     1       7.331   4.913  14.226  0.00  0.00    +0.000 C 
ENDBRANCH   9  12
ENDBRANCH   5   6
BRANCH   5  14
ATOM     14  C   UNL     1       1.710   4.336  18.194  0.00  0.00    +0.000 C 
BRANCH  14  15
ATOM     15  C   UNL     1       1.622   2.994  18.881  0.00  0.00    +0.000 C 
ATOM     16  O   UNL     1       1.130   2.795  19.981  0.00  0.00    +0.000 OA
BRANCH  15  18
ATOM     17  C   UNL     1       3.428   1.534  18.534  0.00  0.00    +0.000 C 
ATOM     18  O   UNL     1       2.167   2.033  18.081  0.00  0.00    +0.000 OA
ENDBRANCH  15  18
ENDBRANCH  14  15
ENDBRANCH   5  14
ENDBRANCH   1   5
BRANCH   3  19
ATOM     19  C   UNL     1       1.524   8.342  20.459  0.00  0.00    +0.000 C 
BRANCH  19  20
ATOM     20  C   UNL     1       1.316   8.667  21.942  0.00  0.00    +0.000 C 
BRANCH  20  21
ATOM     21  C   UNL     1       0.363   9.853  22.168  0.00  0.00    +0.000 C 
BRANCH  21  22
ATOM     22  C   UNL     1      -0.319  10.284  20.860  0.00  0.00    +0.000 C 
BRANCH  22  23
ATOM     23  C   UNL     1       0.193  11.597  20.295  0.00  0.00    +0.000 A 
ATOM     24  N   UNL     1       1.338  12.113  20.837  0.00  0.00    +0.000 NA
ATOM     25  C   UNL     1       1.818  13.304  20.379  0.00  0.00    +0.000 A 
ATOM     26  C   UNL     1       1.185  14.007  19.368  0.00  0.00    +0.000 A 
ATOM     27  C   UNL     1       0.022  13.484  18.810  0.00  0.00    +0.000 A 
ATOM     28  C   UNL     1      -0.471  12.274  19.283  0.00  0.00    +0.000 A 
ATOM     29  C   UNL     1       1.693  15.315  18.860  0.00  0.00    +0.000 C 
ATOM     30  C   UNL     1       2.981  15.836  19.475  0.00  0.00    +0.000 C 
ATOM     31  C   UNL     1       3.634  15.013  20.578  0.00  0.00    +0.000 C 
ATOM     32  N   UNL     1       2.946  13.804  20.972  0.00  0.00    +0.000 N 
ATOM     33  H   UNL     1       3.360  13.209  21.680  0.00  0.00    +0.000 HD
BRANCH  28  34
ATOM     34  N   UNL     1      -1.679  11.772  18.673  0.00  0.00    +0.000 N 
ATOM     35  O   UNL     1      -1.556  11.017  17.702  0.00  0.00    +0.000 OA
ATOM     36  O   UNL     1      -2.746  12.100  19.206  0.00  0.00    +0.000 OA
ENDBRANCH  28  34
ENDBRANCH  22  23
ENDBRANCH  21  22
ENDBRANCH  20  21
ENDBRANCH  19  20
ENDBRANCH   3  19
TORSDOF 12
ENDMDL
