MODEL 1
REMARK VINA RESULT:      -8.0      0.000      0.000
REMARK  Name = 
REMARK  12 active torsions:
REMARK  status: ('A' for Active; 'I' for Inactive)
REMARK    1  A    between atoms: C_1  and  O_2
REMARK    2  A    between atoms: O_2  and  C_3
REMARK    3  A    between atoms: C_5  and  N_6
REMARK    4  A    between atoms: C_7  and  C_9
REMARK    5  A    between atoms: C_12  and  C_13
REMARK    6  A    between atoms: C_18  and  N_19
REMARK    7  A    between atoms: N_19  and  C_20
REMARK    8  A    between atoms: C_26  and  C_27
REMARK    9  A    between atoms: C_29  and  O_30
REMARK   10  A    between atoms: O_30  and  C_31
REMARK   11  A    between atoms: C_32  and  O_33
REMARK   12  A    between atoms: O_33  and  C_34
REMARK                            x       y       z     vdW  Elec       q    Type
REMARK                         _______ _______ _______ _____ _____    ______ ____
ROOT
ATOM      1  C   UNL     1       2.422   6.601  19.512  0.00  0.00    +0.000 A 
ATOM      2  C   UNL     1       1.447   6.027  20.341  0.00  0.00    +0.000 A 
ATOM      3  C   UNL     1       1.594   4.716  20.789  0.00  0.00    +0.000 A 
ATOM      4  C   UNL     1       2.712   3.991  20.393  0.00  0.00    +0.000 A 
ATOM      5  N   UNL     1       3.674   4.555  19.613  0.00  0.00    +0.000 NA
ATOM      6  C   UNL     1       3.542   5.831  19.165  0.00  0.00    +0.000 A 
ENDROOT
BRANCH   1   8
ATOM      7  N   UNL     1       1.648   8.914  19.741  0.00  0.00    +0.000 N 
ATOM      8  C   UNL     1       2.204   7.945  18.912  0.00  0.00    +0.000 C 
ATOM      9  O   UNL     1       2.499   8.082  17.728  0.00  0.00    +0.000 OA
ATOM     10  H   UNL     1       1.640   8.739  20.738  0.00  0.00    +0.000 HD
BRANCH   7  13
ATOM     11  C   UNL     1      -0.852  11.655  19.158  0.00  0.00    +0.000 A 
ATOM     12  C   UNL     1      -0.311  10.383  19.415  0.00  0.00    +0.000 A 
ATOM     13  C   UNL     1       1.055  10.134  19.327  0.00  0.00    +0.000 A 
ATOM     14  C   UNL     1       1.878  11.169  18.879  0.00  0.00    +0.000 A 
ATOM     15  C   UNL     1       1.348  12.432  18.539  0.00  0.00    +0.000 A 
ATOM     16  C   UNL     1      -0.034  12.688  18.661  0.00  0.00    +0.000 A 
BRANCH  11  18
ATOM     17  C   UNL     1      -3.059  11.449  18.320  0.00  0.00    +0.000 C 
ATOM     18  O   UNL     1      -2.190  11.884  19.368  0.00  0.00    +0.000 OA
ENDBRANCH  11  18
BRANCH  15  19
ATOM     19  O   UNL     1       2.315  13.298  18.079  0.00  0.00    +0.000 OA
ATOM     20  C   UNL     1       3.104  13.980  19.050  0.00  0.00    +0.000 C 
ENDBRANCH  15  19
BRANCH  16  21
ATOM     21  O   UNL     1      -0.458  13.919  18.235  0.00  0.00    +0.000 OA
ATOM     22  C   UNL     1      -0.466  15.025  19.122  0.00  0.00    +0.000 C 
ENDBRANCH  16  21
ENDBRANCH   7  13
ENDBRANCH   1   8
BRANCH   4  23
ATOM     23  C   UNL     1       2.877   2.530  20.796  0.00  0.00    +0.000 C 
ATOM     24  F   UNL     1       2.415   1.659  19.842  0.00  0.00    +0.000 F 
ATOM     25  F   UNL     1       4.171   2.174  21.015  0.00  0.00    +0.000 F 
ATOM     26  F   UNL     1       2.195   2.210  21.931  0.00  0.00    +0.000 F 
ENDBRANCH   4  23
BRANCH   6  27
ATOM     27  N   UNL     1       4.606   6.367  18.410  0.00  0.00    +0.000 N 
ATOM     28  H   UNL     1       4.720   7.366  18.562  0.00  0.00    +0.000 HD
BRANCH  27  29
ATOM     29  C   UNL     1       5.178   5.819  17.242  0.00  0.00    +0.000 A 
ATOM     30  C   UNL     1       4.429   4.911  16.468  0.00  0.00    +0.000 A 
ATOM     31  C   UNL     1       4.937   4.333  15.305  0.00  0.00    +0.000 A 
ATOM     32  C   UNL     1       6.216   4.662  14.887  0.00  0.00    +0.000 A 
ATOM     33 CL   UNL     1       6.858   3.947  13.461  0.00  0.00    +0.000 Cl
ATOM     34  C   UNL     1       6.982   5.565  15.624  0.00  0.00    +0.000 A 
ATOM     35  C   UNL     1       6.476   6.155  16.802  0.00  0.00    +0.000 A 
ATOM     36  C   UNL     1       7.360   7.114  17.551  0.00  0.00    +0.000 C 
ENDBRANCH  27  29
ENDBRANCH   6  27
TORSDOF 8
ENDMDL
MODEL 2
REMARK VINA RESULT:      -7.8      5.543     10.097
REMARK  Name = 
REMARK  12 active torsions:
REMARK  status: ('A' for Active; 'I' for Inactive)
REMARK    1  A    between atoms: C_1  and  O_2
REMARK    2  A    between atoms: O_2  and  C_3
REMARK    3  A    between atoms: C_5  and  N_6
REMARK    4  A    between atoms: C_7  and  C_9
REMARK    5  A    between atoms: C_12  and  C_13
REMARK    6  A    between atoms: C_18  and  N_19
REMARK    7  A    between atoms: N_19  and  C_20
REMARK    8  A    between atoms: C_26  and  C_27
REMARK    9  A    between atoms: C_29  and  O_30
REMARK   10  A    between atoms: O_30  and  C_31
REMARK   11  A    between atoms: C_32  and  O_33
REMARK   12  A    between atoms: O_33  and  C_34
REMARK                            x       y       z     vdW  Elec       q    Type
REMARK                         _______ _______ _______ _____ _____    ______ ____
ROOT
ATOM      1  C   UNL     1       0.859  11.176  18.629  0.00  0.00    +0.000 A 
ATOM      2  C   UNL     1       2.000  11.991  18.610  0.00  0.00    +0.000 A 
ATOM      3  C   UNL     1       1.870  13.375  18.711  0.00  0.00    +0.000 A 
ATOM      4  C   UNL     1       0.598  13.926  18.819  0.00  0.00    +0.000 A 
ATOM      5  N   UNL     1      -0.507  13.135  18.867  0.00  0.00    +0.000 NA
ATOM      6  C   UNL     1      -0.397  11.784  18.765  0.00  0.00    +0.000 A 
ENDROOT
BRANCH   1   8
ATOM      7  N   UNL     1       1.841   9.006  19.204  0.00  0.00    +0.000 N 
ATOM      8  C   UNL     1       0.975   9.714  18.376  0.00  0.00    +0.000 C 
ATOM      9  O   UNL     1       0.327   9.255  17.439  0.00  0.00    +0.000 OA
ATOM     10  H   UNL     1       2.156   9.453  20.056  0.00  0.00    +0.000 HD
BRANCH   7  13
ATOM     11  C   UNL     1       3.776   6.151  17.715  0.00  0.00    +0.000 A 
ATOM     12  C   UNL     1       3.132   7.395  17.847  0.00  0.00    +0.000 A 
ATOM     13  C   UNL     1       2.361   7.709  18.963  0.00  0.00    +0.000 A 
ATOM     14  C   UNL     1       2.162   6.710  19.918  0.00  0.00    +0.000 A 
ATOM     15  C   UNL     1       2.732   5.429  19.769  0.00  0.00    +0.000 A 
ATOM     16  C   UNL     1       3.539   5.127  18.651  0.00  0.00    +0.000 A 
BRANCH  11  18
ATOM     17  C   UNL     1       5.986   6.278  16.872  0.00  0.00    +0.000 C 
ATOM     18  O   UNL     1       4.618   5.927  16.654  0.00  0.00    +0.000 OA
ENDBRANCH  11  18
BRANCH  15  19
ATOM     19  O   UNL     1       2.382   4.578  20.793  0.00  0.00    +0.000 OA
ATOM     20  C   UNL     1       1.167   3.847  20.657  0.00  0.00    +0.000 C 
ENDBRANCH  15  19
BRANCH  16  21
ATOM     21  O   UNL     1       3.984   3.834  18.562  0.00  0.00    +0.000 OA
ATOM     22  C   UNL     1       3.305   2.893  17.746  0.00  0.00    +0.000 C 
ENDBRANCH  16  21
ENDBRANCH   7  13
ENDBRANCH   1   8
BRANCH   4  23
ATOM     23  C   UNL     1       0.404  15.438  18.855  0.00  0.00    +0.000 C 
ATOM     24  F   UNL     1       0.193  15.918  20.123  0.00  0.00    +0.000 F 
ATOM     25  F   UNL     1       1.472  16.131  18.379  0.00  0.00    +0.000 F 
ATOM     26  F   UNL     1      -0.675  15.854  18.133  0.00  0.00    +0.000 F 
ENDBRANCH   4  23
BRANCH   6  27
ATOM     27  N   UNL     1      -1.580  11.026  18.882  0.00  0.00    +0.000 N 
ATOM     28  H   UNL     1      -1.392  10.031  18.977  0.00  0.00    +0.000 HD
BRANCH  27  29
ATOM     29  C   UNL     1      -2.875  11.404  18.466  0.00  0.00    +0.000 A 
ATOM     30  C   UNL     1      -3.733  12.045  19.381  0.00  0.00    +0.000 A 
ATOM     31  C   UNL     1      -5.023  12.443  19.034  0.00  0.00    +0.000 A 
ATOM     32  C   UNL     1      -5.482  12.209  17.748  0.00  0.00    +0.000 A 
ATOM     33 CL   UNL     1      -7.076  12.684  17.311  0.00  0.00    +0.000 Cl
ATOM     34  C   UNL     1      -4.656  11.586  16.814  0.00  0.00    +0.000 A 
ATOM     35  C   UNL     1      -3.348  11.181  17.155  0.00  0.00    +0.000 A 
ATOM     36  C   UNL     1      -2.515  10.507  16.100  0.00  0.00    +0.000 C 
ENDBRANCH  27  29
ENDBRANCH   6  27
TORSDOF 8
ENDMDL
MODEL 3
REMARK VINA RESULT:      -7.8      0.748      1.038
REMARK  Name = 
REMARK  12 active torsions:
REMARK  status: ('A' for Active; 'I' for Inactive)
REMARK    1  A    between atoms: C_1  and  O_2
REMARK    2  A    between atoms: O_2  and  C_3
REMARK    3  A    between atoms: C_5  and  N_6
REMARK    4  A    between atoms: C_7  and  C_9
REMARK    5  A    between atoms: C_12  and  C_13
REMARK    6  A    between atoms: C_18  and  N_19
REMARK    7  A    between atoms: N_19  and  C_20
REMARK    8  A    between atoms: C_26  and  C_27
REMARK    9  A    between atoms: C_29  and  O_30
REMARK   10  A    between atoms: O_30  and  C_31
REMARK   11  A    between atoms: C_32  and  O_33
REMARK   12  A    between atoms: O_33  and  C_34
REMARK                            x       y       z     vdW  Elec       q    Type
REMARK                         _______ _______ _______ _____ _____    ______ ____
ROOT
ATOM      1  C   UNL     1       2.361   6.637  19.645  0.00  0.00    +0.000 A 
ATOM      2  C   UNL     1       1.332   6.007  20.361  0.00  0.00    +0.000 A 
ATOM      3  C   UNL     1       1.468   4.678  20.755  0.00  0.00    +0.000 A 
ATOM      4  C   UNL     1       2.629   3.991  20.417  0.00  0.00    +0.000 A 
ATOM      5  N   UNL     1       3.640   4.609  19.750  0.00  0.00    +0.000 NA
ATOM      6  C   UNL     1       3.521   5.903  19.355  0.00  0.00    +0.000 A 
ENDROOT
BRANCH   1   8
ATOM      7  N   UNL     1       1.530   8.925  19.925  0.00  0.00    +0.000 N 
ATOM      8  C   UNL     1       2.167   8.006  19.096  0.00  0.00    +0.000 C 
ATOM      9  O   UNL     1       2.551   8.207  17.947  0.00  0.00    +0.000 OA
ATOM     10  H   UNL     1       1.446   8.700  20.908  0.00  0.00    +0.000 HD
BRANCH   7  13
ATOM     11  C   UNL     1      -0.873  11.787  19.545  0.00  0.00    +0.000 A 
ATOM     12  C   UNL     1      -0.371  10.498  19.801  0.00  0.00    +0.000 A 
ATOM     13  C   UNL     1       0.950  10.156  19.525  0.00  0.00    +0.000 A 
ATOM     14  C   UNL     1       1.749  11.108  18.891  0.00  0.00    +0.000 A 
ATOM     15  C   UNL     1       1.246  12.381  18.552  0.00  0.00    +0.000 A 
ATOM     16  C   UNL     1      -0.085  12.733  18.863  0.00  0.00    +0.000 A 
BRANCH  11  18
ATOM     17  C   UNL     1      -2.318  12.337  21.340  0.00  0.00    +0.000 C 
ATOM     18  O   UNL     1      -2.147  12.114  19.939  0.00  0.00    +0.000 OA
ENDBRANCH  11  18
BRANCH  15  19
ATOM     19  O   UNL     1       2.177  13.154  17.896  0.00  0.00    +0.000 OA
ATOM     20  C   UNL     1       3.083  13.913  18.693  0.00  0.00    +0.000 C 
ENDBRANCH  15  19
BRANCH  16  21
ATOM     21  O   UNL     1      -0.499  13.963  18.426  0.00  0.00    +0.000 OA
ATOM     22  C   UNL     1      -0.437  15.092  19.282  0.00  0.00    +0.000 C 
ENDBRANCH  16  21
ENDBRANCH   7  13
ENDBRANCH   1   8
BRANCH   4  23
ATOM     23  C   UNL     1       2.789   2.514  20.760  0.00  0.00    +0.000 C 
ATOM     24  F   UNL     1       4.092   2.163  21.010  0.00  0.00    +0.000 F 
ATOM     25  F   UNL     1       2.095   2.139  21.867  0.00  0.00    +0.000 F 
ATOM     26  F   UNL     1       2.384   1.686  19.755  0.00  0.00    +0.000 F 
ENDBRANCH   4  23
BRANCH   6  27
ATOM     27  N   UNL     1       4.632   6.493  18.719  0.00  0.00    +0.000 N 
ATOM     28  H   UNL     1       4.707   7.488  18.920  0.00  0.00    +0.000 HD
BRANCH  27  29
ATOM     29  C   UNL     1       5.318   6.007  17.585  0.00  0.00    +0.000 A 
ATOM     30  C   UNL     1       4.652   5.959  16.345  0.00  0.00    +0.000 A 
ATOM     31  C   UNL     1       5.273   5.489  15.188  0.00  0.00    +0.000 A 
ATOM     32  C   UNL     1       6.588   5.060  15.251  0.00  0.00    +0.000 A 
ATOM     33 CL   UNL     1       7.361   4.466  13.834  0.00  0.00    +0.000 Cl
ATOM     34  C   UNL     1       7.280   5.102  16.460  0.00  0.00    +0.000 A 
ATOM     35  C   UNL     1       6.661   5.577  17.636  0.00  0.00    +0.000 A 
ATOM     36  C   UNL     1       7.465   5.587  18.907  0.00  0.00    +0.000 C 
ENDBRANCH  27  29
ENDBRANCH   6  27
TORSDOF 8
ENDMDL
MODEL 4
REMARK VINA RESULT:      -7.8      1.234      1.450
REMARK  Name = 
REMARK  12 active torsions:
REMARK  status: ('A' for Active; 'I' for Inactive)
REMARK    1  A    between atoms: C_1  and  O_2
REMARK    2  A    between atoms: O_2  and  C_3
REMARK    3  A    between atoms: C_5  and  N_6
REMARK    4  A    between atoms: C_7  and  C_9
REMARK    5  A    between atoms: C_12  and  C_13
REMARK    6  A    between atoms: C_18  and  N_19
REMARK    7  A    between atoms: N_19  and  C_20
REMARK    8  A    between atoms: C_26  and  C_27
REMARK    9  A    between atoms: C_29  and  O_30
REMARK   10  A    between atoms: O_30  and  C_31
REMARK   11  A    between atoms: C_32  and  O_33
REMARK   12  A    between atoms: O_33  and  C_34
REMARK                            x       y       z     vdW  Elec       q    Type
REMARK                         _______ _______ _______ _____ _____    ______ ____
ROOT
ATOM      1  C   UNL     1       2.282   6.570  19.761  0.00  0.00    +0.000 A 
ATOM      2  C   UNL     1       1.284   5.864  20.448  0.00  0.00    +0.000 A 
ATOM      3  C   UNL     1       1.439   4.502  20.698  0.00  0.00    +0.000 A 
ATOM      4  C   UNL     1       2.588   3.861  20.247  0.00  0.00    +0.000 A 
ATOM      5  N   UNL     1       3.570   4.551  19.608  0.00  0.00    +0.000 NA
ATOM      6  C   UNL     1       3.431   5.878  19.352  0.00  0.00    +0.000 A 
ENDROOT
BRANCH   1   8
ATOM      7  N   UNL     1       1.404   8.798  20.282  0.00  0.00    +0.000 N 
ATOM      8  C   UNL     1       2.062   7.987  19.362  0.00  0.00    +0.000 C 
ATOM      9  O   UNL     1       2.446   8.319  18.244  0.00  0.00    +0.000 OA
ATOM     10  H   UNL     1       1.322   8.466  21.235  0.00  0.00    +0.000 HD
BRANCH   7  13
ATOM     11  C   UNL     1      -0.846  11.453  18.870  0.00  0.00    +0.000 A 
ATOM     12  C   UNL     1      -0.139  10.244  19.006  0.00  0.00    +0.000 A 
ATOM     13  C   UNL     1       0.801  10.053  20.015  0.00  0.00    +0.000 A 
ATOM     14  C   UNL     1       1.097  11.138  20.842  0.00  0.00    +0.000 A 
ATOM     15  C   UNL     1       0.458  12.384  20.675  0.00  0.00    +0.000 A 
ATOM     16  C   UNL     1      -0.517  12.563  19.671  0.00  0.00    +0.000 A 
BRANCH  11  18
ATOM     17  C   UNL     1      -2.001  10.426  17.074  0.00  0.00    +0.000 C 
ATOM     18  O   UNL     1      -1.845  11.558  17.932  0.00  0.00    +0.000 OA
ENDBRANCH  11  18
BRANCH  15  19
ATOM     19  O   UNL     1       0.920  13.332  21.561  0.00  0.00    +0.000 OA
ATOM     20  C   UNL     1       2.093  14.055  21.200  0.00  0.00    +0.000 C 
ENDBRANCH  15  19
BRANCH  16  21
ATOM     21  O   UNL     1      -1.023  13.829  19.542  0.00  0.00    +0.000 OA
ATOM     22  C   UNL     1      -0.416  14.762  18.664  0.00  0.00    +0.000 C 
ENDBRANCH  16  21
ENDBRANCH   7  13
ENDBRANCH   1   8
BRANCH   4  23
ATOM     23  C   UNL     1       2.765   2.358  20.431  0.00  0.00    +0.000 C 
ATOM     24  F   UNL     1       3.986   2.027  20.964  0.00  0.00    +0.000 F 
ATOM     25  F   UNL     1       1.844   1.804  21.264  0.00  0.00    +0.000 F 
ATOM     26  F   UNL     1       2.689   1.665  19.260  0.00  0.00    +0.000 F 
ENDBRANCH   4  23
BRANCH   6  27
ATOM     27  N   UNL     1       4.515   6.538  18.737  0.00  0.00    +0.000 N 
ATOM     28  H   UNL     1       4.524   7.534  18.940  0.00  0.00    +0.000 HD
BRANCH  27  29
ATOM     29  C   UNL     1       5.250   6.098  17.615  0.00  0.00    +0.000 A 
ATOM     30  C   UNL     1       4.659   6.156  16.338  0.00  0.00    +0.000 A 
ATOM     31  C   UNL     1       5.331   5.736  15.190  0.00  0.00    +0.000 A 
ATOM     32  C   UNL     1       6.624   5.251  15.301  0.00  0.00    +0.000 A 
ATOM     33 CL   UNL     1       7.458   4.719  13.895  0.00  0.00    +0.000 Cl
ATOM     34  C   UNL     1       7.242   5.188  16.549  0.00  0.00    +0.000 A 
ATOM     35  C   UNL     1       6.571   5.612  17.715  0.00  0.00    +0.000 A 
ATOM     36  C   UNL     1       7.297   5.508  19.029  0.00  0.00    +0.000 C 
ENDBRANCH  27  29
ENDBRANCH   6  27
TORSDOF 8
ENDMDL
MODEL 5
REMARK VINA RESULT:      -7.7      1.377      2.426
REMARK  Name = 
REMARK  12 active torsions:
REMARK  status: ('A' for Active; 'I' for Inactive)
REMARK    1  A    between atoms: C_1  and  O_2
REMARK    2  A    between atoms: O_2  and  C_3
REMARK    3  A    between atoms: C_5  and  N_6
REMARK    4  A    between atoms: C_7  and  C_9
REMARK    5  A    between atoms: C_12  and  C_13
REMARK    6  A    between atoms: C_18  and  N_19
REMARK    7  A    between atoms: N_19  and  C_20
REMARK    8  A    between atoms: C_26  and  C_27
REMARK    9  A    between atoms: C_29  and  O_30
REMARK   10  A    between atoms: O_30  and  C_31
REMARK   11  A    between atoms: C_32  and  O_33
REMARK   12  A    between atoms: O_33  and  C_34
REMARK                            x       y       z     vdW  Elec       q    Type
REMARK                         _______ _______ _______ _____ _____    ______ ____
ROOT
ATOM      1  C   UNL     1       2.215   6.546  19.933  0.00  0.00    +0.000 A 
ATOM      2  C   UNL     1       1.273   5.780  20.635  0.00  0.00    +0.000 A 
ATOM      3  C   UNL     1       1.473   4.412  20.806  0.00  0.00    +0.000 A 
ATOM      4  C   UNL     1       2.609   3.825  20.261  0.00  0.00    +0.000 A 
ATOM      5  N   UNL     1       3.539   4.571  19.606  0.00  0.00    +0.000 NA
ATOM      6  C   UNL     1       3.356   5.905  19.428  0.00  0.00    +0.000 A 
ENDROOT
BRANCH   1   8
ATOM      7  N   UNL     1       1.351   8.731  20.630  0.00  0.00    +0.000 N 
ATOM      8  C   UNL     1       1.941   7.975  19.621  0.00  0.00    +0.000 C 
ATOM      9  O   UNL     1       2.225   8.364  18.491  0.00  0.00    +0.000 OA
ATOM     10  H   UNL     1       1.355   8.355  21.570  0.00  0.00    +0.000 HD
BRANCH   7  13
ATOM     11  C   UNL     1       0.525  12.383  20.918  0.00  0.00    +0.000 A 
ATOM     12  C   UNL     1       1.057  11.114  21.208  0.00  0.00    +0.000 A 
ATOM     13  C   UNL     1       0.709   9.985  20.473  0.00  0.00    +0.000 A 
ATOM     14  C   UNL     1      -0.268  10.128  19.486  0.00  0.00    +0.000 A 
ATOM     15  C   UNL     1      -0.874  11.375  19.228  0.00  0.00    +0.000 A 
ATOM     16  C   UNL     1      -0.494  12.522  19.956  0.00  0.00    +0.000 A 
BRANCH  11  18
ATOM     17  C   UNL     1       2.159  14.093  21.055  0.00  0.00    +0.000 C 
ATOM     18  O   UNL     1       0.982  13.487  21.594  0.00  0.00    +0.000 OA
ENDBRANCH  11  18
BRANCH  15  19
ATOM     19  O   UNL     1      -1.840  11.295  18.250  0.00  0.00    +0.000 OA
ATOM     20  C   UNL     1      -2.312   9.999  17.894  0.00  0.00    +0.000 C 
ENDBRANCH  15  19
BRANCH  16  21
ATOM     21  O   UNL     1      -1.195  13.667  19.683  0.00  0.00    +0.000 OA
ATOM     22  C   UNL     1      -2.257  14.082  20.527  0.00  0.00    +0.000 C 
ENDBRANCH  16  21
ENDBRANCH   7  13
ENDBRANCH   1   8
BRANCH   4  23
ATOM     23  C   UNL     1       2.831   2.319  20.357  0.00  0.00    +0.000 C 
ATOM     24  F   UNL     1       2.961   1.881  21.650  0.00  0.00    +0.000 F 
ATOM     25  F   UNL     1       1.814   1.589  19.827  0.00  0.00    +0.000 F 
ATOM     26  F   UNL     1       3.967   1.907  19.726  0.00  0.00    +0.000 F 
ENDBRANCH   4  23
BRANCH   6  27
ATOM     27  N   UNL     1       4.389   6.623  18.790  0.00  0.00    +0.000 N 
ATOM     28  H   UNL     1       4.318   7.624  18.953  0.00  0.00    +0.000 HD
BRANCH  27  29
ATOM     29  C   UNL     1       5.165   6.197  17.691  0.00  0.00    +0.000 A 
ATOM     30  C   UNL     1       4.617   6.261  16.395  0.00  0.00    +0.000 A 
ATOM     31  C   UNL     1       5.331   5.856  15.268  0.00  0.00    +0.000 A 
ATOM     32  C   UNL     1       6.623   5.378  15.418  0.00  0.00    +0.000 A 
ATOM     33 CL   UNL     1       7.508   4.863  14.037  0.00  0.00    +0.000 Cl
ATOM     34  C   UNL     1       7.199   5.310  16.686  0.00  0.00    +0.000 A 
ATOM     35  C   UNL     1       6.485   5.719  17.832  0.00  0.00    +0.000 A 
ATOM     36  C   UNL     1       7.167   5.610  19.168  0.00  0.00    +0.000 C 
ENDBRANCH  27  29
ENDBRANCH   6  27
TORSDOF 8
ENDMDL
MODEL 6
REMARK VINA RESULT:      -7.7      3.100      5.145
REMARK  Name = 
REMARK  12 active torsions:
REMARK  status: ('A' for Active; 'I' for Inactive)
REMARK    1  A    between atoms: C_1  and  O_2
REMARK    2  A    between atoms: O_2  and  C_3
REMARK    3  A    between atoms: C_5  and  N_6
REMARK    4  A    between atoms: C_7  and  C_9
REMARK    5  A    between atoms: C_12  and  C_13
REMARK    6  A    between atoms: C_18  and  N_19
REMARK    7  A    between atoms: N_19  and  C_20
REMARK    8  A    between atoms: C_26  and  C_27
REMARK    9  A    between atoms: C_29  and  O_30
REMARK   10  A    between atoms: O_30  and  C_31
REMARK   11  A    between atoms: C_32  and  O_33
REMARK   12  A    between atoms: O_33  and  C_34
REMARK                            x       y       z     vdW  Elec       q    Type
REMARK                         _______ _______ _______ _____ _____    ______ ____
ROOT
ATOM      1  C   UNL     1       3.694   7.022  17.590  0.00  0.00    +0.000 A 
ATOM      2  C   UNL     1       4.901   7.608  17.181  0.00  0.00    +0.000 A 
ATOM      3  C   UNL     1       5.910   6.818  16.634  0.00  0.00    +0.000 A 
ATOM      4  C   UNL     1       5.702   5.448  16.513  0.00  0.00    +0.000 A 
ATOM      5  N   UNL     1       4.521   4.884  16.882  0.00  0.00    +0.000 NA
ATOM      6  C   UNL     1       3.529   5.640  17.420  0.00  0.00    +0.000 A 
ENDROOT
BRANCH   1   8
ATOM      7  N   UNL     1       1.953   8.747  17.541  0.00  0.00    +0.000 N 
ATOM      8  C   UNL     1       2.669   7.831  18.306  0.00  0.00    +0.000 C 
ATOM      9  O   UNL     1       2.561   7.651  19.515  0.00  0.00    +0.000 OA
ATOM     10  H   UNL     1       1.991   8.657  16.533  0.00  0.00    +0.000 HD
BRANCH   7  13
ATOM     11  C   UNL     1       0.972  12.115  18.883  0.00  0.00    +0.000 A 
ATOM     12  C   UNL     1       1.749  10.988  18.559  0.00  0.00    +0.000 A 
ATOM     13  C   UNL     1       1.183   9.831  18.033  0.00  0.00    +0.000 A 
ATOM     14  C   UNL     1      -0.208   9.780  17.921  0.00  0.00    +0.000 A 
ATOM     15  C   UNL     1      -1.015  10.868  18.313  0.00  0.00    +0.000 A 
ATOM     16  C   UNL     1      -0.433  12.051  18.816  0.00  0.00    +0.000 A 
BRANCH  11  18
ATOM     17  C   UNL     1       1.889  13.349  20.685  0.00  0.00    +0.000 C 
ATOM     18  O   UNL     1       1.585  13.274  19.291  0.00  0.00    +0.000 OA
ENDBRANCH  11  18
BRANCH  15  19
ATOM     19  O   UNL     1      -2.358  10.603  18.165  0.00  0.00    +0.000 OA
ATOM     20  C   UNL     1      -2.932  10.810  16.877  0.00  0.00    +0.000 C 
ENDBRANCH  15  19
BRANCH  16  21
ATOM     21  O   UNL     1      -1.306  13.019  19.239  0.00  0.00    +0.000 OA
ATOM     22  C   UNL     1      -1.888  12.951  20.530  0.00  0.00    +0.000 C 
ENDBRANCH  16  21
ENDBRANCH   7  13
ENDBRANCH   1   8
BRANCH   4  23
ATOM     23  C   UNL     1       6.806   4.535  15.993  0.00  0.00    +0.000 C 
ATOM     24  F   UNL     1       6.335   3.317  15.572  0.00  0.00    +0.000 F 
ATOM     25  F   UNL     1       7.476   5.051  14.928  0.00  0.00    +0.000 F 
ATOM     26  F   UNL     1       7.748   4.246  16.935  0.00  0.00    +0.000 F 
ENDBRANCH   4  23
BRANCH   6  27
ATOM     27  N   UNL     1       2.313   4.995  17.725  0.00  0.00    +0.000 N 
ATOM     28  H   UNL     1       1.523   5.414  17.240  0.00  0.00    +0.000 HD
BRANCH  27  29
ATOM     29  C   UNL     1       2.032   4.204  18.860  0.00  0.00    +0.000 A 
ATOM     30  C   UNL     1       1.629   4.833  20.054  0.00  0.00    +0.000 A 
ATOM     31  C   UNL     1       1.338   4.110  21.211  0.00  0.00    +0.000 A 
ATOM     32  C   UNL     1       1.439   2.729  21.191  0.00  0.00    +0.000 A 
ATOM     33 CL   UNL     1       1.095   1.827  22.614  0.00  0.00    +0.000 Cl
ATOM     34  C   UNL     1       1.826   2.074  20.022  0.00  0.00    +0.000 A 
ATOM     35  C   UNL     1       2.121   2.796  18.847  0.00  0.00    +0.000 A 
ATOM     36  C   UNL     1       2.539   2.024  17.626  0.00  0.00    +0.000 C 
ENDBRANCH  27  29
ENDBRANCH   6  27
TORSDOF 8
ENDMDL
MODEL 7
REMARK VINA RESULT:      -7.7      5.628      9.959
REMARK  Name = 
REMARK  12 active torsions:
REMARK  status: ('A' for Active; 'I' for Inactive)
REMARK    1  A    between atoms: C_1  and  O_2
REMARK    2  A    between atoms: O_2  and  C_3
REMARK    3  A    between atoms: C_5  and  N_6
REMARK    4  A    between atoms: C_7  and  C_9
REMARK    5  A    between atoms: C_12  and  C_13
REMARK    6  A    between atoms: C_18  and  N_19
REMARK    7  A    between atoms: N_19  and  C_20
REMARK    8  A    between atoms: C_26  and  C_27
REMARK    9  A    between atoms: C_29  and  O_30
REMARK   10  A    between atoms: O_30  and  C_31
REMARK   11  A    between atoms: C_32  and  O_33
REMARK   12  A    between atoms: O_33  and  C_34
REMARK                            x       y       z     vdW  Elec       q    Type
REMARK                         _______ _______ _______ _____ _____    ______ ____
ROOT
ATOM      1  C   UNL     1       0.739  11.301  18.768  0.00  0.00    +0.000 A 
ATOM      2  C   UNL     1       1.876  12.121  18.751  0.00  0.00    +0.000 A 
ATOM      3  C   UNL     1       1.738  13.506  18.811  0.00  0.00    +0.000 A 
ATOM      4  C   UNL     1       0.462  14.054  18.876  0.00  0.00    +0.000 A 
ATOM      5  N   UNL     1      -0.640  13.258  18.922  0.00  0.00    +0.000 NA
ATOM      6  C   UNL     1      -0.522  11.907  18.860  0.00  0.00    +0.000 A 
ENDROOT
BRANCH   1   8
ATOM      7  N   UNL     1       1.619   9.133  19.498  0.00  0.00    +0.000 N 
ATOM      8  C   UNL     1       0.867   9.833  18.559  0.00  0.00    +0.000 C 
ATOM      9  O   UNL     1       0.330   9.361  17.560  0.00  0.00    +0.000 OA
ATOM     10  H   UNL     1       1.836   9.594  20.373  0.00  0.00    +0.000 HD
BRANCH   7  13
ATOM     11  C   UNL     1       2.269   5.463  19.963  0.00  0.00    +0.000 A 
ATOM     12  C   UNL     1       1.872   6.787  20.227  0.00  0.00    +0.000 A 
ATOM     13  C   UNL     1       2.149   7.827  19.345  0.00  0.00    +0.000 A 
ATOM     14  C   UNL     1       2.924   7.537  18.221  0.00  0.00    +0.000 A 
ATOM     15  C   UNL     1       3.401   6.233  17.975  0.00  0.00    +0.000 A 
ATOM     16  C   UNL     1       3.090   5.176  18.857  0.00  0.00    +0.000 A 
BRANCH  11  18
ATOM     17  C   UNL     1       0.813   3.628  20.317  0.00  0.00    +0.000 C 
ATOM     18  O   UNL     1       1.875   4.451  20.804  0.00  0.00    +0.000 OA
ENDBRANCH  11  18
BRANCH  15  19
ATOM     19  O   UNL     1       4.180   6.165  16.841  0.00  0.00    +0.000 OA
ATOM     20  C   UNL     1       5.530   6.610  16.942  0.00  0.00    +0.000 C 
ENDBRANCH  15  19
BRANCH  16  21
ATOM     21  O   UNL     1       3.663   3.965  18.570  0.00  0.00    +0.000 OA
ATOM     22  C   UNL     1       4.834   3.542  19.248  0.00  0.00    +0.000 C 
ENDBRANCH  16  21
ENDBRANCH   7  13
ENDBRANCH   1   8
BRANCH   4  23
ATOM     23  C   UNL     1       0.260  15.565  18.866  0.00  0.00    +0.000 C 
ATOM     24  F   UNL     1      -0.728  15.964  18.001  0.00  0.00    +0.000 F 
ATOM     25  F   UNL     1      -0.094  16.070  20.077  0.00  0.00    +0.000 F 
ATOM     26  F   UNL     1       1.373  16.249  18.476  0.00  0.00    +0.000 F 
ENDBRANCH   4  23
BRANCH   6  27
ATOM     27  N   UNL     1      -1.705  11.146  18.971  0.00  0.00    +0.000 N 
ATOM     28  H   UNL     1      -1.514  10.153  19.081  0.00  0.00    +0.000 HD
BRANCH  27  29
ATOM     29  C   UNL     1      -2.996  11.515  18.536  0.00  0.00    +0.000 A 
ATOM     30  C   UNL     1      -3.881  12.125  19.445  0.00  0.00    +0.000 A 
ATOM     31  C   UNL     1      -5.170  12.513  19.078  0.00  0.00    +0.000 A 
ATOM     32  C   UNL     1      -5.598  12.299  17.778  0.00  0.00    +0.000 A 
ATOM     33 CL   UNL     1      -7.189  12.761  17.317  0.00  0.00    +0.000 Cl
ATOM     34  C   UNL     1      -4.744  11.705  16.850  0.00  0.00    +0.000 A 
ATOM     35  C   UNL     1      -3.438  11.311  17.211  0.00  0.00    +0.000 A 
ATOM     36  C   UNL     1      -2.574  10.670  16.160  0.00  0.00    +0.000 C 
ENDBRANCH  27  29
ENDBRANCH   6  27
TORSDOF 8
ENDMDL
MODEL 8
REMARK VINA RESULT:      -7.6      3.078      4.723
REMARK  Name = 
REMARK  12 active torsions:
REMARK  status: ('A' for Active; 'I' for Inactive)
REMARK    1  A    between atoms: C_1  and  O_2
REMARK    2  A    between atoms: O_2  and  C_3
REMARK    3  A    between atoms: C_5  and  N_6
REMARK    4  A    between atoms: C_7  and  C_9
REMARK    5  A    between atoms: C_12  and  C_13
REMARK    6  A    between atoms: C_18  and  N_19
REMARK    7  A    between atoms: N_19  and  C_20
REMARK    8  A    between atoms: C_26  and  C_27
REMARK    9  A    between atoms: C_29  and  O_30
REMARK   10  A    between atoms: O_30  and  C_31
REMARK   11  A    between atoms: C_32  and  O_33
REMARK   12  A    between atoms: O_33  and  C_34
REMARK                            x       y       z     vdW  Elec       q    Type
REMARK                         _______ _______ _______ _____ _____    ______ ____
ROOT
ATOM      1  C   UNL     1       3.702   6.991  17.566  0.00  0.00    +0.000 A 
ATOM      2  C   UNL     1       4.915   7.558  17.148  0.00  0.00    +0.000 A 
ATOM      3  C   UNL     1       5.917   6.750  16.615  0.00  0.00    +0.000 A 
ATOM      4  C   UNL     1       5.697   5.381  16.519  0.00  0.00    +0.000 A 
ATOM      5  N   UNL     1       4.511   4.833  16.896  0.00  0.00    +0.000 NA
ATOM      6  C   UNL     1       3.526   5.607  17.421  0.00  0.00    +0.000 A 
ENDROOT
BRANCH   1   8
ATOM      7  N   UNL     1       1.962   8.714  17.482  0.00  0.00    +0.000 N 
ATOM      8  C   UNL     1       2.685   7.820  18.267  0.00  0.00    +0.000 C 
ATOM      9  O   UNL     1       2.587   7.676  19.483  0.00  0.00    +0.000 OA
ATOM     10  H   UNL     1       1.991   8.595  16.477  0.00  0.00    +0.000 HD
BRANCH   7  13
ATOM     11  C   UNL     1      -0.927  10.843  18.588  0.00  0.00    +0.000 A 
ATOM     12  C   UNL     1      -0.195   9.816  17.966  0.00  0.00    +0.000 A 
ATOM     13  C   UNL     1       1.197   9.813  17.949  0.00  0.00    +0.000 A 
ATOM     14  C   UNL     1       1.857  10.918  18.490  0.00  0.00    +0.000 A 
ATOM     15  C   UNL     1       1.142  11.998  19.049  0.00  0.00    +0.000 A 
ATOM     16  C   UNL     1      -0.268  11.981  19.092  0.00  0.00    +0.000 A 
BRANCH  11  18
ATOM     17  C   UNL     1      -2.963  10.334  17.488  0.00  0.00    +0.000 C 
ATOM     18  O   UNL     1      -2.294  10.748  18.681  0.00  0.00    +0.000 OA
ENDBRANCH  11  18
BRANCH  15  19
ATOM     19  O   UNL     1       1.974  13.004  19.487  0.00  0.00    +0.000 OA
ATOM     20  C   UNL     1       2.722  13.715  18.506  0.00  0.00    +0.000 C 
ENDBRANCH  15  19
BRANCH  16  21
ATOM     21  O   UNL     1      -0.868  13.108  19.586  0.00  0.00    +0.000 OA
ATOM     22  C   UNL     1      -1.210  13.201  20.960  0.00  0.00    +0.000 C 
ENDBRANCH  16  21
ENDBRANCH   7  13
ENDBRANCH   1   8
BRANCH   4  23
ATOM     23  C   UNL     1       6.793   4.449  16.014  0.00  0.00    +0.000 C 
ATOM     24  F   UNL     1       7.471   4.958  14.936  0.00  0.00    +0.000 F 
ATOM     25  F   UNL     1       7.746   4.182  16.947  0.00  0.00    +0.000 F 
ATOM     26  F   UNL     1       6.317   3.241  15.598  0.00  0.00    +0.000 F 
ENDBRANCH   4  23
BRANCH   6  27
ATOM     27  N   UNL     1       2.304   4.978  17.735  0.00  0.00    +0.000 N 
ATOM     28  H   UNL     1       1.516   5.405  17.254  0.00  0.00    +0.000 HD
BRANCH  27  29
ATOM     29  C   UNL     1       2.021   4.195  18.875  0.00  0.00    +0.000 A 
ATOM     30  C   UNL     1       1.661   4.834  20.078  0.00  0.00    +0.000 A 
ATOM     31  C   UNL     1       1.370   4.120  21.239  0.00  0.00    +0.000 A 
ATOM     32  C   UNL     1       1.428   2.736  21.216  0.00  0.00    +0.000 A 
ATOM     33 CL   UNL     1       1.083   1.844  22.645  0.00  0.00    +0.000 Cl
ATOM     34  C   UNL     1       1.772   2.070  20.040  0.00  0.00    +0.000 A 
ATOM     35  C   UNL     1       2.066   2.785  18.860  0.00  0.00    +0.000 A 
ATOM     36  C   UNL     1       2.437   2.002  17.630  0.00  0.00    +0.000 C 
ENDBRANCH  27  29
ENDBRANCH   6  27
TORSDOF 8
ENDMDL
MODEL 9
REMARK VINA RESULT:      -7.6      5.665     10.247
REMARK  Name = 
REMARK  12 active torsions:
REMARK  status: ('A' for Active; 'I' for Inactive)
REMARK    1  A    between atoms: C_1  and  O_2
REMARK    2  A    between atoms: O_2  and  C_3
REMARK    3  A    between atoms: C_5  and  N_6
REMARK    4  A    between atoms: C_7  and  C_9
REMARK    5  A    between atoms: C_12  and  C_13
REMARK    6  A    between atoms: C_18  and  N_19
REMARK    7  A    between atoms: N_19  and  C_20
REMARK    8  A    between atoms: C_26  and  C_27
REMARK    9  A    between atoms: C_29  and  O_30
REMARK   10  A    between atoms: O_30  and  C_31
REMARK   11  A    between atoms: C_32  and  O_33
REMARK   12  A    between atoms: O_33  and  C_34
REMARK                            x       y       z     vdW  Elec       q    Type
REMARK                         _______ _______ _______ _____ _____    ______ ____
ROOT
ATOM      1  C   UNL     1       0.747  11.573  18.717  0.00  0.00    +0.000 A 
ATOM      2  C   UNL     1       1.887  12.355  18.483  0.00  0.00    +0.000 A 
ATOM      3  C   UNL     1       1.804  13.745  18.539  0.00  0.00    +0.000 A 
ATOM      4  C   UNL     1       0.576  14.335  18.818  0.00  0.00    +0.000 A 
ATOM      5  N   UNL     1      -0.524  13.577  19.074  0.00  0.00    +0.000 NA
ATOM      6  C   UNL     1      -0.459  12.222  19.020  0.00  0.00    +0.000 A 
ENDROOT
BRANCH   1   8
ATOM      7  N   UNL     1       1.716   9.395  19.284  0.00  0.00    +0.000 N 
ATOM      8  C   UNL     1       0.791  10.099  18.518  0.00  0.00    +0.000 C 
ATOM      9  O   UNL     1       0.037   9.626  17.673  0.00  0.00    +0.000 OA
ATOM     10  H   UNL     1       2.130   9.864  20.080  0.00  0.00    +0.000 HD
BRANCH   7  13
ATOM     11  C   UNL     1       3.525   6.443  17.827  0.00  0.00    +0.000 A 
ATOM     12  C   UNL     1       2.949   7.721  17.951  0.00  0.00    +0.000 A 
ATOM     13  C   UNL     1       2.168   8.072  19.048  0.00  0.00    +0.000 A 
ATOM     14  C   UNL     1       1.889   7.081  19.991  0.00  0.00    +0.000 A 
ATOM     15  C   UNL     1       2.390   5.770  19.849  0.00  0.00    +0.000 A 
ATOM     16  C   UNL     1       3.208   5.429  18.750  0.00  0.00    +0.000 A 
BRANCH  11  18
ATOM     17  C   UNL     1       5.660   6.809  16.868  0.00  0.00    +0.000 C 
ATOM     18  O   UNL     1       4.381   6.178  16.786  0.00  0.00    +0.000 OA
ENDBRANCH  11  18
BRANCH  15  19
ATOM     19  O   UNL     1       1.967   4.936  20.859  0.00  0.00    +0.000 OA
ATOM     20  C   UNL     1       0.986   3.954  20.535  0.00  0.00    +0.000 C 
ENDBRANCH  15  19
BRANCH  16  21
ATOM     21  O   UNL     1       3.581   4.114  18.664  0.00  0.00    +0.000 OA
ATOM     22  C   UNL     1       4.803   3.672  19.233  0.00  0.00    +0.000 C 
ENDBRANCH  16  21
ENDBRANCH   7  13
ENDBRANCH   1   8
BRANCH   4  23
ATOM     23  C   UNL     1       0.421  15.852  18.813  0.00  0.00    +0.000 C 
ATOM     24  F   UNL     1      -0.628  16.277  18.039  0.00  0.00    +0.000 F 
ATOM     25  F   UNL     1       0.195  16.374  20.048  0.00  0.00    +0.000 F 
ATOM     26  F   UNL     1       1.515  16.498  18.318  0.00  0.00    +0.000 F 
ENDBRANCH   4  23
BRANCH   6  27
ATOM     27  N   UNL     1      -1.625  11.502  19.354  0.00  0.00    +0.000 N 
ATOM     28  H   UNL     1      -1.417  10.561  19.679  0.00  0.00    +0.000 HD
BRANCH  27  29
ATOM     29  C   UNL     1      -2.938  11.756  18.902  0.00  0.00    +0.000 A 
ATOM     30  C   UNL     1      -3.300  11.383  17.593  0.00  0.00    +0.000 A 
ATOM     31  C   UNL     1      -4.580  11.606  17.085  0.00  0.00    +0.000 A 
ATOM     32  C   UNL     1      -5.533  12.208  17.891  0.00  0.00    +0.000 A 
ATOM     33 CL   UNL     1      -7.111  12.500  17.272  0.00  0.00    +0.000 Cl
ATOM     34  C   UNL     1      -5.211  12.581  19.195  0.00  0.00    +0.000 A 
ATOM     35  C   UNL     1      -3.920  12.358  19.717  0.00  0.00    +0.000 A 
ATOM     36  C   UNL     1      -3.641  12.793  21.130  0.00  0.00    +0.000 C 
ENDBRANCH  27  29
ENDBRANCH   6  27
TORSDOF 8
ENDMDL
