MODEL 1
REMARK VINA RESULT:      -8.8      0.000      0.000
REMARK  Name = 
REMARK  8 active torsions:
REMARK  status: ('A' for Active; 'I' for Inactive)
REMARK    1  A    between atoms: C_1  and  O_2
REMARK    2  A    between atoms: O_2  and  C_3
REMARK    3  A    between atoms: C_6  and  C_7
REMARK    4  A    between atoms: C_7  and  C_8
REMARK    5  A    between atoms: C_8  and  N_9
REMARK    6  A    between atoms: C_10  and  C_12
REMARK    7  A    between atoms: N_20  and  S_21
REMARK    8  A    between atoms: S_21  and  C_24
REMARK                            x       y       z     vdW  Elec       q    Type
REMARK                         _______ _______ _______ _____ _____    ______ ____
ROOT
ATOM      1  C   UNL     1       2.303   7.098  19.197  0.00  0.00    +0.000 A 
ATOM      2  C   UNL     1       2.352   7.968  18.080  0.00  0.00    +0.000 A 
ATOM      3  C   UNL     1       1.818   9.273  18.164  0.00  0.00    +0.000 A 
ATOM      4  C   UNL     1       1.203   9.656  19.349  0.00  0.00    +0.000 A 
ATOM      5  C   UNL     1       1.277   8.831  20.480  0.00  0.00    +0.000 A 
ATOM      6  C   UNL     1       1.860   7.579  20.435  0.00  0.00    +0.000 A 
ATOM      7  C   UNL     1       0.243   9.243  21.491  0.00  0.00    +0.000 C 
ATOM      8  C   UNL     1      -0.823   9.682  20.490  0.00  0.00    +0.000 C 
ATOM      9  N   UNL     1      -0.035  10.390  19.445  0.00  0.00    +0.000 N 
ENDROOT
BRANCH   1  11
ATOM     10  N   UNL     1       2.328   5.011  17.853  0.00  0.00    +0.000 N 
ATOM     11  C   UNL     1       2.352   5.603  19.106  0.00  0.00    +0.000 C 
ATOM     12  O   UNL     1       2.394   4.938  20.135  0.00  0.00    +0.000 OA
ATOM     13  H   UNL     1       2.549   5.554  17.035  0.00  0.00    +0.000 HD
BRANCH  10  14
ATOM     14  C   UNL     1       2.385   3.557  17.796  0.00  0.00    +0.000 C 
BRANCH  14  15
ATOM     15  C   UNL     1       3.790   2.992  17.560  0.00  0.00    +0.000 C 
BRANCH  15  19
ATOM     16  C   UNL     1       6.791   5.997  16.737  0.00  0.00    +0.000 A 
ATOM     17  C   UNL     1       6.579   5.556  18.040  0.00  0.00    +0.000 A 
ATOM     18  C   UNL     1       5.617   4.582  18.319  0.00  0.00    +0.000 A 
ATOM     19  C   UNL     1       4.832   4.051  17.288  0.00  0.00    +0.000 A 
ATOM     20  C   UNL     1       5.044   4.499  15.979  0.00  0.00    +0.000 A 
ATOM     21  C   UNL     1       6.018   5.465  15.706  0.00  0.00    +0.000 A 
BRANCH  16  23
ATOM     22  C   UNL     1       7.797   7.957  17.604  0.00  0.00    +0.000 C 
ATOM     23  O   UNL     1       7.751   6.957  16.592  0.00  0.00    +0.000 OA
ENDBRANCH  16  23
ENDBRANCH  15  19
ENDBRANCH  14  15
ENDBRANCH  10  14
ENDBRANCH   1  11
BRANCH   9  24
ATOM     24  S   UNL     1      -0.161  12.065  19.390  0.00  0.00    +0.000 S 
ATOM     25  O   UNL     1       1.148  12.639  19.611  0.00  0.00    +0.000 OA
ATOM     26  O   UNL     1      -0.910  12.397  18.191  0.00  0.00    +0.000 OA
BRANCH  24  27
ATOM     27  C   UNL     1      -1.197  12.604  20.766  0.00  0.00    +0.000 A 
ATOM     28  C   UNL     1      -2.584  12.617  20.587  0.00  0.00    +0.000 A 
ATOM     29  C   UNL     1      -3.438  12.642  21.697  0.00  0.00    +0.000 A 
ATOM     30  C   UNL     1      -2.907  12.660  22.986  0.00  0.00    +0.000 A 
ATOM     31 CL   UNL     1      -3.962  12.544  24.343  0.00  0.00    +0.000 Cl
ATOM     32  C   UNL     1      -1.527  12.707  23.178  0.00  0.00    +0.000 A 
ATOM     33  C   UNL     1      -0.666  12.672  22.069  0.00  0.00    +0.000 A 
ENDBRANCH  24  27
ENDBRANCH   9  24
TORSDOF 7
ENDMDL
MODEL 2
REMARK VINA RESULT:      -8.7      2.673      3.174
REMARK  Name = 
REMARK  8 active torsions:
REMARK  status: ('A' for Active; 'I' for Inactive)
REMARK    1  A    between atoms: C_1  and  O_2
REMARK    2  A    between atoms: O_2  and  C_3
REMARK    3  A    between atoms: C_6  and  C_7
REMARK    4  A    between atoms: C_7  and  C_8
REMARK    5  A    between atoms: C_8  and  N_9
REMARK    6  A    between atoms: C_10  and  C_12
REMARK    7  A    between atoms: N_20  and  S_21
REMARK    8  A    between atoms: S_21  and  C_24
REMARK                            x       y       z     vdW  Elec       q    Type
REMARK                         _______ _______ _______ _____ _____    ______ ____
ROOT
ATOM      1  C   UNL     1       2.253   7.176  19.125  0.00  0.00    +0.000 A 
ATOM      2  C   UNL     1       2.279   8.013  17.981  0.00  0.00    +0.000 A 
ATOM      3  C   UNL     1       1.765   9.328  18.044  0.00  0.00    +0.000 A 
ATOM      4  C   UNL     1       1.194   9.754  19.237  0.00  0.00    +0.000 A 
ATOM      5  C   UNL     1       1.293   8.961  20.388  0.00  0.00    +0.000 A 
ATOM      6  C   UNL     1       1.856   7.699  20.362  0.00  0.00    +0.000 A 
ATOM      7  C   UNL     1       0.297   9.416  21.418  0.00  0.00    +0.000 C 
ATOM      8  C   UNL     1      -0.794   9.842  20.439  0.00  0.00    +0.000 C 
ATOM      9  N   UNL     1      -0.029  10.509  19.350  0.00  0.00    +0.000 N 
ENDROOT
BRANCH   1  11
ATOM     10  N   UNL     1       2.314   5.054  17.839  0.00  0.00    +0.000 N 
ATOM     11  C   UNL     1       2.278   5.679  19.076  0.00  0.00    +0.000 C 
ATOM     12  O   UNL     1       2.250   5.041  20.123  0.00  0.00    +0.000 OA
ATOM     13  H   UNL     1       2.591   5.570  17.021  0.00  0.00    +0.000 HD
BRANCH  10  14
ATOM     14  C   UNL     1       2.346   3.598  17.823  0.00  0.00    +0.000 C 
BRANCH  14  15
ATOM     15  C   UNL     1       3.728   3.003  17.530  0.00  0.00    +0.000 C 
BRANCH  15  19
ATOM     16  C   UNL     1       6.796   5.949  16.748  0.00  0.00    +0.000 A 
ATOM     17  C   UNL     1       6.556   5.515  18.047  0.00  0.00    +0.000 A 
ATOM     18  C   UNL     1       5.573   4.560  18.313  0.00  0.00    +0.000 A 
ATOM     19  C   UNL     1       4.793   4.041  17.272  0.00  0.00    +0.000 A 
ATOM     20  C   UNL     1       5.032   4.483  15.966  0.00  0.00    +0.000 A 
ATOM     21  C   UNL     1       6.029   5.430  15.706  0.00  0.00    +0.000 A 
BRANCH  16  23
ATOM     22  C   UNL     1       7.782   7.932  17.586  0.00  0.00    +0.000 C 
ATOM     23  O   UNL     1       7.776   6.891  16.615  0.00  0.00    +0.000 OA
ENDBRANCH  16  23
ENDBRANCH  15  19
ENDBRANCH  14  15
ENDBRANCH  10  14
ENDBRANCH   1  11
BRANCH   9  24
ATOM     24  S   UNL     1      -0.134  12.183  19.250  0.00  0.00    +0.000 S 
ATOM     25  O   UNL     1      -0.653  12.541  17.948  0.00  0.00    +0.000 OA
ATOM     26  O   UNL     1      -0.804  12.640  20.455  0.00  0.00    +0.000 OA
BRANCH  24  27
ATOM     27  C   UNL     1       1.534  12.864  19.343  0.00  0.00    +0.000 A 
ATOM     28  C   UNL     1       2.117  13.356  18.170  0.00  0.00    +0.000 A 
ATOM     29  C   UNL     1       3.210  14.229  18.238  0.00  0.00    +0.000 A 
ATOM     30  C   UNL     1       3.727  14.605  19.477  0.00  0.00    +0.000 A 
ATOM     31 CL   UNL     1       4.976  15.789  19.555  0.00  0.00    +0.000 Cl
ATOM     32  C   UNL     1       3.194  14.076  20.652  0.00  0.00    +0.000 A 
ATOM     33  C   UNL     1       2.092  13.208  20.590  0.00  0.00    +0.000 A 
ENDBRANCH  24  27
ENDBRANCH   9  24
TORSDOF 7
ENDMDL
MODEL 3
REMARK VINA RESULT:      -8.7      1.765      2.330
REMARK  Name = 
REMARK  8 active torsions:
REMARK  status: ('A' for Active; 'I' for Inactive)
REMARK    1  A    between atoms: C_1  and  O_2
REMARK    2  A    between atoms: O_2  and  C_3
REMARK    3  A    between atoms: C_6  and  C_7
REMARK    4  A    between atoms: C_7  and  C_8
REMARK    5  A    between atoms: C_8  and  N_9
REMARK    6  A    between atoms: C_10  and  C_12
REMARK    7  A    between atoms: N_20  and  S_21
REMARK    8  A    between atoms: S_21  and  C_24
REMARK                            x       y       z     vdW  Elec       q    Type
REMARK                         _______ _______ _______ _____ _____    ______ ____
ROOT
ATOM      1  C   UNL     1       2.312   7.104  19.421  0.00  0.00    +0.000 A 
ATOM      2  C   UNL     1       2.167   7.903  18.258  0.00  0.00    +0.000 A 
ATOM      3  C   UNL     1       1.525   9.158  18.328  0.00  0.00    +0.000 A 
ATOM      4  C   UNL     1       1.000   9.562  19.549  0.00  0.00    +0.000 A 
ATOM      5  C   UNL     1       1.264   8.820  20.709  0.00  0.00    +0.000 A 
ATOM      6  C   UNL     1       1.954   7.623  20.671  0.00  0.00    +0.000 A 
ATOM      7  C   UNL     1       0.303   9.204  21.800  0.00  0.00    +0.000 C 
ATOM      8  C   UNL     1      -0.894   9.483  20.895  0.00  0.00    +0.000 C 
ATOM      9  N   UNL     1      -0.285  10.190  19.736  0.00  0.00    +0.000 N 
ENDROOT
BRANCH   1  11
ATOM     10  N   UNL     1       2.319   4.937  18.211  0.00  0.00    +0.000 N 
ATOM     11  C   UNL     1       2.491   5.617  19.407  0.00  0.00    +0.000 C 
ATOM     12  O   UNL     1       2.767   5.033  20.449  0.00  0.00    +0.000 OA
ATOM     13  H   UNL     1       2.348   5.437  17.339  0.00  0.00    +0.000 HD
BRANCH  10  14
ATOM     14  C   UNL     1       2.507   3.493  18.226  0.00  0.00    +0.000 C 
BRANCH  14  15
ATOM     15  C   UNL     1       3.709   3.007  17.409  0.00  0.00    +0.000 C 
BRANCH  15  19
ATOM     16  C   UNL     1       6.770   6.026  16.936  0.00  0.00    +0.000 A 
ATOM     17  C   UNL     1       5.935   5.702  15.872  0.00  0.00    +0.000 A 
ATOM     18  C   UNL     1       4.938   4.733  16.012  0.00  0.00    +0.000 A 
ATOM     19  C   UNL     1       4.782   4.053  17.227  0.00  0.00    +0.000 A 
ATOM     20  C   UNL     1       5.626   4.378  18.295  0.00  0.00    +0.000 A 
ATOM     21  C   UNL     1       6.613   5.359  18.150  0.00  0.00    +0.000 A 
BRANCH  16  23
ATOM     22  C   UNL     1       7.775   8.067  17.593  0.00  0.00    +0.000 C 
ATOM     23  O   UNL     1       7.710   6.981  16.674  0.00  0.00    +0.000 OA
ENDBRANCH  16  23
ENDBRANCH  15  19
ENDBRANCH  14  15
ENDBRANCH  10  14
ENDBRANCH   1  11
BRANCH   9  24
ATOM     24  S   UNL     1      -0.571  11.841  19.604  0.00  0.00    +0.000 S 
ATOM     25  O   UNL     1      -0.513  12.431  20.923  0.00  0.00    +0.000 OA
ATOM     26  O   UNL     1       0.286  12.338  18.542  0.00  0.00    +0.000 OA
BRANCH  24  27
ATOM     27  C   UNL     1      -2.258  12.080  19.008  0.00  0.00    +0.000 A 
ATOM     28  C   UNL     1      -2.620  11.498  17.788  0.00  0.00    +0.000 A 
ATOM     29  C   UNL     1      -3.971  11.314  17.469  0.00  0.00    +0.000 A 
ATOM     30  C   UNL     1      -4.961  11.717  18.363  0.00  0.00    +0.000 A 
ATOM     31 CL   UNL     1      -6.611  11.356  18.026  0.00  0.00    +0.000 Cl
ATOM     32  C   UNL     1      -4.617  12.352  19.556  0.00  0.00    +0.000 A 
ATOM     33  C   UNL     1      -3.263  12.530  19.886  0.00  0.00    +0.000 A 
ENDBRANCH  24  27
ENDBRANCH   9  24
TORSDOF 7
ENDMDL
MODEL 4
REMARK VINA RESULT:      -8.5      0.575      1.334
REMARK  Name = 
REMARK  8 active torsions:
REMARK  status: ('A' for Active; 'I' for Inactive)
REMARK    1  A    between atoms: C_1  and  O_2
REMARK    2  A    between atoms: O_2  and  C_3
REMARK    3  A    between atoms: C_6  and  C_7
REMARK    4  A    between atoms: C_7  and  C_8
REMARK    5  A    between atoms: C_8  and  N_9
REMARK    6  A    between atoms: C_10  and  C_12
REMARK    7  A    between atoms: N_20  and  S_21
REMARK    8  A    between atoms: S_21  and  C_24
REMARK                            x       y       z     vdW  Elec       q    Type
REMARK                         _______ _______ _______ _____ _____    ______ ____
ROOT
ATOM      1  C   UNL     1       2.297   6.974  19.263  0.00  0.00    +0.000 A 
ATOM      2  C   UNL     1       2.221   7.860  18.159  0.00  0.00    +0.000 A 
ATOM      3  C   UNL     1       1.668   9.151  18.313  0.00  0.00    +0.000 A 
ATOM      4  C   UNL     1       1.161   9.504  19.558  0.00  0.00    +0.000 A 
ATOM      5  C   UNL     1       1.360   8.666  20.663  0.00  0.00    +0.000 A 
ATOM      6  C   UNL     1       1.964   7.429  20.545  0.00  0.00    +0.000 A 
ATOM      7  C   UNL     1       0.419   9.040  21.774  0.00  0.00    +0.000 C 
ATOM      8  C   UNL     1      -0.747   9.467  20.885  0.00  0.00    +0.000 C 
ATOM      9  N   UNL     1      -0.077  10.208  19.781  0.00  0.00    +0.000 N 
ENDROOT
BRANCH   1  11
ATOM     10  N   UNL     1       2.414   4.916  17.880  0.00  0.00    +0.000 N 
ATOM     11  C   UNL     1       2.370   5.482  19.145  0.00  0.00    +0.000 C 
ATOM     12  O   UNL     1       2.372   4.797  20.162  0.00  0.00    +0.000 OA
ATOM     13  H   UNL     1       2.665   5.477  17.085  0.00  0.00    +0.000 HD
BRANCH  10  14
ATOM     14  C   UNL     1       2.492   3.464  17.797  0.00  0.00    +0.000 C 
BRANCH  14  15
ATOM     15  C   UNL     1       3.877   2.930  17.414  0.00  0.00    +0.000 C 
BRANCH  15  19
ATOM     16  C   UNL     1       6.830   6.053  16.928  0.00  0.00    +0.000 A 
ATOM     17  C   UNL     1       6.071   5.631  15.841  0.00  0.00    +0.000 A 
ATOM     18  C   UNL     1       5.109   4.627  15.986  0.00  0.00    +0.000 A 
ATOM     19  C   UNL     1       4.914   4.012  17.229  0.00  0.00    +0.000 A 
ATOM     20  C   UNL     1       5.681   4.435  18.319  0.00  0.00    +0.000 A 
ATOM     21  C   UNL     1       6.633   5.450  18.169  0.00  0.00    +0.000 A 
BRANCH  16  23
ATOM     22  C   UNL     1       7.767   8.132  17.566  0.00  0.00    +0.000 C 
ATOM     23  O   UNL     1       7.742   7.034  16.660  0.00  0.00    +0.000 OA
ENDBRANCH  16  23
ENDBRANCH  15  19
ENDBRANCH  14  15
ENDBRANCH  10  14
ENDBRANCH   1  11
BRANCH   9  24
ATOM     24  S   UNL     1      -0.245  11.880  19.764  0.00  0.00    +0.000 S 
ATOM     25  O   UNL     1       1.053  12.481  19.978  0.00  0.00    +0.000 OA
ATOM     26  O   UNL     1      -1.020  12.218  18.584  0.00  0.00    +0.000 OA
BRANCH  24  27
ATOM     27  C   UNL     1      -1.273  12.364  21.166  0.00  0.00    +0.000 A 
ATOM     28  C   UNL     1      -0.639  12.777  22.343  0.00  0.00    +0.000 A 
ATOM     29  C   UNL     1      -1.343  13.518  23.300  0.00  0.00    +0.000 A 
ATOM     30  C   UNL     1      -2.683  13.839  23.088  0.00  0.00    +0.000 A 
ATOM     31 CL   UNL     1      -3.499  14.870  24.200  0.00  0.00    +0.000 Cl
ATOM     32  C   UNL     1      -3.344  13.383  21.947  0.00  0.00    +0.000 A 
ATOM     33  C   UNL     1      -2.640  12.649  20.978  0.00  0.00    +0.000 A 
ENDBRANCH  24  27
ENDBRANCH   9  24
TORSDOF 7
ENDMDL
MODEL 5
REMARK VINA RESULT:      -8.4      2.043      2.670
REMARK  Name = 
REMARK  8 active torsions:
REMARK  status: ('A' for Active; 'I' for Inactive)
REMARK    1  A    between atoms: C_1  and  O_2
REMARK    2  A    between atoms: O_2  and  C_3
REMARK    3  A    between atoms: C_6  and  C_7
REMARK    4  A    between atoms: C_7  and  C_8
REMARK    5  A    between atoms: C_8  and  N_9
REMARK    6  A    between atoms: C_10  and  C_12
REMARK    7  A    between atoms: N_20  and  S_21
REMARK    8  A    between atoms: S_21  and  C_24
REMARK                            x       y       z     vdW  Elec       q    Type
REMARK                         _______ _______ _______ _____ _____    ______ ____
ROOT
ATOM      1  C   UNL     1       2.237   7.424  18.955  0.00  0.00    +0.000 A 
ATOM      2  C   UNL     1       1.890   8.347  17.936  0.00  0.00    +0.000 A 
ATOM      3  C   UNL     1       1.205   9.541  18.254  0.00  0.00    +0.000 A 
ATOM      4  C   UNL     1       0.841   9.757  19.578  0.00  0.00    +0.000 A 
ATOM      5  C   UNL     1       1.304   8.899  20.584  0.00  0.00    +0.000 A 
ATOM      6  C   UNL     1       2.037   7.763  20.298  0.00  0.00    +0.000 A 
ATOM      7  C   UNL     1       0.492   9.083  21.837  0.00  0.00    +0.000 C 
ATOM      8  C   UNL     1      -0.835   9.392  21.147  0.00  0.00    +0.000 C 
ATOM      9  N   UNL     1      -0.432  10.272  20.017  0.00  0.00    +0.000 N 
ENDROOT
BRANCH   1  11
ATOM     10  N   UNL     1       3.056   5.217  19.741  0.00  0.00    +0.000 N 
ATOM     11  C   UNL     1       2.483   5.965  18.723  0.00  0.00    +0.000 C 
ATOM     12  O   UNL     1       2.192   5.469  17.640  0.00  0.00    +0.000 OA
ATOM     13  H   UNL     1       3.052   5.563  20.684  0.00  0.00    +0.000 HD
BRANCH  10  14
ATOM     14  C   UNL     1       3.276   3.799  19.489  0.00  0.00    +0.000 C 
BRANCH  14  15
ATOM     15  C   UNL     1       4.752   3.394  19.422  0.00  0.00    +0.000 C 
BRANCH  15  19
ATOM     16  C   UNL     1       6.851   5.078  16.036  0.00  0.00    +0.000 A 
ATOM     17  C   UNL     1       5.742   4.262  15.838  0.00  0.00    +0.000 A 
ATOM     18  C   UNL     1       5.051   3.717  16.923  0.00  0.00    +0.000 A 
ATOM     19  C   UNL     1       5.484   3.965  18.231  0.00  0.00    +0.000 A 
ATOM     20  C   UNL     1       6.603   4.782  18.428  0.00  0.00    +0.000 A 
ATOM     21  C   UNL     1       7.281   5.335  17.337  0.00  0.00    +0.000 A 
BRANCH  16  23
ATOM     22  C   UNL     1       7.116   4.864  13.693  0.00  0.00    +0.000 C 
ATOM     23  O   UNL     1       7.447   5.544  14.898  0.00  0.00    +0.000 OA
ENDBRANCH  16  23
ENDBRANCH  15  19
ENDBRANCH  14  15
ENDBRANCH  10  14
ENDBRANCH   1  11
BRANCH   9  24
ATOM     24  S   UNL     1      -0.813  11.905  20.140  0.00  0.00    +0.000 S 
ATOM     25  O   UNL     1      -0.962  12.244  21.538  0.00  0.00    +0.000 OA
ATOM     26  O   UNL     1       0.136  12.627  19.311  0.00  0.00    +0.000 OA
BRANCH  24  27
ATOM     27  C   UNL     1      -2.423  12.173  19.371  0.00  0.00    +0.000 A 
ATOM     28  C   UNL     1      -2.672  11.580  18.128  0.00  0.00    +0.000 A 
ATOM     29  C   UNL     1      -3.987  11.422  17.674  0.00  0.00    +0.000 A 
ATOM     30  C   UNL     1      -5.054  11.863  18.456  0.00  0.00    +0.000 A 
ATOM     31 CL   UNL     1      -6.669  11.535  17.956  0.00  0.00    +0.000 Cl
ATOM     32  C   UNL     1      -4.818  12.509  19.669  0.00  0.00    +0.000 A 
ATOM     33  C   UNL     1      -3.502  12.661  20.135  0.00  0.00    +0.000 A 
ENDBRANCH  24  27
ENDBRANCH   9  24
TORSDOF 7
ENDMDL
MODEL 6
REMARK VINA RESULT:      -8.4      0.872      1.222
REMARK  Name = 
REMARK  8 active torsions:
REMARK  status: ('A' for Active; 'I' for Inactive)
REMARK    1  A    between atoms: C_1  and  O_2
REMARK    2  A    between atoms: O_2  and  C_3
REMARK    3  A    between atoms: C_6  and  C_7
REMARK    4  A    between atoms: C_7  and  C_8
REMARK    5  A    between atoms: C_8  and  N_9
REMARK    6  A    between atoms: C_10  and  C_12
REMARK    7  A    between atoms: N_20  and  S_21
REMARK    8  A    between atoms: S_21  and  C_24
REMARK                            x       y       z     vdW  Elec       q    Type
REMARK                         _______ _______ _______ _____ _____    ______ ____
ROOT
ATOM      1  C   UNL     1       2.305   7.197  19.136  0.00  0.00    +0.000 A 
ATOM      2  C   UNL     1       2.390   8.016  17.982  0.00  0.00    +0.000 A 
ATOM      3  C   UNL     1       1.854   9.323  17.991  0.00  0.00    +0.000 A 
ATOM      4  C   UNL     1       1.203   9.758  19.139  0.00  0.00    +0.000 A 
ATOM      5  C   UNL     1       1.242   8.985  20.307  0.00  0.00    +0.000 A 
ATOM      6  C   UNL     1       1.825   7.733  20.337  0.00  0.00    +0.000 A 
ATOM      7  C   UNL     1       0.177   9.441  21.266  0.00  0.00    +0.000 C 
ATOM      8  C   UNL     1      -0.857   9.833  20.214  0.00  0.00    +0.000 C 
ATOM      9  N   UNL     1      -0.037  10.495  19.163  0.00  0.00    +0.000 N 
ENDROOT
BRANCH   1  11
ATOM     10  N   UNL     1       2.333   5.051  17.889  0.00  0.00    +0.000 N 
ATOM     11  C   UNL     1       2.357   5.699  19.114  0.00  0.00    +0.000 C 
ATOM     12  O   UNL     1       2.401   5.083  20.172  0.00  0.00    +0.000 OA
ATOM     13  H   UNL     1       2.551   5.556  17.047  0.00  0.00    +0.000 HD
BRANCH  10  14
ATOM     14  C   UNL     1       2.392   3.596  17.898  0.00  0.00    +0.000 C 
BRANCH  14  15
ATOM     15  C   UNL     1       3.777   3.021  17.583  0.00  0.00    +0.000 C 
BRANCH  15  19
ATOM     16  C   UNL     1       6.787   6.011  16.745  0.00  0.00    +0.000 A 
ATOM     17  C   UNL     1       6.581   5.570  18.048  0.00  0.00    +0.000 A 
ATOM     18  C   UNL     1       5.616   4.600  18.332  0.00  0.00    +0.000 A 
ATOM     19  C   UNL     1       4.822   4.075  17.306  0.00  0.00    +0.000 A 
ATOM     20  C   UNL     1       5.027   4.523  15.996  0.00  0.00    +0.000 A 
ATOM     21  C   UNL     1       6.005   5.485  15.718  0.00  0.00    +0.000 A 
BRANCH  16  23
ATOM     22  C   UNL     1       7.861   7.918  17.648  0.00  0.00    +0.000 C 
ATOM     23  O   UNL     1       7.751   6.967  16.595  0.00  0.00    +0.000 OA
ENDBRANCH  16  23
ENDBRANCH  15  19
ENDBRANCH  14  15
ENDBRANCH  10  14
ENDBRANCH   1  11
BRANCH   9  24
ATOM     24  S   UNL     1      -0.160  12.166  19.030  0.00  0.00    +0.000 S 
ATOM     25  O   UNL     1       1.171  12.729  18.972  0.00  0.00    +0.000 OA
ATOM     26  O   UNL     1      -1.115  12.438  17.969  0.00  0.00    +0.000 OA
BRANCH  24  27
ATOM     27  C   UNL     1      -0.924  12.803  20.536  0.00  0.00    +0.000 A 
ATOM     28  C   UNL     1      -0.089  13.211  21.582  0.00  0.00    +0.000 A 
ATOM     29  C   UNL     1      -0.579  14.054  22.587  0.00  0.00    +0.000 A 
ATOM     30  C   UNL     1      -1.905  14.484  22.552  0.00  0.00    +0.000 A 
ATOM     31 CL   UNL     1      -2.458  15.633  23.710  0.00  0.00    +0.000 Cl
ATOM     32  C   UNL     1      -2.764  14.038  21.548  0.00  0.00    +0.000 A 
ATOM     33  C   UNL     1      -2.275  13.200  20.532  0.00  0.00    +0.000 A 
ENDBRANCH  24  27
ENDBRANCH   9  24
TORSDOF 7
ENDMDL
MODEL 7
REMARK VINA RESULT:      -8.3      1.502      1.828
REMARK  Name = 
REMARK  8 active torsions:
REMARK  status: ('A' for Active; 'I' for Inactive)
REMARK    1  A    between atoms: C_1  and  O_2
REMARK    2  A    between atoms: O_2  and  C_3
REMARK    3  A    between atoms: C_6  and  C_7
REMARK    4  A    between atoms: C_7  and  C_8
REMARK    5  A    between atoms: C_8  and  N_9
REMARK    6  A    between atoms: C_10  and  C_12
REMARK    7  A    between atoms: N_20  and  S_21
REMARK    8  A    between atoms: S_21  and  C_24
REMARK                            x       y       z     vdW  Elec       q    Type
REMARK                         _______ _______ _______ _____ _____    ______ ____
ROOT
ATOM      1  C   UNL     1       2.213   7.023  18.801  0.00  0.00    +0.000 A 
ATOM      2  C   UNL     1       1.936   8.043  17.856  0.00  0.00    +0.000 A 
ATOM      3  C   UNL     1       1.434   9.294  18.280  0.00  0.00    +0.000 A 
ATOM      4  C   UNL     1       1.177   9.475  19.633  0.00  0.00    +0.000 A 
ATOM      5  C   UNL     1       1.576   8.504  20.562  0.00  0.00    +0.000 A 
ATOM      6  C   UNL     1       2.135   7.302  20.170  0.00  0.00    +0.000 A 
ATOM      7  C   UNL     1       0.867   8.716  21.871  0.00  0.00    +0.000 C 
ATOM      8  C   UNL     1      -0.443   9.236  21.284  0.00  0.00    +0.000 C 
ATOM      9  N   UNL     1       0.011  10.124  20.179  0.00  0.00    +0.000 N 
ENDROOT
BRANCH   1  11
ATOM     10  N   UNL     1       3.053   4.729  19.242  0.00  0.00    +0.000 N 
ATOM     11  C   UNL     1       2.249   5.560  18.477  0.00  0.00    +0.000 C 
ATOM     12  O   UNL     1       1.585   5.135  17.538  0.00  0.00    +0.000 OA
ATOM     13  H   UNL     1       3.382   5.034  20.142  0.00  0.00    +0.000 HD
BRANCH  10  14
ATOM     14  C   UNL     1       3.061   3.311  18.908  0.00  0.00    +0.000 C 
BRANCH  14  15
ATOM     15  C   UNL     1       4.153   2.906  17.912  0.00  0.00    +0.000 C 
BRANCH  15  19
ATOM     16  C   UNL     1       6.840   6.113  16.812  0.00  0.00    +0.000 A 
ATOM     17  C   UNL     1       6.865   5.589  18.100  0.00  0.00    +0.000 A 
ATOM     18  C   UNL     1       6.007   4.549  18.467  0.00  0.00    +0.000 A 
ATOM     19  C   UNL     1       5.087   4.034  17.544  0.00  0.00    +0.000 A 
ATOM     20  C   UNL     1       5.060   4.566  16.250  0.00  0.00    +0.000 A 
ATOM     21  C   UNL     1       5.932   5.598  15.887  0.00  0.00    +0.000 A 
BRANCH  16  23
ATOM     22  C   UNL     1       7.873   8.082  17.623  0.00  0.00    +0.000 C 
ATOM     23  O   UNL     1       7.719   7.131  16.575  0.00  0.00    +0.000 OA
ENDBRANCH  16  23
ENDBRANCH  15  19
ENDBRANCH  14  15
ENDBRANCH  10  14
ENDBRANCH   1  11
BRANCH   9  24
ATOM     24  S   UNL     1      -0.142  11.781  20.412  0.00  0.00    +0.000 S 
ATOM     25  O   UNL     1      -0.006  12.068  21.823  0.00  0.00    +0.000 OA
ATOM     26  O   UNL     1       0.730  12.428  19.448  0.00  0.00    +0.000 OA
BRANCH  24  27
ATOM     27  C   UNL     1      -1.816  12.270  19.947  0.00  0.00    +0.000 A 
ATOM     28  C   UNL     1      -2.383  11.692  18.807  0.00  0.00    +0.000 A 
ATOM     29  C   UNL     1      -3.770  11.722  18.617  0.00  0.00    +0.000 A 
ATOM     30  C   UNL     1      -4.591  12.336  19.562  0.00  0.00    +0.000 A 
ATOM     31 CL   UNL     1      -6.303  12.242  19.393  0.00  0.00    +0.000 Cl
ATOM     32  C   UNL     1      -4.034  12.968  20.674  0.00  0.00    +0.000 A 
ATOM     33  C   UNL     1      -2.645  12.932  20.874  0.00  0.00    +0.000 A 
ENDBRANCH  24  27
ENDBRANCH   9  24
TORSDOF 7
ENDMDL
MODEL 8
REMARK VINA RESULT:      -8.2      1.155      1.817
REMARK  Name = 
REMARK  8 active torsions:
REMARK  status: ('A' for Active; 'I' for Inactive)
REMARK    1  A    between atoms: C_1  and  O_2
REMARK    2  A    between atoms: O_2  and  C_3
REMARK    3  A    between atoms: C_6  and  C_7
REMARK    4  A    between atoms: C_7  and  C_8
REMARK    5  A    between atoms: C_8  and  N_9
REMARK    6  A    between atoms: C_10  and  C_12
REMARK    7  A    between atoms: N_20  and  S_21
REMARK    8  A    between atoms: S_21  and  C_24
REMARK                            x       y       z     vdW  Elec       q    Type
REMARK                         _______ _______ _______ _____ _____    ______ ____
ROOT
ATOM      1  C   UNL     1       2.290   7.401  18.962  0.00  0.00    +0.000 A 
ATOM      2  C   UNL     1       2.176   8.326  17.894  0.00  0.00    +0.000 A 
ATOM      3  C   UNL     1       1.567   9.584  18.098  0.00  0.00    +0.000 A 
ATOM      4  C   UNL     1       1.043   9.865  19.354  0.00  0.00    +0.000 A 
ATOM      5  C   UNL     1       1.278   8.994  20.426  0.00  0.00    +0.000 A 
ATOM      6  C   UNL     1       1.935   7.789  20.260  0.00  0.00    +0.000 A 
ATOM      7  C   UNL     1       0.319   9.281  21.548  0.00  0.00    +0.000 C 
ATOM      8  C   UNL     1      -0.863   9.692  20.673  0.00  0.00    +0.000 C 
ATOM      9  N   UNL     1      -0.225  10.504  19.602  0.00  0.00    +0.000 N 
ENDROOT
BRANCH   1  11
ATOM     10  N   UNL     1       3.035   5.183  19.791  0.00  0.00    +0.000 N 
ATOM     11  C   UNL     1       2.429   5.920  18.785  0.00  0.00    +0.000 C 
ATOM     12  O   UNL     1       2.023   5.396  17.754  0.00  0.00    +0.000 OA
ATOM     13  H   UNL     1       3.127   5.572  20.714  0.00  0.00    +0.000 HD
BRANCH  10  14
ATOM     14  C   UNL     1       3.149   3.745  19.594  0.00  0.00    +0.000 C 
BRANCH  14  15
ATOM     15  C   UNL     1       4.587   3.247  19.413  0.00  0.00    +0.000 C 
BRANCH  15  19
ATOM     16  C   UNL     1       6.683   5.185  16.163  0.00  0.00    +0.000 A 
ATOM     17  C   UNL     1       5.584   4.373  15.903  0.00  0.00    +0.000 A 
ATOM     18  C   UNL     1       4.894   3.745  16.944  0.00  0.00    +0.000 A 
ATOM     19  C   UNL     1       5.318   3.908  18.269  0.00  0.00    +0.000 A 
ATOM     20  C   UNL     1       6.426   4.722  18.528  0.00  0.00    +0.000 A 
ATOM     21  C   UNL     1       7.103   5.357  17.481  0.00  0.00    +0.000 A 
BRANCH  16  23
ATOM     22  C   UNL     1       7.312   4.923  13.896  0.00  0.00    +0.000 C 
ATOM     23  O   UNL     1       7.279   5.736  15.064  0.00  0.00    +0.000 OA
ENDBRANCH  16  23
ENDBRANCH  15  19
ENDBRANCH  14  15
ENDBRANCH  10  14
ENDBRANCH   1  11
BRANCH   9  24
ATOM     24  S   UNL     1      -0.467  12.167  19.651  0.00  0.00    +0.000 S 
ATOM     25  O   UNL     1       0.819  12.822  19.756  0.00  0.00    +0.000 OA
ATOM     26  O   UNL     1      -1.368  12.499  18.562  0.00  0.00    +0.000 OA
BRANCH  24  27
ATOM     27  C   UNL     1      -1.372  12.567  21.160  0.00  0.00    +0.000 A 
ATOM     28  C   UNL     1      -0.643  12.969  22.284  0.00  0.00    +0.000 A 
ATOM     29  C   UNL     1      -1.279  13.651  23.329  0.00  0.00    +0.000 A 
ATOM     30  C   UNL     1      -2.643  13.926  23.255  0.00  0.00    +0.000 A 
ATOM     31 CL   UNL     1      -3.385  14.890  24.475  0.00  0.00    +0.000 Cl
ATOM     32  C   UNL     1      -3.394  13.480  22.167  0.00  0.00    +0.000 A 
ATOM     33  C   UNL     1      -2.760  12.804  21.112  0.00  0.00    +0.000 A 
ENDBRANCH  24  27
ENDBRANCH   9  24
TORSDOF 7
ENDMDL
MODEL 9
REMARK VINA RESULT:      -8.2      0.930      1.316
REMARK  Name = 
REMARK  8 active torsions:
REMARK  status: ('A' for Active; 'I' for Inactive)
REMARK    1  A    between atoms: C_1  and  O_2
REMARK    2  A    between atoms: O_2  and  C_3
REMARK    3  A    between atoms: C_6  and  C_7
REMARK    4  A    between atoms: C_7  and  C_8
REMARK    5  A    between atoms: C_8  and  N_9
REMARK    6  A    between atoms: C_10  and  C_12
REMARK    7  A    between atoms: N_20  and  S_21
REMARK    8  A    between atoms: S_21  and  C_24
REMARK                            x       y       z     vdW  Elec       q    Type
REMARK                         _______ _______ _______ _____ _____    ______ ____
ROOT
ATOM      1  C   UNL     1       2.267   6.954  19.161  0.00  0.00    +0.000 A 
ATOM      2  C   UNL     1       2.175   7.853  18.068  0.00  0.00    +0.000 A 
ATOM      3  C   UNL     1       1.641   9.148  18.249  0.00  0.00    +0.000 A 
ATOM      4  C   UNL     1       1.167   9.493  19.509  0.00  0.00    +0.000 A 
ATOM      5  C   UNL     1       1.383   8.642  20.600  0.00  0.00    +0.000 A 
ATOM      6  C   UNL     1       1.969   7.399  20.455  0.00  0.00    +0.000 A 
ATOM      7  C   UNL     1       0.472   9.014  21.737  0.00  0.00    +0.000 C 
ATOM      8  C   UNL     1      -0.710   9.463  20.881  0.00  0.00    +0.000 C 
ATOM      9  N   UNL     1      -0.058  10.208  19.769  0.00  0.00    +0.000 N 
ENDROOT
BRANCH   1  11
ATOM     10  N   UNL     1       2.318   4.910  17.754  0.00  0.00    +0.000 N 
ATOM     11  C   UNL     1       2.321   5.463  19.026  0.00  0.00    +0.000 C 
ATOM     12  O   UNL     1       2.349   4.767  20.035  0.00  0.00    +0.000 OA
ATOM     13  H   UNL     1       2.550   5.477  16.957  0.00  0.00    +0.000 HD
BRANCH  10  14
ATOM     14  C   UNL     1       2.379   3.458  17.655  0.00  0.00    +0.000 C 
BRANCH  14  15
ATOM     15  C   UNL     1       3.785   2.904  17.400  0.00  0.00    +0.000 C 
BRANCH  15  19
ATOM     16  C   UNL     1       6.784   5.939  16.689  0.00  0.00    +0.000 A 
ATOM     17  C   UNL     1       6.516   5.508  17.984  0.00  0.00    +0.000 A 
ATOM     18  C   UNL     1       5.554   4.524  18.227  0.00  0.00    +0.000 A 
ATOM     19  C   UNL     1       4.825   3.973  17.166  0.00  0.00    +0.000 A 
ATOM     20  C   UNL     1       5.092   4.411  15.864  0.00  0.00    +0.000 A 
ATOM     21  C   UNL     1       6.066   5.387  15.628  0.00  0.00    +0.000 A 
BRANCH  16  23
ATOM     22  C   UNL     1       7.779   7.870  17.630  0.00  0.00    +0.000 C 
ATOM     23  O   UNL     1       7.738   6.910  16.579  0.00  0.00    +0.000 OA
ENDBRANCH  16  23
ENDBRANCH  15  19
ENDBRANCH  14  15
ENDBRANCH  10  14
ENDBRANCH   1  11
BRANCH   9  24
ATOM     24  S   UNL     1      -0.207  11.882  19.773  0.00  0.00    +0.000 S 
ATOM     25  O   UNL     1       0.790  12.437  20.662  0.00  0.00    +0.000 OA
ATOM     26  O   UNL     1      -0.267  12.307  18.386  0.00  0.00    +0.000 OA
BRANCH  24  27
ATOM     27  C   UNL     1      -1.814  12.309  20.474  0.00  0.00    +0.000 A 
ATOM     28  C   UNL     1      -1.849  13.144  21.596  0.00  0.00    +0.000 A 
ATOM     29  C   UNL     1      -3.030  13.813  21.941  0.00  0.00    +0.000 A 
ATOM     30  C   UNL     1      -4.179  13.644  21.170  0.00  0.00    +0.000 A 
ATOM     31 CL   UNL     1      -5.582  14.581  21.515  0.00  0.00    +0.000 Cl
ATOM     32  C   UNL     1      -4.175  12.769  20.083  0.00  0.00    +0.000 A 
ATOM     33  C   UNL     1      -2.991  12.103  19.727  0.00  0.00    +0.000 A 
ENDBRANCH  24  27
ENDBRANCH   9  24
TORSDOF 7
ENDMDL
