MODEL 1
REMARK VINA RESULT:      -7.1      0.000      0.000
REMARK  Name = 
REMARK  7 active torsions:
REMARK  status: ('A' for Active; 'I' for Inactive)
REMARK    1  A    between atoms: C_1  and  N_2
REMARK    2  A    between atoms: C_3  and  C_5
REMARK    3  A    between atoms: C_6  and  O_7
REMARK    4  A    between atoms: C_13  and  C_14
REMARK    5  A    between atoms: C_17  and  C_18
REMARK    6  A    between atoms: C_22  and  C_23
REMARK    7  A    between atoms: C_26  and  C_27
REMARK                            x       y       z     vdW  Elec       q    Type
REMARK                         _______ _______ _______ _____ _____    ______ ____
ROOT
ATOM      1  C   UNL     1      -2.285  11.460  18.758  0.00  0.00    +0.000 A 
ATOM      2  C   UNL     1      -1.472  11.269  19.885  0.00  0.00    +0.000 A 
ATOM      3  C   UNL     1      -1.610  12.106  20.992  0.00  0.00    +0.000 A 
ATOM      4  C   UNL     1      -2.190  13.336  20.769  0.00  0.00    +0.000 A 
ATOM      5  C   UNL     1      -3.288  13.308  19.931  0.00  0.00    +0.000 A 
ATOM      6  C   UNL     1      -3.357  12.283  19.003  0.00  0.00    +0.000 A 
ATOM      7  O   UNL     1      -4.519  11.931  18.424  0.00  0.00    +0.000 OA
ATOM      8  C   UNL     1      -5.742  12.049  19.151  0.00  0.00    +0.000 C 
ATOM      9  C   UNL     1      -6.647  11.384  18.097  0.00  0.00    +0.000 C 
ATOM     10  O   UNL     1      -6.014  11.244  20.324  0.00  0.00    +0.000 OA
ATOM     11  C   UNL     1      -7.217  11.859  20.886  0.00  0.00    +0.000 C 
ATOM     12  C   UNL     1      -6.864  13.328  20.901  0.00  0.00    +0.000 C 
ATOM     13  C   UNL     1      -7.913  14.410  20.991  0.00  0.00    +0.000 C 
ATOM     14  C   UNL     1      -5.884  13.476  19.714  0.00  0.00    +0.000 C 
ATOM     15  C   UNL     1      -4.558  13.948  20.370  0.00  0.00    +0.000 C 
ATOM     16  O   UNL     1      -1.822  14.385  21.544  0.00  0.00    +0.000 OA
ATOM     17  C   UNL     1      -2.060  14.225  22.936  0.00  0.00    +0.000 C 
ATOM     18  C   UNL     1      -0.934  14.805  23.794  0.00  0.00    +0.000 C 
ATOM     19  O   UNL     1      -3.183  15.072  23.187  0.00  0.00    +0.000 OA
ATOM     20  C   UNL     1      -4.234  14.316  23.731  0.00  0.00    +0.000 C 
ATOM     21  C   UNL     1      -3.864  12.823  23.688  0.00  0.00    +0.000 C 
ATOM     22  C   UNL     1      -4.355  12.287  25.036  0.00  0.00    +0.000 C 
ATOM     23  C   UNL     1      -2.335  12.788  23.425  0.00  0.00    +0.000 C 
ATOM     24  C   UNL     1      -1.615  11.727  22.470  0.00  0.00    +0.000 C 
ENDROOT
BRANCH   1  27
ATOM     25  C   UNL     1      -2.955  10.575  15.095  0.00  0.00    +0.000 C 
ATOM     26  N   UNL     1      -2.795  11.253  16.359  0.00  0.00    +0.000 N 
ATOM     27  C   UNL     1      -2.214  10.692  17.506  0.00  0.00    +0.000 C 
ATOM     28  O   UNL     1      -1.604   9.617  17.480  0.00  0.00    +0.000 OA
ATOM     29  H   UNL     1      -3.319  12.106  16.490  0.00  0.00    +0.000 HD
ENDBRANCH   1  27
BRANCH   2  30
ATOM     30  O   UNL     1      -0.525  10.269  19.918  0.00  0.00    +0.000 OA
ATOM     31  H   UNL     1      -0.826   9.567  19.289  0.00  0.00    +0.000 HD
ENDBRANCH   2  30
TORSDOF 2
ENDMDL
MODEL 2
REMARK VINA RESULT:      -6.8      8.144     11.699
REMARK  Name = 
REMARK  7 active torsions:
REMARK  status: ('A' for Active; 'I' for Inactive)
REMARK    1  A    between atoms: C_1  and  N_2
REMARK    2  A    between atoms: C_3  and  C_5
REMARK    3  A    between atoms: C_6  and  O_7
REMARK    4  A    between atoms: C_13  and  C_14
REMARK    5  A    between atoms: C_17  and  C_18
REMARK    6  A    between atoms: C_22  and  C_23
REMARK    7  A    between atoms: C_26  and  C_27
REMARK                            x       y       z     vdW  Elec       q    Type
REMARK                         _______ _______ _______ _____ _____    ______ ____
ROOT
ATOM      1  C   UNL     1       2.164   7.391  19.116  0.00  0.00    +0.000 A 
ATOM      2  C   UNL     1       1.706   6.525  20.120  0.00  0.00    +0.000 A 
ATOM      3  C   UNL     1       1.759   5.145  19.925  0.00  0.00    +0.000 A 
ATOM      4  C   UNL     1       1.818   4.707  18.620  0.00  0.00    +0.000 A 
ATOM      5  C   UNL     1       2.671   5.432  17.811  0.00  0.00    +0.000 A 
ATOM      6  C   UNL     1       2.909   6.751  18.155  0.00  0.00    +0.000 A 
ATOM      7  O   UNL     1       3.984   7.419  17.697  0.00  0.00    +0.000 OA
ATOM      8  C   UNL     1       5.207   6.722  17.457  0.00  0.00    +0.000 C 
ATOM      9  C   UNL     1       6.061   7.959  17.125  0.00  0.00    +0.000 C 
ATOM     10  O   UNL     1       5.965   6.119  18.533  0.00  0.00    +0.000 OA
ATOM     11  C   UNL     1       6.964   5.311  17.833  0.00  0.00    +0.000 C 
ATOM     12  C   UNL     1       6.133   4.554  16.824  0.00  0.00    +0.000 C 
ATOM     13  C   UNL     1       6.736   3.917  15.595  0.00  0.00    +0.000 C 
ATOM     14  C   UNL     1       4.950   5.510  16.541  0.00  0.00    +0.000 C 
ATOM     15  C   UNL     1       3.698   4.717  17.006  0.00  0.00    +0.000 C 
ATOM     16  O   UNL     1       1.268   3.509  18.304  0.00  0.00    +0.000 OA
ATOM     17  C   UNL     1       1.814   2.389  18.989  0.00  0.00    +0.000 C 
ATOM     18  C   UNL     1       0.748   1.367  19.385  0.00  0.00    +0.000 C 
ATOM     19  O   UNL     1       2.598   1.732  17.992  0.00  0.00    +0.000 OA
ATOM     20  C   UNL     1       3.932   1.639  18.423  0.00  0.00    +0.000 C 
ATOM     21  C   UNL     1       4.103   2.438  19.727  0.00  0.00    +0.000 C 
ATOM     22  C   UNL     1       5.004   1.546  20.585  0.00  0.00    +0.000 C 
ATOM     23  C   UNL     1       2.662   2.697  20.241  0.00  0.00    +0.000 C 
ATOM     24  C   UNL     1       2.184   4.065  20.916  0.00  0.00    +0.000 C 
ENDROOT
BRANCH   1  27
ATOM     25  C   UNL     1       2.334  10.988  17.819  0.00  0.00    +0.000 C 
ATOM     26  N   UNL     1       2.202   9.556  17.947  0.00  0.00    +0.000 N 
ATOM     27  C   UNL     1       2.121   8.860  19.162  0.00  0.00    +0.000 C 
ATOM     28  O   UNL     1       1.959   9.435  20.243  0.00  0.00    +0.000 OA
ATOM     29  H   UNL     1       2.391   9.004  17.123  0.00  0.00    +0.000 HD
ENDBRANCH   1  27
BRANCH   2  30
ATOM     30  O   UNL     1       1.192   7.014  21.302  0.00  0.00    +0.000 OA
ATOM     31  H   UNL     1       1.483   7.956  21.373  0.00  0.00    +0.000 HD
ENDBRANCH   2  30
TORSDOF 2
ENDMDL
MODEL 3
REMARK VINA RESULT:      -6.6      2.137      4.589
REMARK  Name = 
REMARK  7 active torsions:
REMARK  status: ('A' for Active; 'I' for Inactive)
REMARK    1  A    between atoms: C_1  and  N_2
REMARK    2  A    between atoms: C_3  and  C_5
REMARK    3  A    between atoms: C_6  and  O_7
REMARK    4  A    between atoms: C_13  and  C_14
REMARK    5  A    between atoms: C_17  and  C_18
REMARK    6  A    between atoms: C_22  and  C_23
REMARK    7  A    between atoms: C_26  and  C_27
REMARK                            x       y       z     vdW  Elec       q    Type
REMARK                         _______ _______ _______ _____ _____    ______ ____
ROOT
ATOM      1  C   UNL     1      -4.132  11.869  18.440  0.00  0.00    +0.000 A 
ATOM      2  C   UNL     1      -3.263  10.847  18.028  0.00  0.00    +0.000 A 
ATOM      3  C   UNL     1      -1.911  10.904  18.367  0.00  0.00    +0.000 A 
ATOM      4  C   UNL     1      -1.404  12.147  18.679  0.00  0.00    +0.000 A 
ATOM      5  C   UNL     1      -2.227  12.918  19.476  0.00  0.00    +0.000 A 
ATOM      6  C   UNL     1      -3.588  12.675  19.412  0.00  0.00    +0.000 A 
ATOM      7  O   UNL     1      -4.424  13.068  20.390  0.00  0.00    +0.000 OA
ATOM      8  C   UNL     1      -3.971  13.100  21.744  0.00  0.00    +0.000 C 
ATOM      9  C   UNL     1      -5.328  13.447  22.384  0.00  0.00    +0.000 C 
ATOM     10  O   UNL     1      -3.609  11.892  22.457  0.00  0.00    +0.000 OA
ATOM     11  C   UNL     1      -2.970  12.395  23.674  0.00  0.00    +0.000 C 
ATOM     12  C   UNL     1      -1.994  13.417  23.140  0.00  0.00    +0.000 C 
ATOM     13  C   UNL     1      -1.406  14.504  24.008  0.00  0.00    +0.000 C 
ATOM     14  C   UNL     1      -2.671  13.921  21.844  0.00  0.00    +0.000 C 
ATOM     15  C   UNL     1      -1.678  13.530  20.716  0.00  0.00    +0.000 C 
ATOM     16  O   UNL     1      -0.102  12.409  18.412  0.00  0.00    +0.000 OA
ATOM     17  C   UNL     1       0.835  11.565  19.067  0.00  0.00    +0.000 C 
ATOM     18  C   UNL     1       2.021  11.199  18.173  0.00  0.00    +0.000 C 
ATOM     19  O   UNL     1       1.390  12.399  20.085  0.00  0.00    +0.000 OA
ATOM     20  C   UNL     1       1.184  11.812  21.344  0.00  0.00    +0.000 C 
ATOM     21  C   UNL     1       0.278  10.578  21.189  0.00  0.00    +0.000 C 
ATOM     22  C   UNL     1       0.909   9.542  22.123  0.00  0.00    +0.000 C 
ATOM     23  C   UNL     1       0.278  10.258  19.670  0.00  0.00    +0.000 C 
ATOM     24  C   UNL     1      -1.010   9.774  18.857  0.00  0.00    +0.000 C 
ENDROOT
BRANCH   1  27
ATOM     25  C   UNL     1      -7.466  13.533  17.567  0.00  0.00    +0.000 C 
ATOM     26  N   UNL     1      -6.068  13.226  17.762  0.00  0.00    +0.000 N 
ATOM     27  C   UNL     1      -5.561  11.967  18.113  0.00  0.00    +0.000 C 
ATOM     28  O   UNL     1      -6.258  10.947  18.098  0.00  0.00    +0.000 OA
ATOM     29  H   UNL     1      -5.438  14.009  17.858  0.00  0.00    +0.000 HD
ENDBRANCH   1  27
BRANCH   2  30
ATOM     30  O   UNL     1      -3.720   9.783  17.281  0.00  0.00    +0.000 OA
ATOM     31  H   UNL     1      -3.276   9.839  16.400  0.00  0.00    +0.000 HD
ENDBRANCH   2  30
TORSDOF 2
ENDMDL
MODEL 4
REMARK VINA RESULT:      -6.5      8.250     11.763
REMARK  Name = 
REMARK  7 active torsions:
REMARK  status: ('A' for Active; 'I' for Inactive)
REMARK    1  A    between atoms: C_1  and  N_2
REMARK    2  A    between atoms: C_3  and  C_5
REMARK    3  A    between atoms: C_6  and  O_7
REMARK    4  A    between atoms: C_13  and  C_14
REMARK    5  A    between atoms: C_17  and  C_18
REMARK    6  A    between atoms: C_22  and  C_23
REMARK    7  A    between atoms: C_26  and  C_27
REMARK                            x       y       z     vdW  Elec       q    Type
REMARK                         _______ _______ _______ _____ _____    ______ ____
ROOT
ATOM      1  C   UNL     1       2.597   7.532  19.034  0.00  0.00    +0.000 A 
ATOM      2  C   UNL     1       3.173   8.043  17.861  0.00  0.00    +0.000 A 
ATOM      3  C   UNL     1       4.263   7.393  17.282  0.00  0.00    +0.000 A 
ATOM      4  C   UNL     1       5.005   6.575  18.107  0.00  0.00    +0.000 A 
ATOM      5  C   UNL     1       4.254   5.786  18.956  0.00  0.00    +0.000 A 
ATOM      6  C   UNL     1       2.999   6.248  19.314  0.00  0.00    +0.000 A 
ATOM      7  O   UNL     1       2.052   5.422  19.794  0.00  0.00    +0.000 OA
ATOM      8  C   UNL     1       1.991   4.068  19.344  0.00  0.00    +0.000 C 
ATOM      9  C   UNL     1       0.687   3.691  20.071  0.00  0.00    +0.000 C 
ATOM     10  O   UNL     1       1.672   3.734  17.971  0.00  0.00    +0.000 OA
ATOM     11  C   UNL     1       1.975   2.304  17.891  0.00  0.00    +0.000 C 
ATOM     12  C   UNL     1       3.350   2.220  18.510  0.00  0.00    +0.000 C 
ATOM     13  C   UNL     1       3.919   0.927  19.043  0.00  0.00    +0.000 C 
ATOM     14  C   UNL     1       3.367   3.396  19.515  0.00  0.00    +0.000 C 
ATOM     15  C   UNL     1       4.505   4.320  19.004  0.00  0.00    +0.000 C 
ATOM     16  O   UNL     1       6.329   6.423  17.862  0.00  0.00    +0.000 OA
ATOM     17  C   UNL     1       6.653   5.883  16.587  0.00  0.00    +0.000 C 
ATOM     18  C   UNL     1       7.888   6.541  15.969  0.00  0.00    +0.000 C 
ATOM     19  O   UNL     1       7.058   4.545  16.878  0.00  0.00    +0.000 OA
ATOM     20  C   UNL     1       6.250   3.640  16.171  0.00  0.00    +0.000 C 
ATOM     21  C   UNL     1       5.107   4.407  15.484  0.00  0.00    +0.000 C 
ATOM     22  C   UNL     1       5.003   3.750  14.105  0.00  0.00    +0.000 C 
ATOM     23  C   UNL     1       5.530   5.900  15.529  0.00  0.00    +0.000 C 
ATOM     24  C   UNL     1       4.521   7.108  15.806  0.00  0.00    +0.000 C 
ENDROOT
BRANCH   1  27
ATOM     25  C   UNL     1       0.239   8.190  21.975  0.00  0.00    +0.000 C 
ATOM     26  N   UNL     1       1.354   7.816  21.138  0.00  0.00    +0.000 N 
ATOM     27  C   UNL     1       1.483   8.137  19.779  0.00  0.00    +0.000 C 
ATOM     28  O   UNL     1       0.735   8.944  19.216  0.00  0.00    +0.000 OA
ATOM     29  H   UNL     1       1.975   7.106  21.495  0.00  0.00    +0.000 HD
ENDBRANCH   1  27
BRANCH   2  30
ATOM     30  O   UNL     1       2.685   9.186  17.268  0.00  0.00    +0.000 OA
ATOM     31  H   UNL     1       2.392   9.786  17.998  0.00  0.00    +0.000 HD
ENDBRANCH   2  30
TORSDOF 2
ENDMDL
MODEL 5
REMARK VINA RESULT:      -6.4      2.341      5.080
REMARK  Name = 
REMARK  7 active torsions:
REMARK  status: ('A' for Active; 'I' for Inactive)
REMARK    1  A    between atoms: C_1  and  N_2
REMARK    2  A    between atoms: C_3  and  C_5
REMARK    3  A    between atoms: C_6  and  O_7
REMARK    4  A    between atoms: C_13  and  C_14
REMARK    5  A    between atoms: C_17  and  C_18
REMARK    6  A    between atoms: C_22  and  C_23
REMARK    7  A    between atoms: C_26  and  C_27
REMARK                            x       y       z     vdW  Elec       q    Type
REMARK                         _______ _______ _______ _____ _____    ______ ____
ROOT
ATOM      1  C   UNL     1      -1.964  11.594  18.897  0.00  0.00    +0.000 A 
ATOM      2  C   UNL     1      -3.101  12.244  19.399  0.00  0.00    +0.000 A 
ATOM      3  C   UNL     1      -3.050  12.875  20.643  0.00  0.00    +0.000 A 
ATOM      4  C   UNL     1      -2.067  12.450  21.511  0.00  0.00    +0.000 A 
ATOM      5  C   UNL     1      -0.834  12.244  20.922  0.00  0.00    +0.000 A 
ATOM      6  C   UNL     1      -0.815  11.922  19.576  0.00  0.00    +0.000 A 
ATOM      7  O   UNL     1       0.291  12.080  18.826  0.00  0.00    +0.000 OA
ATOM      8  C   UNL     1       1.200  13.144  19.114  0.00  0.00    +0.000 C 
ATOM      9  C   UNL     1       2.122  12.931  17.898  0.00  0.00    +0.000 C 
ATOM     10  O   UNL     1       0.822  14.533  18.958  0.00  0.00    +0.000 OA
ATOM     11  C   UNL     1       1.923  15.257  19.595  0.00  0.00    +0.000 C 
ATOM     12  C   UNL     1       2.074  14.539  20.915  0.00  0.00    +0.000 C 
ATOM     13  C   UNL     1       3.334  14.628  21.744  0.00  0.00    +0.000 C 
ATOM     14  C   UNL     1       1.611  13.098  20.598  0.00  0.00    +0.000 C 
ATOM     15  C   UNL     1       0.373  12.884  21.511  0.00  0.00    +0.000 C 
ATOM     16  O   UNL     1      -2.298  12.511  22.844  0.00  0.00    +0.000 OA
ATOM     17  C   UNL     1      -2.566  13.810  23.356  0.00  0.00    +0.000 C 
ATOM     18  C   UNL     1      -3.653  13.804  24.432  0.00  0.00    +0.000 C 
ATOM     19  O   UNL     1      -1.367  14.155  24.051  0.00  0.00    +0.000 OA
ATOM     20  C   UNL     1      -0.835  15.342  23.520  0.00  0.00    +0.000 C 
ATOM     21  C   UNL     1      -1.634  15.741  22.267  0.00  0.00    +0.000 C 
ATOM     22  C   UNL     1      -1.782  17.260  22.397  0.00  0.00    +0.000 C 
ATOM     23  C   UNL     1      -2.933  14.894  22.321  0.00  0.00    +0.000 C 
ATOM     24  C   UNL     1      -3.623  14.231  21.041  0.00  0.00    +0.000 C 
ENDROOT
BRANCH   1  27
ATOM     25  C   UNL     1      -2.717  10.702  15.253  0.00  0.00    +0.000 C 
ATOM     26  N   UNL     1      -2.555  11.376  16.519  0.00  0.00    +0.000 N 
ATOM     27  C   UNL     1      -1.888  10.848  17.633  0.00  0.00    +0.000 C 
ATOM     28  O   UNL     1      -1.203   9.821  17.567  0.00  0.00    +0.000 OA
ATOM     29  H   UNL     1      -3.134  12.187  16.682  0.00  0.00    +0.000 HD
ENDBRANCH   1  27
BRANCH   2  30
ATOM     30  O   UNL     1      -4.280  12.268  18.687  0.00  0.00    +0.000 OA
ATOM     31  H   UNL     1      -4.091  12.731  17.834  0.00  0.00    +0.000 HD
ENDBRANCH   2  30
TORSDOF 2
ENDMDL
MODEL 6
REMARK VINA RESULT:      -6.4     10.517     13.406
REMARK  Name = 
REMARK  7 active torsions:
REMARK  status: ('A' for Active; 'I' for Inactive)
REMARK    1  A    between atoms: C_1  and  N_2
REMARK    2  A    between atoms: C_3  and  C_5
REMARK    3  A    between atoms: C_6  and  O_7
REMARK    4  A    between atoms: C_13  and  C_14
REMARK    5  A    between atoms: C_17  and  C_18
REMARK    6  A    between atoms: C_22  and  C_23
REMARK    7  A    between atoms: C_26  and  C_27
REMARK                            x       y       z     vdW  Elec       q    Type
REMARK                         _______ _______ _______ _____ _____    ______ ____
ROOT
ATOM      1  C   UNL     1       6.199  15.905  18.884  0.00  0.00    +0.000 A 
ATOM      2  C   UNL     1       6.527  14.776  18.117  0.00  0.00    +0.000 A 
ATOM      3  C   UNL     1       7.863  14.409  17.956  0.00  0.00    +0.000 A 
ATOM      4  C   UNL     1       8.804  15.398  18.154  0.00  0.00    +0.000 A 
ATOM      5  C   UNL     1       8.560  16.209  19.245  0.00  0.00    +0.000 A 
ATOM      6  C   UNL     1       7.246  16.353  19.653  0.00  0.00    +0.000 A 
ATOM      7  O   UNL     1       6.931  16.778  20.890  0.00  0.00    +0.000 OA
ATOM      8  C   UNL     1       7.778  16.451  21.992  0.00  0.00    +0.000 C 
ATOM      9  C   UNL     1       6.875  17.031  23.097  0.00  0.00    +0.000 C 
ATOM     10  O   UNL     1       7.954  15.085  22.441  0.00  0.00    +0.000 OA
ATOM     11  C   UNL     1       9.070  15.178  23.383  0.00  0.00    +0.000 C 
ATOM     12  C   UNL     1      10.092  15.979  22.611  0.00  0.00    +0.000 C 
ATOM     13  C   UNL     1      11.233  16.700  23.288  0.00  0.00    +0.000 C 
ATOM     14  C   UNL     1       9.230  16.864  21.681  0.00  0.00    +0.000 C 
ATOM     15  C   UNL     1       9.637  16.425  20.249  0.00  0.00    +0.000 C 
ATOM     16  O   UNL     1       9.966  15.345  17.460  0.00  0.00    +0.000 OA
ATOM     17  C   UNL     1      10.751  14.180  17.677  0.00  0.00    +0.000 C 
ATOM     18  C   UNL     1      11.414  13.672  16.395  0.00  0.00    +0.000 C 
ATOM     19  O   UNL     1      11.832  14.644  18.487  0.00  0.00    +0.000 OA
ATOM     20  C   UNL     1      11.866  13.923  19.691  0.00  0.00    +0.000 C 
ATOM     21  C   UNL     1      10.621  13.023  19.782  0.00  0.00    +0.000 C 
ATOM     22  C   UNL     1      11.162  11.710  20.353  0.00  0.00    +0.000 C 
ATOM     23  C   UNL     1      10.038  12.985  18.344  0.00  0.00    +0.000 C 
ATOM     24  C   UNL     1       8.475  13.013  18.011  0.00  0.00    +0.000 C 
ENDROOT
BRANCH   1  27
ATOM     25  C   UNL     1       2.821  16.428  20.605  0.00  0.00    +0.000 C 
ATOM     26  N   UNL     1       4.200  16.125  20.300  0.00  0.00    +0.000 N 
ATOM     27  C   UNL     1       4.845  16.437  19.095  0.00  0.00    +0.000 C 
ATOM     28  O   UNL     1       4.339  17.180  18.248  0.00  0.00    +0.000 OA
ATOM     29  H   UNL     1       4.667  15.466  20.905  0.00  0.00    +0.000 HD
ENDBRANCH   1  27
BRANCH   2  30
ATOM     30  O   UNL     1       5.549  14.020  17.509  0.00  0.00    +0.000 OA
ATOM     31  H   UNL     1       6.002  13.448  16.841  0.00  0.00    +0.000 HD
ENDBRANCH   2  30
TORSDOF 2
ENDMDL
MODEL 7
REMARK VINA RESULT:      -6.3      1.996      4.934
REMARK  Name = 
REMARK  7 active torsions:
REMARK  status: ('A' for Active; 'I' for Inactive)
REMARK    1  A    between atoms: C_1  and  N_2
REMARK    2  A    between atoms: C_3  and  C_5
REMARK    3  A    between atoms: C_6  and  O_7
REMARK    4  A    between atoms: C_13  and  C_14
REMARK    5  A    between atoms: C_17  and  C_18
REMARK    6  A    between atoms: C_22  and  C_23
REMARK    7  A    between atoms: C_26  and  C_27
REMARK                            x       y       z     vdW  Elec       q    Type
REMARK                         _______ _______ _______ _____ _____    ______ ____
ROOT
ATOM      1  C   UNL     1      -2.434  12.096  19.884  0.00  0.00    +0.000 A 
ATOM      2  C   UNL     1      -3.727  12.442  19.463  0.00  0.00    +0.000 A 
ATOM      3  C   UNL     1      -4.663  12.895  20.393  0.00  0.00    +0.000 A 
ATOM      4  C   UNL     1      -4.443  12.552  21.709  0.00  0.00    +0.000 A 
ATOM      5  C   UNL     1      -3.128  12.667  22.118  0.00  0.00    +0.000 A 
ATOM      6  C   UNL     1      -2.145  12.542  21.151  0.00  0.00    +0.000 A 
ATOM      7  O   UNL     1      -0.899  13.009  21.344  0.00  0.00    +0.000 OA
ATOM      8  C   UNL     1      -0.692  14.178  22.139  0.00  0.00    +0.000 C 
ATOM      9  C   UNL     1       0.820  14.312  21.877  0.00  0.00    +0.000 C 
ATOM     10  O   UNL     1      -1.180  15.477  21.728  0.00  0.00    +0.000 OA
ATOM     11  C   UNL     1      -0.990  16.304  22.920  0.00  0.00    +0.000 C 
ATOM     12  C   UNL     1      -1.592  15.455  24.014  0.00  0.00    +0.000 C 
ATOM     13  C   UNL     1      -1.269  15.669  25.474  0.00  0.00    +0.000 C 
ATOM     14  C   UNL     1      -1.375  14.009  23.510  0.00  0.00    +0.000 C 
ATOM     15  C   UNL     1      -2.811  13.440  23.349  0.00  0.00    +0.000 C 
ATOM     16  O   UNL     1      -5.507  12.385  22.531  0.00  0.00    +0.000 OA
ATOM     17  C   UNL     1      -6.340  13.527  22.687  0.00  0.00    +0.000 C 
ATOM     18  C   UNL     1      -7.825  13.166  22.741  0.00  0.00    +0.000 C 
ATOM     19  O   UNL     1      -6.030  13.996  23.999  0.00  0.00    +0.000 OA
ATOM     20  C   UNL     1      -5.576  15.324  23.933  0.00  0.00    +0.000 C 
ATOM     21  C   UNL     1      -5.404  15.731  22.459  0.00  0.00    +0.000 C 
ATOM     22  C   UNL     1      -5.949  17.160  22.409  0.00  0.00    +0.000 C 
ATOM     23  C   UNL     1      -6.165  14.651  21.645  0.00  0.00    +0.000 C 
ATOM     24  C   UNL     1      -5.651  14.050  20.256  0.00  0.00    +0.000 C 
ENDROOT
BRANCH   1  27
ATOM     25  C   UNL     1       0.605   9.985  18.908  0.00  0.00    +0.000 C 
ATOM     26  N   UNL     1      -0.577  10.519  19.542  0.00  0.00    +0.000 N 
ATOM     27  C   UNL     1      -1.367  11.557  19.028  0.00  0.00    +0.000 C 
ATOM     28  O   UNL     1      -1.230  11.984  17.876  0.00  0.00    +0.000 OA
ATOM     29  H   UNL     1      -0.724  10.277  20.511  0.00  0.00    +0.000 HD
ENDBRANCH   1  27
BRANCH   2  30
ATOM     30  O   UNL     1      -4.097  12.336  18.140  0.00  0.00    +0.000 OA
ATOM     31  H   UNL     1      -3.796  13.165  17.691  0.00  0.00    +0.000 HD
ENDBRANCH   2  30
TORSDOF 2
ENDMDL
MODEL 8
REMARK VINA RESULT:      -6.3      4.234      6.440
REMARK  Name = 
REMARK  7 active torsions:
REMARK  status: ('A' for Active; 'I' for Inactive)
REMARK    1  A    between atoms: C_1  and  N_2
REMARK    2  A    between atoms: C_3  and  C_5
REMARK    3  A    between atoms: C_6  and  O_7
REMARK    4  A    between atoms: C_13  and  C_14
REMARK    5  A    between atoms: C_17  and  C_18
REMARK    6  A    between atoms: C_22  and  C_23
REMARK    7  A    between atoms: C_26  and  C_27
REMARK                            x       y       z     vdW  Elec       q    Type
REMARK                         _______ _______ _______ _____ _____    ______ ____
ROOT
ATOM      1  C   UNL     1       2.839  14.400  19.098  0.00  0.00    +0.000 A 
ATOM      2  C   UNL     1       2.298  13.219  18.567  0.00  0.00    +0.000 A 
ATOM      3  C   UNL     1       1.381  12.477  19.312  0.00  0.00    +0.000 A 
ATOM      4  C   UNL     1       1.396  12.668  20.677  0.00  0.00    +0.000 A 
ATOM      5  C   UNL     1       1.518  13.988  21.069  0.00  0.00    +0.000 A 
ATOM      6  C   UNL     1       2.154  14.856  20.199  0.00  0.00    +0.000 A 
ATOM      7  O   UNL     1       1.991  16.188  20.284  0.00  0.00    +0.000 OA
ATOM      8  C   UNL     1       0.744  16.727  20.728  0.00  0.00    +0.000 C 
ATOM      9  C   UNL     1       1.083  18.207  20.475  0.00  0.00    +0.000 C 
ATOM     10  O   UNL     1      -0.473  16.566  19.961  0.00  0.00    +0.000 OA
ATOM     11  C   UNL     1      -1.516  17.021  20.881  0.00  0.00    +0.000 C 
ATOM     12  C   UNL     1      -1.185  16.277  22.153  0.00  0.00    +0.000 C 
ATOM     13  C   UNL     1      -1.699  16.717  23.504  0.00  0.00    +0.000 C 
ATOM     14  C   UNL     1       0.348  16.092  22.075  0.00  0.00    +0.000 C 
ATOM     15  C   UNL     1       0.547  14.553  22.044  0.00  0.00    +0.000 C 
ATOM     16  O   UNL     1       1.049  11.639  21.487  0.00  0.00    +0.000 OA
ATOM     17  C   UNL     1      -0.266  11.134  21.301  0.00  0.00    +0.000 C 
ATOM     18  C   UNL     1      -0.332   9.611  21.418  0.00  0.00    +0.000 C 
ATOM     19  O   UNL     1      -0.980  11.619  22.438  0.00  0.00    +0.000 OA
ATOM     20  C   UNL     1      -2.074  12.393  22.018  0.00  0.00    +0.000 C 
ATOM     21  C   UNL     1      -2.003  12.590  20.493  0.00  0.00    +0.000 C 
ATOM     22  C   UNL     1      -3.455  12.426  20.036  0.00  0.00    +0.000 C 
ATOM     23  C   UNL     1      -0.977  11.538  19.992  0.00  0.00    +0.000 C 
ATOM     24  C   UNL     1       0.093  11.811  18.837  0.00  0.00    +0.000 C 
ENDROOT
BRANCH   1  27
ATOM     25  C   UNL     1       5.831  16.770  18.821  0.00  0.00    +0.000 C 
ATOM     26  N   UNL     1       4.860  15.795  19.256  0.00  0.00    +0.000 N 
ATOM     27  C   UNL     1       3.848  15.250  18.451  0.00  0.00    +0.000 C 
ATOM     28  O   UNL     1       3.817  15.416  17.227  0.00  0.00    +0.000 OA
ATOM     29  H   UNL     1       4.770  15.652  20.251  0.00  0.00    +0.000 HD
ENDBRANCH   1  27
BRANCH   2  30
ATOM     30  O   UNL     1       2.663  12.769  17.317  0.00  0.00    +0.000 OA
ATOM     31  H   UNL     1       1.943  12.164  17.009  0.00  0.00    +0.000 HD
ENDBRANCH   2  30
TORSDOF 2
ENDMDL
MODEL 9
REMARK VINA RESULT:      -6.2      9.812     12.710
REMARK  Name = 
REMARK  7 active torsions:
REMARK  status: ('A' for Active; 'I' for Inactive)
REMARK    1  A    between atoms: C_1  and  N_2
REMARK    2  A    between atoms: C_3  and  C_5
REMARK    3  A    between atoms: C_6  and  O_7
REMARK    4  A    between atoms: C_13  and  C_14
REMARK    5  A    between atoms: C_17  and  C_18
REMARK    6  A    between atoms: C_22  and  C_23
REMARK    7  A    between atoms: C_26  and  C_27
REMARK                            x       y       z     vdW  Elec       q    Type
REMARK                         _______ _______ _______ _____ _____    ______ ____
ROOT
ATOM      1  C   UNL     1       6.571  16.137  19.820  0.00  0.00    +0.000 A 
ATOM      2  C   UNL     1       7.000  15.526  18.633  0.00  0.00    +0.000 A 
ATOM      3  C   UNL     1       8.147  14.730  18.635  0.00  0.00    +0.000 A 
ATOM      4  C   UNL     1       9.047  14.947  19.656  0.00  0.00    +0.000 A 
ATOM      5  C   UNL     1       8.470  15.124  20.899  0.00  0.00    +0.000 A 
ATOM      6  C   UNL     1       7.180  15.622  20.939  0.00  0.00    +0.000 A 
ATOM      7  O   UNL     1       6.397  15.472  22.023  0.00  0.00    +0.000 OA
ATOM      8  C   UNL     1       6.523  14.304  22.836  0.00  0.00    +0.000 C 
ATOM      9  C   UNL     1       5.331  14.600  23.767  0.00  0.00    +0.000 C 
ATOM     10  O   UNL     1       6.188  12.987  22.337  0.00  0.00    +0.000 OA
ATOM     11  C   UNL     1       6.703  12.091  23.374  0.00  0.00    +0.000 C 
ATOM     12  C   UNL     1       8.105  12.608  23.594  0.00  0.00    +0.000 C 
ATOM     13  C   UNL     1       8.893  12.300  24.846  0.00  0.00    +0.000 C 
ATOM     14  C   UNL     1       7.992  14.113  23.257  0.00  0.00    +0.000 C 
ATOM     15  C   UNL     1       8.947  14.307  22.048  0.00  0.00    +0.000 C 
ATOM     16  O   UNL     1      10.364  14.726  19.427  0.00  0.00    +0.000 OA
ATOM     17  C   UNL     1      10.701  13.398  19.049  0.00  0.00    +0.000 C 
ATOM     18  C   UNL     1      11.787  13.353  17.972  0.00  0.00    +0.000 C 
ATOM     19  O   UNL     1      11.322  12.860  20.217  0.00  0.00    +0.000 OA
ATOM     20  C   UNL     1      10.628  11.715  20.639  0.00  0.00    +0.000 C 
ATOM     21  C   UNL     1       9.346  11.559  19.802  0.00  0.00    +0.000 C 
ATOM     22  C   UNL     1       9.274  10.055  19.521  0.00  0.00    +0.000 C 
ATOM     23  C   UNL     1       9.536  12.500  18.583  0.00  0.00    +0.000 C 
ATOM     24  C   UNL     1       8.369  13.387  17.946  0.00  0.00    +0.000 C 
ENDROOT
BRANCH   1  27
ATOM     25  C   UNL     1       2.918  17.180  20.286  0.00  0.00    +0.000 C 
ATOM     26  N   UNL     1       4.175  16.470  20.272  0.00  0.00    +0.000 N 
ATOM     27  C   UNL     1       5.417  17.038  19.955  0.00  0.00    +0.000 C 
ATOM     28  O   UNL     1       5.577  18.259  19.845  0.00  0.00    +0.000 OA
ATOM     29  H   UNL     1       4.131  15.462  20.285  0.00  0.00    +0.000 HD
ENDBRANCH   1  27
BRANCH   2  30
ATOM     30  O   UNL     1       6.312  15.701  17.452  0.00  0.00    +0.000 OA
ATOM     31  H   UNL     1       5.422  16.062  17.690  0.00  0.00    +0.000 HD
ENDBRANCH   2  30
TORSDOF 2
ENDMDL
