MODEL 1
REMARK VINA RESULT:      -6.5      0.000      0.000
REMARK  Name = 
REMARK  11 active torsions:
REMARK  status: ('A' for Active; 'I' for Inactive)
REMARK    1  A    between atoms: C_1  and  C_2
REMARK    2  A    between atoms: C_2  and  C_3
REMARK    3  A    between atoms: C_3  and  C_4
REMARK    4  A    between atoms: C_4  and  C_5
REMARK    5  A    between atoms: C_5  and  C_6
REMARK    6  A    between atoms: C_6  and  C_7
REMARK    7  A    between atoms: C_7  and  C_8
REMARK    8  A    between atoms: C_8  and  C_9
REMARK    9  A    between atoms: C_9  and  C_10
REMARK   10  A    between atoms: C_10  and  C_11
REMARK   11  A    between atoms: C_11  and  N_12
REMARK                            x       y       z     vdW  Elec       q    Type
REMARK                         _______ _______ _______ _____ _____    ______ ____
ROOT
ATOM      1  N   UNL     1       6.462   5.228  15.913  0.00  0.00    +0.000 N 
ATOM      2  N   UNL     1       7.458   4.300  16.073  0.00  0.00    +0.000 NA
ATOM      3  C   UNL     1       7.846   4.396  17.298  0.00  0.00    +0.000 C 
ATOM      4  C   UNL     1       7.062   5.324  18.158  0.00  0.00    +0.000 C 
ATOM      5  C   UNL     1       7.923   6.122  19.083  0.00  0.00    +0.000 C 
ATOM      6  N   UNL     1       8.378   5.520  20.229  0.00  0.00    +0.000 N 
ATOM      7  N   UNL     1       8.291   7.336  18.827  0.00  0.00    +0.000 NA
ATOM      8  C   UNL     1       7.878   7.902  17.658  0.00  0.00    +0.000 C 
ATOM      9  N   UNL     1       7.028   7.417  16.830  0.00  0.00    +0.000 NA
ATOM     10  C   UNL     1       6.370   6.139  17.090  0.00  0.00    +0.000 C 
ATOM     11  H   UNL     1       8.398   4.507  20.288  0.00  0.00    +0.000 HD
ATOM     12  H   UNL     1       9.196   5.973  20.627  0.00  0.00    +0.000 HD
ENDROOT
BRANCH   1  13
ATOM     13  C   UNL     1       5.163   4.695  15.425  0.00  0.00    +0.000 C 
BRANCH  13  14
ATOM     14  C   UNL     1       4.140   4.572  16.584  0.00  0.00    +0.000 C 
BRANCH  14  15
ATOM     15  C   UNL     1       3.975   3.187  17.253  0.00  0.00    +0.000 C 
BRANCH  15  16
ATOM     16  C   UNL     1       4.155   3.151  18.773  0.00  0.00    +0.000 C 
BRANCH  16  17
ATOM     17  C   UNL     1       3.119   2.279  19.516  0.00  0.00    +0.000 C 
BRANCH  17  18
ATOM     18  C   UNL     1       2.943   2.518  21.024  0.00  0.00    +0.000 C 
BRANCH  18  19
ATOM     19  C   UNL     1       1.604   3.162  21.395  0.00  0.00    +0.000 C 
BRANCH  19  20
ATOM     20  C   UNL     1       1.127   4.163  20.333  0.00  0.00    +0.000 C 
BRANCH  20  21
ATOM     21  C   UNL     1       1.726   5.553  20.579  0.00  0.00    +0.000 C 
BRANCH  21  23
ATOM     22  C   UNL     1       2.209   7.710  19.359  0.00  0.00    +0.000 C 
ATOM     23  C   UNL     1       2.251   6.189  19.291  0.00  0.00    +0.000 C 
ENDBRANCH  21  23
ENDBRANCH  20  21
ENDBRANCH  19  20
ENDBRANCH  18  19
ENDBRANCH  17  18
ENDBRANCH  16  17
ENDBRANCH  15  16
ENDBRANCH  14  15
ENDBRANCH  13  14
ENDBRANCH   1  13
TORSDOF 10
ENDMDL
MODEL 2
REMARK VINA RESULT:      -6.4      1.758      3.730
REMARK  Name = 
REMARK  11 active torsions:
REMARK  status: ('A' for Active; 'I' for Inactive)
REMARK    1  A    between atoms: C_1  and  C_2
REMARK    2  A    between atoms: C_2  and  C_3
REMARK    3  A    between atoms: C_3  and  C_4
REMARK    4  A    between atoms: C_4  and  C_5
REMARK    5  A    between atoms: C_5  and  C_6
REMARK    6  A    between atoms: C_6  and  C_7
REMARK    7  A    between atoms: C_7  and  C_8
REMARK    8  A    between atoms: C_8  and  C_9
REMARK    9  A    between atoms: C_9  and  C_10
REMARK   10  A    between atoms: C_10  and  C_11
REMARK   11  A    between atoms: C_11  and  N_12
REMARK                            x       y       z     vdW  Elec       q    Type
REMARK                         _______ _______ _______ _____ _____    ______ ____
ROOT
ATOM      1  N   UNL     1       4.740   3.596  17.892  0.00  0.00    +0.000 N 
ATOM      2  N   UNL     1       5.449   3.916  19.020  0.00  0.00    +0.000 NA
ATOM      3  C   UNL     1       6.029   5.040  18.775  0.00  0.00    +0.000 C 
ATOM      4  C   UNL     1       5.674   5.686  17.482  0.00  0.00    +0.000 C 
ATOM      5  C   UNL     1       6.852   6.303  16.800  0.00  0.00    +0.000 C 
ATOM      6  N   UNL     1       7.288   7.528  17.238  0.00  0.00    +0.000 N 
ATOM      7  N   UNL     1       7.501   5.712  15.849  0.00  0.00    +0.000 NA
ATOM      8  C   UNL     1       7.091   4.471  15.463  0.00  0.00    +0.000 C 
ATOM      9  N   UNL     1       6.025   3.865  15.837  0.00  0.00    +0.000 NA
ATOM     10  C   UNL     1       5.084   4.498  16.756  0.00  0.00    +0.000 C 
ATOM     11  H   UNL     1       7.034   7.847  18.167  0.00  0.00    +0.000 HD
ATOM     12  H   UNL     1       8.251   7.730  16.981  0.00  0.00    +0.000 HD
ENDROOT
BRANCH   1  13
ATOM     13  C   UNL     1       3.285   3.365  18.095  0.00  0.00    +0.000 C 
BRANCH  13  14
ATOM     14  C   UNL     1       2.978   2.994  19.569  0.00  0.00    +0.000 C 
BRANCH  14  15
ATOM     15  C   UNL     1       1.714   3.607  20.216  0.00  0.00    +0.000 C 
BRANCH  15  16
ATOM     16  C   UNL     1       1.940   4.845  21.090  0.00  0.00    +0.000 C 
BRANCH  16  17
ATOM     17  C   UNL     1       1.726   6.188  20.358  0.00  0.00    +0.000 C 
BRANCH  17  18
ATOM     18  C   UNL     1       2.843   6.668  19.418  0.00  0.00    +0.000 C 
BRANCH  18  19
ATOM     19  C   UNL     1       2.347   7.094  18.034  0.00  0.00    +0.000 C 
BRANCH  19  20
ATOM     20  C   UNL     1       2.416   8.615  17.835  0.00  0.00    +0.000 C 
BRANCH  20  21
ATOM     21  C   UNL     1       1.049   9.265  18.079  0.00  0.00    +0.000 C 
BRANCH  21  23
ATOM     22  C   UNL     1       0.035   9.678  20.354  0.00  0.00    +0.000 C 
ATOM     23  C   UNL     1       1.049  10.156  19.323  0.00  0.00    +0.000 C 
ENDBRANCH  21  23
ENDBRANCH  20  21
ENDBRANCH  19  20
ENDBRANCH  18  19
ENDBRANCH  17  18
ENDBRANCH  16  17
ENDBRANCH  15  16
ENDBRANCH  14  15
ENDBRANCH  13  14
ENDBRANCH   1  13
TORSDOF 10
ENDMDL
MODEL 3
REMARK VINA RESULT:      -6.4      1.723      3.499
REMARK  Name = 
REMARK  11 active torsions:
REMARK  status: ('A' for Active; 'I' for Inactive)
REMARK    1  A    between atoms: C_1  and  C_2
REMARK    2  A    between atoms: C_2  and  C_3
REMARK    3  A    between atoms: C_3  and  C_4
REMARK    4  A    between atoms: C_4  and  C_5
REMARK    5  A    between atoms: C_5  and  C_6
REMARK    6  A    between atoms: C_6  and  C_7
REMARK    7  A    between atoms: C_7  and  C_8
REMARK    8  A    between atoms: C_8  and  C_9
REMARK    9  A    between atoms: C_9  and  C_10
REMARK   10  A    between atoms: C_10  and  C_11
REMARK   11  A    between atoms: C_11  and  N_12
REMARK                            x       y       z     vdW  Elec       q    Type
REMARK                         _______ _______ _______ _____ _____    ______ ____
ROOT
ATOM      1  N   UNL     1       4.707   4.147  18.525  0.00  0.00    +0.000 N 
ATOM      2  N   UNL     1       3.928   4.325  17.411  0.00  0.00    +0.000 NA
ATOM      3  C   UNL     1       4.740   4.488  16.425  0.00  0.00    +0.000 C 
ATOM      4  C   UNL     1       6.184   4.311  16.736  0.00  0.00    +0.000 C 
ATOM      5  C   UNL     1       7.051   5.319  16.052  0.00  0.00    +0.000 C 
ATOM      6  N   UNL     1       7.360   5.119  14.730  0.00  0.00    +0.000 N 
ATOM      7  N   UNL     1       7.483   6.388  16.639  0.00  0.00    +0.000 NA
ATOM      8  C   UNL     1       7.122   6.601  17.936  0.00  0.00    +0.000 C 
ATOM      9  N   UNL     1       6.512   5.779  18.707  0.00  0.00    +0.000 NA
ATOM     10  C   UNL     1       6.140   4.446  18.241  0.00  0.00    +0.000 C 
ATOM     11  H   UNL     1       6.780   4.505  14.167  0.00  0.00    +0.000 HD
ATOM     12  H   UNL     1       7.651   5.967  14.250  0.00  0.00    +0.000 HD
ENDROOT
BRANCH   1  13
ATOM     13  C   UNL     1       4.463   2.893  19.284  0.00  0.00    +0.000 C 
BRANCH  13  14
ATOM     14  C   UNL     1       3.060   2.312  18.967  0.00  0.00    +0.000 C 
BRANCH  14  15
ATOM     15  C   UNL     1       1.962   2.460  20.046  0.00  0.00    +0.000 C 
BRANCH  15  16
ATOM     16  C   UNL     1       1.224   3.802  20.073  0.00  0.00    +0.000 C 
BRANCH  16  17
ATOM     17  C   UNL     1       1.957   4.914  20.856  0.00  0.00    +0.000 C 
BRANCH  17  18
ATOM     18  C   UNL     1       1.695   6.368  20.430  0.00  0.00    +0.000 C 
BRANCH  18  19
ATOM     19  C   UNL     1       2.778   6.948  19.516  0.00  0.00    +0.000 C 
BRANCH  19  20
ATOM     20  C   UNL     1       2.230   7.325  18.132  0.00  0.00    +0.000 C 
BRANCH  20  21
ATOM     21  C   UNL     1       2.309   8.839  17.903  0.00  0.00    +0.000 C 
BRANCH  21  23
ATOM     22  C   UNL     1       0.691  10.016  19.443  0.00  0.00    +0.000 C 
ATOM     23  C   UNL     1       0.941   9.512  18.028  0.00  0.00    +0.000 C 
ENDBRANCH  21  23
ENDBRANCH  20  21
ENDBRANCH  19  20
ENDBRANCH  18  19
ENDBRANCH  17  18
ENDBRANCH  16  17
ENDBRANCH  15  16
ENDBRANCH  14  15
ENDBRANCH  13  14
ENDBRANCH   1  13
TORSDOF 10
ENDMDL
MODEL 4
REMARK VINA RESULT:      -6.3      0.918      1.018
REMARK  Name = 
REMARK  11 active torsions:
REMARK  status: ('A' for Active; 'I' for Inactive)
REMARK    1  A    between atoms: C_1  and  C_2
REMARK    2  A    between atoms: C_2  and  C_3
REMARK    3  A    between atoms: C_3  and  C_4
REMARK    4  A    between atoms: C_4  and  C_5
REMARK    5  A    between atoms: C_5  and  C_6
REMARK    6  A    between atoms: C_6  and  C_7
REMARK    7  A    between atoms: C_7  and  C_8
REMARK    8  A    between atoms: C_8  and  C_9
REMARK    9  A    between atoms: C_9  and  C_10
REMARK   10  A    between atoms: C_10  and  C_11
REMARK   11  A    between atoms: C_11  and  N_12
REMARK                            x       y       z     vdW  Elec       q    Type
REMARK                         _______ _______ _______ _____ _____    ______ ____
ROOT
ATOM      1  N   UNL     1       6.036   5.053  16.112  0.00  0.00    +0.000 N 
ATOM      2  N   UNL     1       7.065   4.149  16.157  0.00  0.00    +0.000 NA
ATOM      3  C   UNL     1       7.607   4.278  17.319  0.00  0.00    +0.000 C 
ATOM      4  C   UNL     1       6.922   5.207  18.257  0.00  0.00    +0.000 C 
ATOM      5  C   UNL     1       7.878   6.042  19.047  0.00  0.00    +0.000 C 
ATOM      6  N   UNL     1       8.492   5.473  20.134  0.00  0.00    +0.000 N 
ATOM      7  N   UNL     1       8.182   7.257  18.723  0.00  0.00    +0.000 NA
ATOM      8  C   UNL     1       7.607   7.790  17.609  0.00  0.00    +0.000 C 
ATOM      9  N   UNL     1       6.668   7.271  16.907  0.00  0.00    +0.000 NA
ATOM     10  C   UNL     1       6.078   5.987  17.274  0.00  0.00    +0.000 C 
ATOM     11  H   UNL     1       8.542   4.462  20.208  0.00  0.00    +0.000 HD
ATOM     12  H   UNL     1       9.345   5.950  20.413  0.00  0.00    +0.000 HD
ENDROOT
BRANCH   1  13
ATOM     13  C   UNL     1       4.696   4.484  15.809  0.00  0.00    +0.000 C 
BRANCH  13  14
ATOM     14  C   UNL     1       3.827   4.390  17.088  0.00  0.00    +0.000 C 
BRANCH  14  15
ATOM     15  C   UNL     1       2.512   3.579  17.005  0.00  0.00    +0.000 C 
BRANCH  15  16
ATOM     16  C   UNL     1       2.467   2.287  17.825  0.00  0.00    +0.000 C 
BRANCH  16  17
ATOM     17  C   UNL     1       1.240   2.167  18.757  0.00  0.00    +0.000 C 
BRANCH  17  18
ATOM     18  C   UNL     1       1.455   2.459  20.250  0.00  0.00    +0.000 C 
BRANCH  18  19
ATOM     19  C   UNL     1       2.692   3.314  20.541  0.00  0.00    +0.000 C 
BRANCH  19  20
ATOM     20  C   UNL     1       2.332   4.641  21.226  0.00  0.00    +0.000 C 
BRANCH  20  21
ATOM     21  C   UNL     1       1.781   5.650  20.212  0.00  0.00    +0.000 C 
BRANCH  21  23
ATOM     22  C   UNL     1       2.366   7.333  18.423  0.00  0.00    +0.000 C 
ATOM     23  C   UNL     1       2.888   6.502  19.588  0.00  0.00    +0.000 C 
ENDBRANCH  21  23
ENDBRANCH  20  21
ENDBRANCH  19  20
ENDBRANCH  18  19
ENDBRANCH  17  18
ENDBRANCH  16  17
ENDBRANCH  15  16
ENDBRANCH  14  15
ENDBRANCH  13  14
ENDBRANCH   1  13
TORSDOF 10
ENDMDL
MODEL 5
REMARK VINA RESULT:      -6.3      3.728      6.888
REMARK  Name = 
REMARK  11 active torsions:
REMARK  status: ('A' for Active; 'I' for Inactive)
REMARK    1  A    between atoms: C_1  and  C_2
REMARK    2  A    between atoms: C_2  and  C_3
REMARK    3  A    between atoms: C_3  and  C_4
REMARK    4  A    between atoms: C_4  and  C_5
REMARK    5  A    between atoms: C_5  and  C_6
REMARK    6  A    between atoms: C_6  and  C_7
REMARK    7  A    between atoms: C_7  and  C_8
REMARK    8  A    between atoms: C_8  and  C_9
REMARK    9  A    between atoms: C_9  and  C_10
REMARK   10  A    between atoms: C_10  and  C_11
REMARK   11  A    between atoms: C_11  and  N_12
REMARK                            x       y       z     vdW  Elec       q    Type
REMARK                         _______ _______ _______ _____ _____    ______ ____
ROOT
ATOM      1  N   UNL     1       4.427   5.044  19.060  0.00  0.00    +0.000 N 
ATOM      2  N   UNL     1       5.016   3.814  19.199  0.00  0.00    +0.000 NA
ATOM      3  C   UNL     1       4.090   2.944  18.986  0.00  0.00    +0.000 C 
ATOM      4  C   UNL     1       2.777   3.487  18.545  0.00  0.00    +0.000 C 
ATOM      5  C   UNL     1       1.619   2.789  19.182  0.00  0.00    +0.000 C 
ATOM      6  N   UNL     1       1.233   1.574  18.674  0.00  0.00    +0.000 N 
ATOM      7  N   UNL     1       0.997   3.260  20.215  0.00  0.00    +0.000 NA
ATOM      8  C   UNL     1       1.427   4.440  20.743  0.00  0.00    +0.000 C 
ATOM      9  N   UNL     1       2.300   5.232  20.241  0.00  0.00    +0.000 NA
ATOM     10  C   UNL     1       2.943   4.930  18.965  0.00  0.00    +0.000 C 
ATOM     11  H   UNL     1       1.886   1.036  18.114  0.00  0.00    +0.000 HD
ATOM     12  H   UNL     1       0.691   1.016  19.327  0.00  0.00    +0.000 HD
ENDROOT
BRANCH   1  13
ATOM     13  C   UNL     1       5.056   5.945  18.059  0.00  0.00    +0.000 C 
BRANCH  13  14
ATOM     14  C   UNL     1       6.602   5.904  18.164  0.00  0.00    +0.000 C 
BRANCH  14  15
ATOM     15  C   UNL     1       7.392   5.408  16.930  0.00  0.00    +0.000 C 
BRANCH  15  16
ATOM     16  C   UNL     1       6.748   4.269  16.134  0.00  0.00    +0.000 C 
BRANCH  16  17
ATOM     17  C   UNL     1       5.586   4.712  15.218  0.00  0.00    +0.000 C 
BRANCH  17  18
ATOM     18  C   UNL     1       5.837   4.701  13.701  0.00  0.00    +0.000 C 
BRANCH  18  19
ATOM     19  C   UNL     1       6.288   3.342  13.159  0.00  0.00    +0.000 C 
BRANCH  19  20
ATOM     20  C   UNL     1       5.637   3.011  11.808  0.00  0.00    +0.000 C 
BRANCH  20  21
ATOM     21  C   UNL     1       4.191   3.516  11.756  0.00  0.00    +0.000 C 
BRANCH  21  23
ATOM     22  C   UNL     1       2.960   4.256   9.679  0.00  0.00    +0.000 C 
ATOM     23  C   UNL     1       3.470   3.068  10.484  0.00  0.00    +0.000 C 
ENDBRANCH  21  23
ENDBRANCH  20  21
ENDBRANCH  19  20
ENDBRANCH  18  19
ENDBRANCH  17  18
ENDBRANCH  16  17
ENDBRANCH  15  16
ENDBRANCH  14  15
ENDBRANCH  13  14
ENDBRANCH   1  13
TORSDOF 10
ENDMDL
MODEL 6
REMARK VINA RESULT:      -6.2      3.342      6.798
REMARK  Name = 
REMARK  11 active torsions:
REMARK  status: ('A' for Active; 'I' for Inactive)
REMARK    1  A    between atoms: C_1  and  C_2
REMARK    2  A    between atoms: C_2  and  C_3
REMARK    3  A    between atoms: C_3  and  C_4
REMARK    4  A    between atoms: C_4  and  C_5
REMARK    5  A    between atoms: C_5  and  C_6
REMARK    6  A    between atoms: C_6  and  C_7
REMARK    7  A    between atoms: C_7  and  C_8
REMARK    8  A    between atoms: C_8  and  C_9
REMARK    9  A    between atoms: C_9  and  C_10
REMARK   10  A    between atoms: C_10  and  C_11
REMARK   11  A    between atoms: C_11  and  N_12
REMARK                            x       y       z     vdW  Elec       q    Type
REMARK                         _______ _______ _______ _____ _____    ______ ____
ROOT
ATOM      1  N   UNL     1       3.696   4.096  17.464  0.00  0.00    +0.000 N 
ATOM      2  N   UNL     1       4.005   5.047  18.402  0.00  0.00    +0.000 NA
ATOM      3  C   UNL     1       3.731   4.526  19.548  0.00  0.00    +0.000 C 
ATOM      4  C   UNL     1       3.319   3.096  19.530  0.00  0.00    +0.000 C 
ATOM      5  C   UNL     1       2.200   2.805  20.477  0.00  0.00    +0.000 C 
ATOM      6  N   UNL     1       2.497   2.654  21.807  0.00  0.00    +0.000 N 
ATOM      7  N   UNL     1       0.963   2.735  20.101  0.00  0.00    +0.000 NA
ATOM      8  C   UNL     1       0.676   2.943  18.786  0.00  0.00    +0.000 C 
ATOM      9  N   UNL     1       1.518   3.059  17.826  0.00  0.00    +0.000 NA
ATOM     10  C   UNL     1       2.954   2.953  18.070  0.00  0.00    +0.000 C 
ATOM     11  H   UNL     1       3.365   3.031  22.172  0.00  0.00    +0.000 HD
ATOM     12  H   UNL     1       1.697   2.792  22.419  0.00  0.00    +0.000 HD
ENDROOT
BRANCH   1  13
ATOM     13  C   UNL     1       4.805   3.715  16.550  0.00  0.00    +0.000 C 
BRANCH  13  14
ATOM     14  C   UNL     1       5.666   4.947  16.170  0.00  0.00    +0.000 C 
BRANCH  14  15
ATOM     15  C   UNL     1       7.180   4.889  16.481  0.00  0.00    +0.000 C 
BRANCH  15  16
ATOM     16  C   UNL     1       7.566   5.015  17.958  0.00  0.00    +0.000 C 
BRANCH  16  17
ATOM     17  C   UNL     1       7.678   6.470  18.464  0.00  0.00    +0.000 C 
BRANCH  17  18
ATOM     18  C   UNL     1       7.929   7.566  17.416  0.00  0.00    +0.000 C 
BRANCH  18  19
ATOM     19  C   UNL     1       7.671   8.984  17.932  0.00  0.00    +0.000 C 
BRANCH  19  20
ATOM     20  C   UNL     1       8.909   9.589  18.611  0.00  0.00    +0.000 C 
BRANCH  20  21
ATOM     21  C   UNL     1       9.208  10.989  18.062  0.00  0.00    +0.000 C 
BRANCH  21  23
ATOM     22  C   UNL     1      10.273  11.381  20.318  0.00  0.00    +0.000 C 
ATOM     23  C   UNL     1      10.342  11.676  18.825  0.00  0.00    +0.000 C 
ENDBRANCH  21  23
ENDBRANCH  20  21
ENDBRANCH  19  20
ENDBRANCH  18  19
ENDBRANCH  17  18
ENDBRANCH  16  17
ENDBRANCH  15  16
ENDBRANCH  14  15
ENDBRANCH  13  14
ENDBRANCH   1  13
TORSDOF 10
ENDMDL
MODEL 7
REMARK VINA RESULT:      -6.2      3.325      6.654
REMARK  Name = 
REMARK  11 active torsions:
REMARK  status: ('A' for Active; 'I' for Inactive)
REMARK    1  A    between atoms: C_1  and  C_2
REMARK    2  A    between atoms: C_2  and  C_3
REMARK    3  A    between atoms: C_3  and  C_4
REMARK    4  A    between atoms: C_4  and  C_5
REMARK    5  A    between atoms: C_5  and  C_6
REMARK    6  A    between atoms: C_6  and  C_7
REMARK    7  A    between atoms: C_7  and  C_8
REMARK    8  A    between atoms: C_8  and  C_9
REMARK    9  A    between atoms: C_9  and  C_10
REMARK   10  A    between atoms: C_10  and  C_11
REMARK   11  A    between atoms: C_11  and  N_12
REMARK                            x       y       z     vdW  Elec       q    Type
REMARK                         _______ _______ _______ _____ _____    ______ ____
ROOT
ATOM      1  N   UNL     1       4.123   5.561  18.192  0.00  0.00    +0.000 N 
ATOM      2  N   UNL     1       4.827   5.105  19.276  0.00  0.00    +0.000 NA
ATOM      3  C   UNL     1       4.780   3.819  19.221  0.00  0.00    +0.000 C 
ATOM      4  C   UNL     1       4.138   3.242  18.009  0.00  0.00    +0.000 C 
ATOM      5  C   UNL     1       3.275   2.061  18.318  0.00  0.00    +0.000 C 
ATOM      6  N   UNL     1       3.883   0.847  18.516  0.00  0.00    +0.000 N 
ATOM      7  N   UNL     1       1.991   2.145  18.449  0.00  0.00    +0.000 NA
ATOM      8  C   UNL     1       1.407   3.368  18.305  0.00  0.00    +0.000 C 
ATOM      9  N   UNL     1       1.973   4.445  17.903  0.00  0.00    +0.000 NA
ATOM     10  C   UNL     1       3.382   4.456  17.519  0.00  0.00    +0.000 C 
ATOM     11  H   UNL     1       4.869   0.813  18.755  0.00  0.00    +0.000 HD
ATOM     12  H   UNL     1       3.309   0.187  19.033  0.00  0.00    +0.000 HD
ENDROOT
BRANCH   1  13
ATOM     13  C   UNL     1       4.868   6.468  17.280  0.00  0.00    +0.000 C 
BRANCH  13  14
ATOM     14  C   UNL     1       6.322   6.686  17.773  0.00  0.00    +0.000 C 
BRANCH  14  15
ATOM     15  C   UNL     1       7.348   5.562  17.501  0.00  0.00    +0.000 C 
BRANCH  15  16
ATOM     16  C   UNL     1       7.023   4.623  16.336  0.00  0.00    +0.000 C 
BRANCH  16  17
ATOM     17  C   UNL     1       6.422   5.329  15.100  0.00  0.00    +0.000 C 
BRANCH  17  18
ATOM     18  C   UNL     1       5.514   4.495  14.181  0.00  0.00    +0.000 C 
BRANCH  18  19
ATOM     19  C   UNL     1       6.248   3.375  13.439  0.00  0.00    +0.000 C 
BRANCH  19  20
ATOM     20  C   UNL     1       6.158   3.532  11.914  0.00  0.00    +0.000 C 
BRANCH  20  21
ATOM     21  C   UNL     1       5.089   2.602  11.328  0.00  0.00    +0.000 C 
BRANCH  21  23
ATOM     22  C   UNL     1       3.333   3.794   9.960  0.00  0.00    +0.000 C 
ATOM     23  C   UNL     1       3.702   3.246  11.332  0.00  0.00    +0.000 C 
ENDBRANCH  21  23
ENDBRANCH  20  21
ENDBRANCH  19  20
ENDBRANCH  18  19
ENDBRANCH  17  18
ENDBRANCH  16  17
ENDBRANCH  15  16
ENDBRANCH  14  15
ENDBRANCH  13  14
ENDBRANCH   1  13
TORSDOF 10
ENDMDL
MODEL 8
REMARK VINA RESULT:      -6.2      3.519      6.843
REMARK  Name = 
REMARK  11 active torsions:
REMARK  status: ('A' for Active; 'I' for Inactive)
REMARK    1  A    between atoms: C_1  and  C_2
REMARK    2  A    between atoms: C_2  and  C_3
REMARK    3  A    between atoms: C_3  and  C_4
REMARK    4  A    between atoms: C_4  and  C_5
REMARK    5  A    between atoms: C_5  and  C_6
REMARK    6  A    between atoms: C_6  and  C_7
REMARK    7  A    between atoms: C_7  and  C_8
REMARK    8  A    between atoms: C_8  and  C_9
REMARK    9  A    between atoms: C_9  and  C_10
REMARK   10  A    between atoms: C_10  and  C_11
REMARK   11  A    between atoms: C_11  and  N_12
REMARK                            x       y       z     vdW  Elec       q    Type
REMARK                         _______ _______ _______ _____ _____    ______ ____
ROOT
ATOM      1  N   UNL     1       3.275   4.790  18.283  0.00  0.00    +0.000 N 
ATOM      2  N   UNL     1       2.013   4.296  18.078  0.00  0.00    +0.000 NA
ATOM      3  C   UNL     1       1.602   3.871  19.223  0.00  0.00    +0.000 C 
ATOM      4  C   UNL     1       2.498   4.146  20.379  0.00  0.00    +0.000 C 
ATOM      5  C   UNL     1       2.583   2.998  21.332  0.00  0.00    +0.000 C 
ATOM      6  N   UNL     1       1.559   2.820  22.228  0.00  0.00    +0.000 N 
ATOM      7  N   UNL     1       3.554   2.143  21.316  0.00  0.00    +0.000 NA
ATOM      8  C   UNL     1       4.535   2.300  20.383  0.00  0.00    +0.000 C 
ATOM      9  N   UNL     1       4.692   3.298  19.595  0.00  0.00    +0.000 NA
ATOM     10  C   UNL     1       3.784   4.441  19.641  0.00  0.00    +0.000 C 
ATOM     11  H   UNL     1       0.655   3.243  22.046  0.00  0.00    +0.000 HD
ATOM     12  H   UNL     1       1.505   1.876  22.599  0.00  0.00    +0.000 HD
ENDROOT
BRANCH   1  13
ATOM     13  C   UNL     1       3.483   6.205  17.876  0.00  0.00    +0.000 C 
BRANCH  13  14
ATOM     14  C   UNL     1       4.560   6.314  16.766  0.00  0.00    +0.000 C 
BRANCH  14  15
ATOM     15  C   UNL     1       6.011   6.622  17.202  0.00  0.00    +0.000 C 
BRANCH  15  16
ATOM     16  C   UNL     1       6.849   5.418  17.644  0.00  0.00    +0.000 C 
BRANCH  16  17
ATOM     17  C   UNL     1       7.126   4.391  16.524  0.00  0.00    +0.000 C 
BRANCH  17  18
ATOM     18  C   UNL     1       7.059   4.891  15.072  0.00  0.00    +0.000 C 
BRANCH  18  19
ATOM     19  C   UNL     1       6.080   4.109  14.193  0.00  0.00    +0.000 C 
BRANCH  19  20
ATOM     20  C   UNL     1       6.621   3.893  12.772  0.00  0.00    +0.000 C 
BRANCH  20  21
ATOM     21  C   UNL     1       5.539   3.311  11.855  0.00  0.00    +0.000 C 
BRANCH  21  23
ATOM     22  C   UNL     1       7.032   1.521  10.884  0.00  0.00    +0.000 C 
ATOM     23  C   UNL     1       5.730   1.811  11.619  0.00  0.00    +0.000 C 
ENDBRANCH  21  23
ENDBRANCH  20  21
ENDBRANCH  19  20
ENDBRANCH  18  19
ENDBRANCH  17  18
ENDBRANCH  16  17
ENDBRANCH  15  16
ENDBRANCH  14  15
ENDBRANCH  13  14
ENDBRANCH   1  13
TORSDOF 10
ENDMDL
MODEL 9
REMARK VINA RESULT:      -6.1      1.746      3.009
REMARK  Name = 
REMARK  11 active torsions:
REMARK  status: ('A' for Active; 'I' for Inactive)
REMARK    1  A    between atoms: C_1  and  C_2
REMARK    2  A    between atoms: C_2  and  C_3
REMARK    3  A    between atoms: C_3  and  C_4
REMARK    4  A    between atoms: C_4  and  C_5
REMARK    5  A    between atoms: C_5  and  C_6
REMARK    6  A    between atoms: C_6  and  C_7
REMARK    7  A    between atoms: C_7  and  C_8
REMARK    8  A    between atoms: C_8  and  C_9
REMARK    9  A    between atoms: C_9  and  C_10
REMARK   10  A    between atoms: C_10  and  C_11
REMARK   11  A    between atoms: C_11  and  N_12
REMARK                            x       y       z     vdW  Elec       q    Type
REMARK                         _______ _______ _______ _____ _____    ______ ____
ROOT
ATOM      1  N   UNL     1       3.876   5.010  17.628  0.00  0.00    +0.000 N 
ATOM      2  N   UNL     1       3.908   6.257  17.060  0.00  0.00    +0.000 NA
ATOM      3  C   UNL     1       4.873   6.239  16.205  0.00  0.00    +0.000 C 
ATOM      4  C   UNL     1       5.535   4.923  16.000  0.00  0.00    +0.000 C 
ATOM      5  C   UNL     1       7.019   5.036  15.866  0.00  0.00    +0.000 C 
ATOM      6  N   UNL     1       7.534   5.431  14.657  0.00  0.00    +0.000 N 
ATOM      7  N   UNL     1       7.831   4.822  16.851  0.00  0.00    +0.000 NA
ATOM      8  C   UNL     1       7.302   4.485  18.060  0.00  0.00    +0.000 C 
ATOM      9  N   UNL     1       6.076   4.206  18.310  0.00  0.00    +0.000 NA
ATOM     10  C   UNL     1       5.074   4.206  17.249  0.00  0.00    +0.000 C 
ATOM     11  H   UNL     1       6.941   5.923  13.997  0.00  0.00    +0.000 HD
ATOM     12  H   UNL     1       8.478   5.804  14.722  0.00  0.00    +0.000 HD
ENDROOT
BRANCH   1  13
ATOM     13  C   UNL     1       2.578   4.293  17.526  0.00  0.00    +0.000 C 
BRANCH  13  14
ATOM     14  C   UNL     1       2.789   2.758  17.477  0.00  0.00    +0.000 C 
BRANCH  14  15
ATOM     15  C   UNL     1       2.583   1.962  18.787  0.00  0.00    +0.000 C 
BRANCH  15  16
ATOM     16  C   UNL     1       3.456   2.384  19.972  0.00  0.00    +0.000 C 
BRANCH  16  17
ATOM     17  C   UNL     1       2.663   2.776  21.238  0.00  0.00    +0.000 C 
BRANCH  17  18
ATOM     18  C   UNL     1       1.170   3.099  21.066  0.00  0.00    +0.000 C 
BRANCH  18  19
ATOM     19  C   UNL     1       0.901   4.496  20.499  0.00  0.00    +0.000 C 
BRANCH  19  20
ATOM     20  C   UNL     1       2.059   5.467  20.774  0.00  0.00    +0.000 C 
BRANCH  20  21
ATOM     21  C   UNL     1       1.725   6.876  20.270  0.00  0.00    +0.000 C 
BRANCH  21  23
ATOM     22  C   UNL     1       0.077   8.495  21.287  0.00  0.00    +0.000 C 
ATOM     23  C   UNL     1       1.449   7.848  21.418  0.00  0.00    +0.000 C 
ENDBRANCH  21  23
ENDBRANCH  20  21
ENDBRANCH  19  20
ENDBRANCH  18  19
ENDBRANCH  17  18
ENDBRANCH  16  17
ENDBRANCH  15  16
ENDBRANCH  14  15
ENDBRANCH  13  14
ENDBRANCH   1  13
TORSDOF 10
ENDMDL
