MODEL 1
REMARK VINA RESULT:      -7.1      0.000      0.000
REMARK  Name = 
REMARK  3 active torsions:
REMARK  status: ('A' for Active; 'I' for Inactive)
REMARK    1  A    between atoms: C_1  and  C_2
REMARK    2  A    between atoms: N_7  and  N_8
REMARK    3  A    between atoms: C_9  and  C_10
REMARK                            x       y       z     vdW  Elec       q    Type
REMARK                         _______ _______ _______ _____ _____    ______ ____
ROOT
ATOM      1  N   UNL     1       5.294   4.732  18.196  0.00  0.00    +0.000 NA
ATOM      2  C   UNL     1       4.267   5.126  18.888  0.00  0.00    +0.000 C 
ENDROOT
BRANCH   1   9
ATOM      3  C   UNL     1       5.518   6.613  15.897  0.00  0.00    +0.000 C 
ATOM      4  C   UNL     1       6.437   6.557  17.071  0.00  0.00    +0.000 A 
ATOM      5  N   UNL     1       7.448   7.376  17.202  0.00  0.00    +0.000 NA
ATOM      6  N   UNL     1       8.022   7.004  18.382  0.00  0.00    +0.000 N 
ATOM      7  C   UNL     1       7.309   5.967  18.980  0.00  0.00    +0.000 A 
ATOM      8  O   UNL     1       7.552   5.507  20.087  0.00  0.00    +0.000 OA
ATOM      9  N   UNL     1       6.312   5.651  18.069  0.00  0.00    +0.000 N 
ATOM     10  H   UNL     1       8.799   7.504  18.798  0.00  0.00    +0.000 HD
ENDBRANCH   1   9
BRANCH   2  11
ATOM     11  C   UNL     1       3.033   4.331  19.064  0.00  0.00    +0.000 A 
ATOM     12  C   UNL     1       2.167   4.073  18.000  0.00  0.00    +0.000 A 
ATOM     13  C   UNL     1       1.011   3.316  18.217  0.00  0.00    +0.000 A 
ATOM     14  C   UNL     1       0.724   2.818  19.491  0.00  0.00    +0.000 A 
ATOM     15  C   UNL     1       1.589   3.090  20.551  0.00  0.00    +0.000 A 
ATOM     16 CL   UNL     1       1.231   2.481  22.120  0.00  0.00    +0.000 Cl
ATOM     17  C   UNL     1       2.740   3.849  20.348  0.00  0.00    +0.000 A 
ENDBRANCH   2  11
TORSDOF 2
ENDMDL
MODEL 2
REMARK VINA RESULT:      -7.0      1.741      1.933
REMARK  Name = 
REMARK  3 active torsions:
REMARK  status: ('A' for Active; 'I' for Inactive)
REMARK    1  A    between atoms: C_1  and  C_2
REMARK    2  A    between atoms: N_7  and  N_8
REMARK    3  A    between atoms: C_9  and  C_10
REMARK                            x       y       z     vdW  Elec       q    Type
REMARK                         _______ _______ _______ _____ _____    ______ ____
ROOT
ATOM      1  N   UNL     1       4.467   4.855  16.612  0.00  0.00    +0.000 NA
ATOM      2  C   UNL     1       4.412   4.147  17.701  0.00  0.00    +0.000 C 
ENDROOT
BRANCH   1   9
ATOM      3  C   UNL     1       5.674   3.957  14.041  0.00  0.00    +0.000 C 
ATOM      4  C   UNL     1       6.310   4.877  15.029  0.00  0.00    +0.000 A 
ATOM      5  N   UNL     1       7.491   5.401  14.830  0.00  0.00    +0.000 NA
ATOM      6  N   UNL     1       7.703   6.165  15.940  0.00  0.00    +0.000 N 
ATOM      7  C   UNL     1       6.604   6.120  16.795  0.00  0.00    +0.000 A 
ATOM      8  O   UNL     1       6.491   6.785  17.816  0.00  0.00    +0.000 OA
ATOM      9  N   UNL     1       5.731   5.218  16.204  0.00  0.00    +0.000 N 
ATOM     10  H   UNL     1       8.515   6.760  16.052  0.00  0.00    +0.000 HD
ENDBRANCH   1   9
BRANCH   2  11
ATOM     11  C   UNL     1       3.153   3.735  18.359  0.00  0.00    +0.000 A 
ATOM     12  C   UNL     1       1.942   3.694  17.666  0.00  0.00    +0.000 A 
ATOM     13  C   UNL     1       0.778   3.297  18.332  0.00  0.00    +0.000 A 
ATOM     14  C   UNL     1       0.826   2.944  19.684  0.00  0.00    +0.000 A 
ATOM     15  C   UNL     1       2.038   2.999  20.371  0.00  0.00    +0.000 A 
ATOM     16 CL   UNL     1       2.094   2.569  22.036  0.00  0.00    +0.000 Cl
ATOM     17  C   UNL     1       3.203   3.398  19.719  0.00  0.00    +0.000 A 
ENDBRANCH   2  11
TORSDOF 2
ENDMDL
MODEL 3
REMARK VINA RESULT:      -6.9      2.060      2.416
REMARK  Name = 
REMARK  3 active torsions:
REMARK  status: ('A' for Active; 'I' for Inactive)
REMARK    1  A    between atoms: C_1  and  C_2
REMARK    2  A    between atoms: N_7  and  N_8
REMARK    3  A    between atoms: C_9  and  C_10
REMARK                            x       y       z     vdW  Elec       q    Type
REMARK                         _______ _______ _______ _____ _____    ______ ____
ROOT
ATOM      1  N   UNL     1       5.233   4.148  17.423  0.00  0.00    +0.000 NA
ATOM      2  C   UNL     1       4.026   4.627  17.470  0.00  0.00    +0.000 C 
ENDROOT
BRANCH   1   9
ATOM      3  C   UNL     1       7.104   6.302  18.281  0.00  0.00    +0.000 C 
ATOM      4  C   UNL     1       6.994   5.740  16.903  0.00  0.00    +0.000 A 
ATOM      5  N   UNL     1       7.754   6.151  15.922  0.00  0.00    +0.000 NA
ATOM      6  N   UNL     1       7.347   5.404  14.855  0.00  0.00    +0.000 N 
ATOM      7  C   UNL     1       6.351   4.504  15.227  0.00  0.00    +0.000 A 
ATOM      8  O   UNL     1       5.874   3.652  14.489  0.00  0.00    +0.000 OA
ATOM      9  N   UNL     1       6.093   4.789  16.560  0.00  0.00    +0.000 N 
ATOM     10  H   UNL     1       7.801   5.443  13.951  0.00  0.00    +0.000 HD
ENDBRANCH   1   9
BRANCH   2  11
ATOM     11  C   UNL     1       2.927   4.029  18.257  0.00  0.00    +0.000 A 
ATOM     12  C   UNL     1       1.756   3.569  17.653  0.00  0.00    +0.000 A 
ATOM     13  C   UNL     1       0.744   3.010  18.440  0.00  0.00    +0.000 A 
ATOM     14  C   UNL     1       0.903   2.912  19.825  0.00  0.00    +0.000 A 
ATOM     15  C   UNL     1       2.071   3.384  20.422  0.00  0.00    +0.000 A 
ATOM     16 CL   UNL     1       2.263   3.267  22.128  0.00  0.00    +0.000 Cl
ATOM     17  C   UNL     1       3.084   3.948  19.648  0.00  0.00    +0.000 A 
ENDBRANCH   2  11
TORSDOF 2
ENDMDL
MODEL 4
REMARK VINA RESULT:      -6.8      2.511      2.773
REMARK  Name = 
REMARK  3 active torsions:
REMARK  status: ('A' for Active; 'I' for Inactive)
REMARK    1  A    between atoms: C_1  and  C_2
REMARK    2  A    between atoms: N_7  and  N_8
REMARK    3  A    between atoms: C_9  and  C_10
REMARK                            x       y       z     vdW  Elec       q    Type
REMARK                         _______ _______ _______ _____ _____    ______ ____
ROOT
ATOM      1  N   UNL     1       5.241   3.755  16.210  0.00  0.00    +0.000 NA
ATOM      2  C   UNL     1       4.501   4.549  16.923  0.00  0.00    +0.000 C 
ENDROOT
BRANCH   1   9
ATOM      3  C   UNL     1       5.282   3.690  13.232  0.00  0.00    +0.000 C 
ATOM      4  C   UNL     1       6.258   4.409  14.102  0.00  0.00    +0.000 A 
ATOM      5  N   UNL     1       7.242   5.115  13.608  0.00  0.00    +0.000 NA
ATOM      6  N   UNL     1       7.886   5.598  14.710  0.00  0.00    +0.000 N 
ATOM      7  C   UNL     1       7.242   5.199  15.879  0.00  0.00    +0.000 A 
ATOM      8  O   UNL     1       7.554   5.569  17.004  0.00  0.00    +0.000 OA
ATOM      9  N   UNL     1       6.216   4.369  15.455  0.00  0.00    +0.000 N 
ATOM     10  H   UNL     1       8.662   6.246  14.654  0.00  0.00    +0.000 HD
ENDBRANCH   1   9
BRANCH   2  11
ATOM     11  C   UNL     1       3.343   4.105  17.728  0.00  0.00    +0.000 A 
ATOM     12  C   UNL     1       2.672   2.912  17.452  0.00  0.00    +0.000 A 
ATOM     13  C   UNL     1       1.582   2.533  18.241  0.00  0.00    +0.000 A 
ATOM     14  C   UNL     1       1.166   3.343  19.302  0.00  0.00    +0.000 A 
ATOM     15  C   UNL     1       1.835   4.538  19.564  0.00  0.00    +0.000 A 
ATOM     16 CL   UNL     1       1.319   5.535  20.868  0.00  0.00    +0.000 Cl
ATOM     17  C   UNL     1       2.919   4.928  18.780  0.00  0.00    +0.000 A 
ENDBRANCH   2  11
TORSDOF 2
ENDMDL
MODEL 5
REMARK VINA RESULT:      -6.8      2.253      2.806
REMARK  Name = 
REMARK  3 active torsions:
REMARK  status: ('A' for Active; 'I' for Inactive)
REMARK    1  A    between atoms: C_1  and  C_2
REMARK    2  A    between atoms: N_7  and  N_8
REMARK    3  A    between atoms: C_9  and  C_10
REMARK                            x       y       z     vdW  Elec       q    Type
REMARK                         _______ _______ _______ _____ _____    ______ ____
ROOT
ATOM      1  N   UNL     1       5.165   4.608  17.525  0.00  0.00    +0.000 NA
ATOM      2  C   UNL     1       4.137   5.357  17.792  0.00  0.00    +0.000 C 
ENDROOT
BRANCH   1   9
ATOM      3  C   UNL     1       7.492   6.332  18.222  0.00  0.00    +0.000 C 
ATOM      4  C   UNL     1       7.136   5.859  16.852  0.00  0.00    +0.000 A 
ATOM      5  N   UNL     1       7.857   6.160  15.804  0.00  0.00    +0.000 NA
ATOM      6  N   UNL     1       7.207   5.549  14.772  0.00  0.00    +0.000 N 
ATOM      7  C   UNL     1       6.100   4.838  15.229  0.00  0.00    +0.000 A 
ATOM      8  O   UNL     1       5.396   4.123  14.528  0.00  0.00    +0.000 OA
ATOM      9  N   UNL     1       6.039   5.110  16.588  0.00  0.00    +0.000 N 
ATOM     10  H   UNL     1       7.565   5.540  13.824  0.00  0.00    +0.000 HD
ENDBRANCH   1   9
BRANCH   2  11
ATOM     11  C   UNL     1       3.035   4.962  18.694  0.00  0.00    +0.000 A 
ATOM     12  C   UNL     1       2.718   5.702  19.835  0.00  0.00    +0.000 A 
ATOM     13  C   UNL     1       1.666   5.289  20.658  0.00  0.00    +0.000 A 
ATOM     14  C   UNL     1       0.934   4.141  20.341  0.00  0.00    +0.000 A 
ATOM     15  C   UNL     1       1.264   3.401  19.206  0.00  0.00    +0.000 A 
ATOM     16 CL   UNL     1       0.364   1.986  18.820  0.00  0.00    +0.000 Cl
ATOM     17  C   UNL     1       2.314   3.801  18.382  0.00  0.00    +0.000 A 
ENDBRANCH   2  11
TORSDOF 2
ENDMDL
MODEL 6
REMARK VINA RESULT:      -6.7      2.498      2.874
REMARK  Name = 
REMARK  3 active torsions:
REMARK  status: ('A' for Active; 'I' for Inactive)
REMARK    1  A    between atoms: C_1  and  C_2
REMARK    2  A    between atoms: N_7  and  N_8
REMARK    3  A    between atoms: C_9  and  C_10
REMARK                            x       y       z     vdW  Elec       q    Type
REMARK                         _______ _______ _______ _____ _____    ______ ____
ROOT
ATOM      1  N   UNL     1       4.528   5.315  16.633  0.00  0.00    +0.000 NA
ATOM      2  C   UNL     1       4.228   4.122  17.053  0.00  0.00    +0.000 C 
ENDROOT
BRANCH   1   9
ATOM      3  C   UNL     1       7.002   6.608  17.673  0.00  0.00    +0.000 C 
ATOM      4  C   UNL     1       6.856   5.949  16.342  0.00  0.00    +0.000 A 
ATOM      5  N   UNL     1       7.848   5.864  15.496  0.00  0.00    +0.000 NA
ATOM      6  N   UNL     1       7.314   5.204  14.427  0.00  0.00    +0.000 N 
ATOM      7  C   UNL     1       5.987   4.857  14.667  0.00  0.00    +0.000 A 
ATOM      8  O   UNL     1       5.300   4.180  13.915  0.00  0.00    +0.000 OA
ATOM      9  N   UNL     1       5.692   5.413  15.904  0.00  0.00    +0.000 N 
ATOM     10  H   UNL     1       7.863   4.922  13.624  0.00  0.00    +0.000 HD
ENDBRANCH   1   9
BRANCH   2  11
ATOM     11  C   UNL     1       3.077   3.816  17.928  0.00  0.00    +0.000 A 
ATOM     12  C   UNL     1       2.329   2.648  17.776  0.00  0.00    +0.000 A 
ATOM     13  C   UNL     1       1.248   2.402  18.629  0.00  0.00    +0.000 A 
ATOM     14  C   UNL     1       0.919   3.320  19.630  0.00  0.00    +0.000 A 
ATOM     15  C   UNL     1       1.664   4.491  19.768  0.00  0.00    +0.000 A 
ATOM     16 CL   UNL     1       1.254   5.622  20.997  0.00  0.00    +0.000 Cl
ATOM     17  C   UNL     1       2.740   4.748  18.920  0.00  0.00    +0.000 A 
ENDBRANCH   2  11
TORSDOF 2
ENDMDL
MODEL 7
REMARK VINA RESULT:      -6.7      1.452      2.062
REMARK  Name = 
REMARK  3 active torsions:
REMARK  status: ('A' for Active; 'I' for Inactive)
REMARK    1  A    between atoms: C_1  and  C_2
REMARK    2  A    between atoms: N_7  and  N_8
REMARK    3  A    between atoms: C_9  and  C_10
REMARK                            x       y       z     vdW  Elec       q    Type
REMARK                         _______ _______ _______ _____ _____    ______ ____
ROOT
ATOM      1  N   UNL     1       5.744   4.852  18.139  0.00  0.00    +0.000 NA
ATOM      2  C   UNL     1       4.525   5.053  18.544  0.00  0.00    +0.000 C 
ENDROOT
BRANCH   1   9
ATOM      3  C   UNL     1       8.069   5.596  19.846  0.00  0.00    +0.000 C 
ATOM      4  C   UNL     1       7.588   6.349  18.651  0.00  0.00    +0.000 A 
ATOM      5  N   UNL     1       8.184   7.432  18.226  0.00  0.00    +0.000 NA
ATOM      6  N   UNL     1       7.452   7.805  17.137  0.00  0.00    +0.000 N 
ATOM      7  C   UNL     1       6.424   6.896  16.891  0.00  0.00    +0.000 A 
ATOM      8  O   UNL     1       5.677   6.940  15.924  0.00  0.00    +0.000 OA
ATOM      9  N   UNL     1       6.497   5.987  17.936  0.00  0.00    +0.000 N 
ATOM     10  H   UNL     1       7.709   8.582  16.540  0.00  0.00    +0.000 HD
ENDBRANCH   1   9
BRANCH   2  11
ATOM     11  C   UNL     1       3.526   3.980  18.730  0.00  0.00    +0.000 A 
ATOM     12  C   UNL     1       3.122   3.161  17.674  0.00  0.00    +0.000 A 
ATOM     13  C   UNL     1       2.173   2.159  17.899  0.00  0.00    +0.000 A 
ATOM     14  C   UNL     1       1.632   1.976  19.175  0.00  0.00    +0.000 A 
ATOM     15  C   UNL     1       2.032   2.805  20.222  0.00  0.00    +0.000 A 
ATOM     16 CL   UNL     1       1.361   2.582  21.791  0.00  0.00    +0.000 Cl
ATOM     17  C   UNL     1       2.973   3.811  20.008  0.00  0.00    +0.000 A 
ENDBRANCH   2  11
TORSDOF 2
ENDMDL
MODEL 8
REMARK VINA RESULT:      -6.7      3.894      5.302
REMARK  Name = 
REMARK  3 active torsions:
REMARK  status: ('A' for Active; 'I' for Inactive)
REMARK    1  A    between atoms: C_1  and  C_2
REMARK    2  A    between atoms: N_7  and  N_8
REMARK    3  A    between atoms: C_9  and  C_10
REMARK                            x       y       z     vdW  Elec       q    Type
REMARK                         _______ _______ _______ _____ _____    ______ ____
ROOT
ATOM      1  N   UNL     1       2.551   5.001  19.372  0.00  0.00    +0.000 NA
ATOM      2  C   UNL     1       3.023   6.189  19.608  0.00  0.00    +0.000 C 
ENDROOT
BRANCH   1   9
ATOM      3  C   UNL     1       2.104   2.940  21.476  0.00  0.00    +0.000 C 
ATOM      4  C   UNL     1       3.245   2.972  20.515  0.00  0.00    +0.000 A 
ATOM      5  N   UNL     1       4.171   2.049  20.505  0.00  0.00    +0.000 NA
ATOM      6  N   UNL     1       5.010   2.437  19.501  0.00  0.00    +0.000 N 
ATOM      7  C   UNL     1       4.545   3.594  18.880  0.00  0.00    +0.000 A 
ATOM      8  O   UNL     1       5.056   4.103  17.891  0.00  0.00    +0.000 OA
ATOM      9  N   UNL     1       3.421   3.959  19.605  0.00  0.00    +0.000 N 
ATOM     10  H   UNL     1       5.800   1.880  19.198  0.00  0.00    +0.000 HD
ENDBRANCH   1   9
BRANCH   2  11
ATOM     11  C   UNL     1       2.289   7.442  19.334  0.00  0.00    +0.000 A 
ATOM     12  C   UNL     1       2.299   8.039  18.072  0.00  0.00    +0.000 A 
ATOM     13  C   UNL     1       1.588   9.224  17.862  0.00  0.00    +0.000 A 
ATOM     14  C   UNL     1       0.871   9.810  18.909  0.00  0.00    +0.000 A 
ATOM     15  C   UNL     1       0.875   9.214  20.169  0.00  0.00    +0.000 A 
ATOM     16 CL   UNL     1      -0.004   9.940  21.458  0.00  0.00    +0.000 Cl
ATOM     17  C   UNL     1       1.584   8.035  20.392  0.00  0.00    +0.000 A 
ENDBRANCH   2  11
TORSDOF 2
ENDMDL
MODEL 9
REMARK VINA RESULT:      -6.7      3.742      5.181
REMARK  Name = 
REMARK  3 active torsions:
REMARK  status: ('A' for Active; 'I' for Inactive)
REMARK    1  A    between atoms: C_1  and  C_2
REMARK    2  A    between atoms: N_7  and  N_8
REMARK    3  A    between atoms: C_9  and  C_10
REMARK                            x       y       z     vdW  Elec       q    Type
REMARK                         _______ _______ _______ _____ _____    ______ ____
ROOT
ATOM      1  N   UNL     1       2.810   5.090  19.774  0.00  0.00    +0.000 NA
ATOM      2  C   UNL     1       2.843   5.964  18.813  0.00  0.00    +0.000 C 
ENDROOT
BRANCH   1   9
ATOM      3  C   UNL     1       1.061   2.775  19.096  0.00  0.00    +0.000 C 
ATOM      4  C   UNL     1       2.553   2.769  19.100  0.00  0.00    +0.000 A 
ATOM      5  N   UNL     1       3.244   1.709  18.774  0.00  0.00    +0.000 NA
ATOM      6  N   UNL     1       4.542   2.110  18.901  0.00  0.00    +0.000 N 
ATOM      7  C   UNL     1       4.616   3.451  19.273  0.00  0.00    +0.000 A 
ATOM      8  O   UNL     1       5.656   4.089  19.366  0.00  0.00    +0.000 OA
ATOM      9  N   UNL     1       3.298   3.842  19.458  0.00  0.00    +0.000 N 
ATOM     10  H   UNL     1       5.327   1.523  18.648  0.00  0.00    +0.000 HD
ENDBRANCH   1   9
BRANCH   2  11
ATOM     11  C   UNL     1       2.282   7.328  18.914  0.00  0.00    +0.000 A 
ATOM     12  C   UNL     1       2.287   8.207  17.829  0.00  0.00    +0.000 A 
ATOM     13  C   UNL     1       1.745   9.487  17.974  0.00  0.00    +0.000 A 
ATOM     14  C   UNL     1       1.200   9.887  19.197  0.00  0.00    +0.000 A 
ATOM     15  C   UNL     1       1.210   9.008  20.279  0.00  0.00    +0.000 A 
ATOM     16 CL   UNL     1       0.544   9.504  21.786  0.00  0.00    +0.000 Cl
ATOM     17  C   UNL     1       1.752   7.731  20.148  0.00  0.00    +0.000 A 
ENDBRANCH   2  11
TORSDOF 2
ENDMDL
