MODEL 1
REMARK VINA RESULT:      -8.7      0.000      0.000
REMARK  Name = 
REMARK  5 active torsions:
REMARK  status: ('A' for Active; 'I' for Inactive)
REMARK    1  A    between atoms: C_1  and  N_2
REMARK    2  A    between atoms: C_4  and  C_5
REMARK    3  A    between atoms: C_5  and  N_6
REMARK    4  A    between atoms: C_5  and  C_26
REMARK    5  A    between atoms: N_16  and  C_17
REMARK                            x       y       z     vdW  Elec       q    Type
REMARK                         _______ _______ _______ _____ _____    ______ ____
ROOT
ATOM      1  N   UNL     1      -1.428  11.503  22.271  0.00  0.00    +0.000 N 
ATOM      2  C   UNL     1      -0.620  10.405  22.393  0.00  0.00    +0.000 C 
ATOM      3  O   UNL     1      -0.154  10.052  23.475  0.00  0.00    +0.000 OA
ATOM      4  N   UNL     1      -0.330   9.766  21.198  0.00  0.00    +0.000 N 
ATOM      5  C   UNL     1      -0.810  10.181  19.878  0.00  0.00    +0.000 C 
ATOM      6  C   UNL     1       0.374  10.535  18.993  0.00  0.00    +0.000 C 
ATOM      7  C   UNL     1       1.301   9.370  18.912  0.00  0.00    +0.000 A 
ATOM      8  C   UNL     1       2.065   9.132  17.797  0.00  0.00    +0.000 A 
ATOM      9  N   UNL     1       2.860   8.065  17.667  0.00  0.00    +0.000 NA
ATOM     10  C   UNL     1       2.974   7.252  18.723  0.00  0.00    +0.000 A 
ATOM     11  N   UNL     1       3.785   6.152  18.622  0.00  0.00    +0.000 N 
ATOM     12  N   UNL     1       2.318   7.435  19.883  0.00  0.00    +0.000 NA
ATOM     13  C   UNL     1       1.452   8.476  19.960  0.00  0.00    +0.000 A 
ATOM     14  C   UNL     1       0.573   8.595  21.205  0.00  0.00    +0.000 C 
ATOM     15  H   UNL     1      -2.137  11.436  21.569  0.00  0.00    +0.000 HD
ATOM     16  H   UNL     1       4.233   5.881  19.485  0.00  0.00    +0.000 HD
ENDROOT
BRANCH  11  17
ATOM     17  C   UNL     1       4.196   5.616  17.335  0.00  0.00    +0.000 C 
ATOM     18  C   UNL     1       4.407   4.104  17.477  0.00  0.00    +0.000 C 
ATOM     19  C   UNL     1       4.966   3.510  16.193  0.00  0.00    +0.000 C 
ATOM     20  O   UNL     1       6.163   4.181  15.807  0.00  0.00    +0.000 OA
ATOM     21  C   UNL     1       5.934   5.563  15.536  0.00  0.00    +0.000 C 
ATOM     22  C   UNL     1       5.457   6.287  16.789  0.00  0.00    +0.000 C 
ENDBRANCH  11  17
BRANCH   1  23
ATOM     23  C   UNL     1      -1.789  12.352  23.379  0.00  0.00    +0.000 C 
BRANCH  23  24
ATOM     24  C   UNL     1      -1.202  13.751  23.166  0.00  0.00    +0.000 A 
ATOM     25  C   UNL     1      -1.323  14.726  24.173  0.00  0.00    +0.000 A 
ATOM     26  C   UNL     1      -0.757  16.002  24.018  0.00  0.00    +0.000 A 
ATOM     27  C   UNL     1      -0.059  16.318  22.852  0.00  0.00    +0.000 A 
ATOM     28 CL   UNL     1       0.645  17.880  22.678  0.00  0.00    +0.000 Cl
ATOM     29  C   UNL     1       0.068  15.366  21.850  0.00  0.00    +0.000 A 
ATOM     30  F   UNL     1       0.741  15.641  20.721  0.00  0.00    +0.000 F 
ATOM     31  C   UNL     1      -0.489  14.098  21.997  0.00  0.00    +0.000 A 
ENDBRANCH  23  24
BRANCH  23  35
ATOM     32  C   UNL     1      -6.606  13.554  22.442  0.00  0.00    +0.000 C 
ATOM     33  N   UNL     1      -5.388  13.053  23.033  0.00  0.00    +0.000 N 
ATOM     34  C   UNL     1      -4.156  12.991  22.449  0.00  0.00    +0.000 A 
ATOM     35  C   UNL     1      -3.276  12.550  23.428  0.00  0.00    +0.000 A 
ATOM     36  C   UNL     1      -4.118  12.324  24.544  0.00  0.00    +0.000 A 
ATOM     37  N   UNL     1      -5.394  12.636  24.308  0.00  0.00    +0.000 NA
ENDBRANCH  23  35
ENDBRANCH   1  23
TORSDOF 4
ENDMDL
MODEL 2
REMARK VINA RESULT:      -8.5      0.887      1.352
REMARK  Name = 
REMARK  5 active torsions:
REMARK  status: ('A' for Active; 'I' for Inactive)
REMARK    1  A    between atoms: C_1  and  N_2
REMARK    2  A    between atoms: C_4  and  C_5
REMARK    3  A    between atoms: C_5  and  N_6
REMARK    4  A    between atoms: C_5  and  C_26
REMARK    5  A    between atoms: N_16  and  C_17
REMARK                            x       y       z     vdW  Elec       q    Type
REMARK                         _______ _______ _______ _____ _____    ______ ____
ROOT
ATOM      1  N   UNL     1      -1.491  11.563  22.250  0.00  0.00    +0.000 N 
ATOM      2  C   UNL     1      -0.679  10.470  22.385  0.00  0.00    +0.000 C 
ATOM      3  O   UNL     1      -0.216  10.128  23.472  0.00  0.00    +0.000 OA
ATOM      4  N   UNL     1      -0.381   9.822  21.197  0.00  0.00    +0.000 N 
ATOM      5  C   UNL     1      -0.858  10.224  19.871  0.00  0.00    +0.000 C 
ATOM      6  C   UNL     1       0.329  10.575  18.988  0.00  0.00    +0.000 C 
ATOM      7  C   UNL     1       1.261   9.413  18.921  0.00  0.00    +0.000 A 
ATOM      8  C   UNL     1       2.030   9.169  17.811  0.00  0.00    +0.000 A 
ATOM      9  N   UNL     1       2.830   8.104  17.693  0.00  0.00    +0.000 NA
ATOM     10  C   UNL     1       2.943   7.300  18.756  0.00  0.00    +0.000 A 
ATOM     11  N   UNL     1       3.759   6.203  18.668  0.00  0.00    +0.000 N 
ATOM     12  N   UNL     1       2.281   7.491  19.912  0.00  0.00    +0.000 NA
ATOM     13  C   UNL     1       1.411   8.528  19.977  0.00  0.00    +0.000 A 
ATOM     14  C   UNL     1       0.526   8.655  21.217  0.00  0.00    +0.000 C 
ATOM     15  H   UNL     1      -2.197  11.488  21.546  0.00  0.00    +0.000 HD
ATOM     16  H   UNL     1       4.204   5.941  19.535  0.00  0.00    +0.000 HD
ENDROOT
BRANCH  11  17
ATOM     17  C   UNL     1       4.177   5.657  17.388  0.00  0.00    +0.000 C 
ATOM     18  C   UNL     1       4.306   4.135  17.521  0.00  0.00    +0.000 C 
ATOM     19  C   UNL     1       4.870   3.524  16.247  0.00  0.00    +0.000 C 
ATOM     20  O   UNL     1       6.110   4.137  15.899  0.00  0.00    +0.000 OA
ATOM     21  C   UNL     1       5.959   5.531  15.636  0.00  0.00    +0.000 C 
ATOM     22  C   UNL     1       5.485   6.268  16.882  0.00  0.00    +0.000 C 
ENDBRANCH  11  17
BRANCH   1  23
ATOM     23  C   UNL     1      -1.860  12.421  23.349  0.00  0.00    +0.000 C 
BRANCH  23  24
ATOM     24  C   UNL     1      -1.122  13.758  23.226  0.00  0.00    +0.000 A 
ATOM     25  C   UNL     1      -0.296  14.006  22.115  0.00  0.00    +0.000 A 
ATOM     26  C   UNL     1       0.357  15.238  21.958  0.00  0.00    +0.000 A 
ATOM     27  C   UNL     1       0.190  16.243  22.912  0.00  0.00    +0.000 A 
ATOM     28 CL   UNL     1       0.982  17.757  22.703  0.00  0.00    +0.000 Cl
ATOM     29  C   UNL     1      -0.622  16.012  24.015  0.00  0.00    +0.000 A 
ATOM     30  F   UNL     1      -0.807  16.963  24.944  0.00  0.00    +0.000 F 
ATOM     31  C   UNL     1      -1.275  14.792  24.176  0.00  0.00    +0.000 A 
ENDBRANCH  23  24
BRANCH  23  35
ATOM     32  C   UNL     1      -6.799  13.021  24.227  0.00  0.00    +0.000 C 
ATOM     33  N   UNL     1      -5.476  13.050  23.650  0.00  0.00    +0.000 N 
ATOM     34  C   UNL     1      -4.309  12.675  24.251  0.00  0.00    +0.000 A 
ATOM     35  C   UNL     1      -3.319  12.765  23.281  0.00  0.00    +0.000 A 
ATOM     36  C   UNL     1      -4.013  13.266  22.153  0.00  0.00    +0.000 A 
ATOM     37  N   UNL     1      -5.319  13.430  22.373  0.00  0.00    +0.000 NA
ENDBRANCH  23  35
ENDBRANCH   1  23
TORSDOF 4
ENDMDL
MODEL 3
REMARK VINA RESULT:      -8.0      2.479      3.016
REMARK  Name = 
REMARK  5 active torsions:
REMARK  status: ('A' for Active; 'I' for Inactive)
REMARK    1  A    between atoms: C_1  and  N_2
REMARK    2  A    between atoms: C_4  and  C_5
REMARK    3  A    between atoms: C_5  and  N_6
REMARK    4  A    between atoms: C_5  and  C_26
REMARK    5  A    between atoms: N_16  and  C_17
REMARK                            x       y       z     vdW  Elec       q    Type
REMARK                         _______ _______ _______ _____ _____    ______ ____
ROOT
ATOM      1  N   UNL     1      -0.990  12.948  20.801  0.00  0.00    +0.000 N 
ATOM      2  C   UNL     1      -0.556  11.817  21.438  0.00  0.00    +0.000 C 
ATOM      3  O   UNL     1      -0.332  11.792  22.646  0.00  0.00    +0.000 OA
ATOM      4  N   UNL     1      -0.339  10.733  20.603  0.00  0.00    +0.000 N 
ATOM      5  C   UNL     1      -0.533  10.729  19.152  0.00  0.00    +0.000 C 
ATOM      6  C   UNL     1       0.791  10.442  18.461  0.00  0.00    +0.000 C 
ATOM      7  C   UNL     1       1.340   9.147  18.957  0.00  0.00    +0.000 A 
ATOM      8  C   UNL     1       2.115   8.341  18.162  0.00  0.00    +0.000 A 
ATOM      9  N   UNL     1       2.573   7.148  18.553  0.00  0.00    +0.000 NA
ATOM     10  C   UNL     1       2.331   6.781  19.816  0.00  0.00    +0.000 A 
ATOM     11  N   UNL     1       2.792   5.565  20.248  0.00  0.00    +0.000 N 
ATOM     12  N   UNL     1       1.637   7.530  20.692  0.00  0.00    +0.000 NA
ATOM     13  C   UNL     1       1.110   8.696  20.247  0.00  0.00    +0.000 A 
ATOM     14  C   UNL     1       0.176   9.471  21.176  0.00  0.00    +0.000 C 
ATOM     15  H   UNL     1      -1.609  12.796  20.030  0.00  0.00    +0.000 HD
ATOM     16  H   UNL     1       3.046   5.536  21.225  0.00  0.00    +0.000 HD
ENDROOT
BRANCH  11  17
ATOM     17  C   UNL     1       3.163   4.510  19.320  0.00  0.00    +0.000 C 
ATOM     18  C   UNL     1       1.887   3.928  18.701  0.00  0.00    +0.000 C 
ATOM     19  C   UNL     1       2.207   2.729  17.821  0.00  0.00    +0.000 C 
ATOM     20  O   UNL     1       2.940   1.749  18.552  0.00  0.00    +0.000 OA
ATOM     21  C   UNL     1       4.195   2.252  19.006  0.00  0.00    +0.000 C 
ATOM     22  C   UNL     1       3.993   3.407  19.978  0.00  0.00    +0.000 C 
ENDBRANCH  11  17
BRANCH   1  23
ATOM     23  C   UNL     1      -1.203  14.207  21.472  0.00  0.00    +0.000 C 
BRANCH  23  24
ATOM     24  C   UNL     1      -1.151  15.348  20.451  0.00  0.00    +0.000 A 
ATOM     25  C   UNL     1      -0.265  15.275  19.360  0.00  0.00    +0.000 A 
ATOM     26  C   UNL     1      -0.228  16.287  18.388  0.00  0.00    +0.000 A 
ATOM     27  C   UNL     1      -1.079  17.387  18.494  0.00  0.00    +0.000 A 
ATOM     28 CL   UNL     1      -1.038  18.616  17.288  0.00  0.00    +0.000 Cl
ATOM     29  C   UNL     1      -1.958  17.473  19.565  0.00  0.00    +0.000 A 
ATOM     30  F   UNL     1      -2.794  18.516  19.688  0.00  0.00    +0.000 F 
ATOM     31  C   UNL     1      -2.002  16.471  20.533  0.00  0.00    +0.000 A 
ENDBRANCH  23  24
BRANCH  23  35
ATOM     32  C   UNL     1      -6.171  13.925  22.345  0.00  0.00    +0.000 C 
ATOM     33  N   UNL     1      -4.749  14.136  22.466  0.00  0.00    +0.000 N 
ATOM     34  C   UNL     1      -3.782  13.744  21.586  0.00  0.00    +0.000 A 
ATOM     35  C   UNL     1      -2.584  14.263  22.059  0.00  0.00    +0.000 A 
ATOM     36  C   UNL     1      -2.959  14.898  23.267  0.00  0.00    +0.000 A 
ATOM     37  N   UNL     1      -4.269  14.830  23.509  0.00  0.00    +0.000 NA
ENDBRANCH  23  35
ENDBRANCH   1  23
TORSDOF 4
ENDMDL
MODEL 4
REMARK VINA RESULT:      -8.0      2.811      3.489
REMARK  Name = 
REMARK  5 active torsions:
REMARK  status: ('A' for Active; 'I' for Inactive)
REMARK    1  A    between atoms: C_1  and  N_2
REMARK    2  A    between atoms: C_4  and  C_5
REMARK    3  A    between atoms: C_5  and  N_6
REMARK    4  A    between atoms: C_5  and  C_26
REMARK    5  A    between atoms: N_16  and  C_17
REMARK                            x       y       z     vdW  Elec       q    Type
REMARK                         _______ _______ _______ _____ _____    ______ ____
ROOT
ATOM      1  N   UNL     1      -0.314  13.182  20.257  0.00  0.00    +0.000 N 
ATOM      2  C   UNL     1      -0.038  12.044  20.965  0.00  0.00    +0.000 C 
ATOM      3  O   UNL     1       0.115  12.054  22.185  0.00  0.00    +0.000 OA
ATOM      4  N   UNL     1       0.109  10.904  20.191  0.00  0.00    +0.000 N 
ATOM      5  C   UNL     1      -0.004  10.851  18.732  0.00  0.00    +0.000 C 
ATOM      6  C   UNL     1       1.317  10.396  18.134  0.00  0.00    +0.000 C 
ATOM      7  C   UNL     1       1.698   9.077  18.716  0.00  0.00    +0.000 A 
ATOM      8  C   UNL     1       2.426   8.157  18.003  0.00  0.00    +0.000 A 
ATOM      9  N   UNL     1       2.733   6.943  18.471  0.00  0.00    +0.000 NA
ATOM     10  C   UNL     1       2.384   6.665  19.731  0.00  0.00    +0.000 A 
ATOM     11  N   UNL     1       2.689   5.430  20.241  0.00  0.00    +0.000 N 
ATOM     12  N   UNL     1       1.726   7.522  20.533  0.00  0.00    +0.000 NA
ATOM     13  C   UNL     1       1.351   8.714  20.008  0.00  0.00    +0.000 A 
ATOM     14  C   UNL     1       0.454   9.625  20.846  0.00  0.00    +0.000 C 
ATOM     15  H   UNL     1      -0.902  13.057  19.458  0.00  0.00    +0.000 HD
ATOM     16  H   UNL     1       2.884   5.421  21.231  0.00  0.00    +0.000 HD
ENDROOT
BRANCH  11  17
ATOM     17  C   UNL     1       2.996   4.299  19.382  0.00  0.00    +0.000 C 
ATOM     18  C   UNL     1       1.686   3.738  18.818  0.00  0.00    +0.000 C 
ATOM     19  C   UNL     1       1.937   2.469  18.017  0.00  0.00    +0.000 C 
ATOM     20  O   UNL     1       2.634   1.506  18.804  0.00  0.00    +0.000 OA
ATOM     21  C   UNL     1       3.918   1.978  19.209  0.00  0.00    +0.000 C 
ATOM     22  C   UNL     1       3.785   3.204  20.103  0.00  0.00    +0.000 C 
ENDBRANCH  11  17
BRANCH   1  23
ATOM     23  C   UNL     1      -0.429  14.487  20.860  0.00  0.00    +0.000 C 
BRANCH  23  24
ATOM     24  C   UNL     1      -0.107  15.564  19.820  0.00  0.00    +0.000 A 
ATOM     25  C   UNL     1       1.203  15.691  19.321  0.00  0.00    +0.000 A 
ATOM     26  C   UNL     1       1.514  16.641  18.336  0.00  0.00    +0.000 A 
ATOM     27  C   UNL     1       0.517  17.479  17.835  0.00  0.00    +0.000 A 
ATOM     28 CL   UNL     1       0.905  18.631  16.615  0.00  0.00    +0.000 Cl
ATOM     29  C   UNL     1      -0.780  17.365  18.317  0.00  0.00    +0.000 A 
ATOM     30  F   UNL     1      -1.761  18.151  17.848  0.00  0.00    +0.000 F 
ATOM     31  C   UNL     1      -1.097  16.422  19.293  0.00  0.00    +0.000 A 
ENDBRANCH  23  24
BRANCH  23  35
ATOM     32  C   UNL     1      -5.462  14.733  21.234  0.00  0.00    +0.000 C 
ATOM     33  N   UNL     1      -4.043  14.858  21.467  0.00  0.00    +0.000 N 
ATOM     34  C   UNL     1      -3.039  14.243  20.778  0.00  0.00    +0.000 A 
ATOM     35  C   UNL     1      -1.847  14.750  21.277  0.00  0.00    +0.000 A 
ATOM     36  C   UNL     1      -2.272  15.621  22.309  0.00  0.00    +0.000 A 
ATOM     37  N   UNL     1      -3.600  15.694  22.419  0.00  0.00    +0.000 NA
ENDBRANCH  23  35
ENDBRANCH   1  23
TORSDOF 4
ENDMDL
MODEL 5
REMARK VINA RESULT:      -8.0      2.112      2.437
REMARK  Name = 
REMARK  5 active torsions:
REMARK  status: ('A' for Active; 'I' for Inactive)
REMARK    1  A    between atoms: C_1  and  N_2
REMARK    2  A    between atoms: C_4  and  C_5
REMARK    3  A    between atoms: C_5  and  N_6
REMARK    4  A    between atoms: C_5  and  C_26
REMARK    5  A    between atoms: N_16  and  C_17
REMARK                            x       y       z     vdW  Elec       q    Type
REMARK                         _______ _______ _______ _____ _____    ______ ____
ROOT
ATOM      1  N   UNL     1      -1.129  12.615  21.421  0.00  0.00    +0.000 N 
ATOM      2  C   UNL     1      -0.677  11.442  21.961  0.00  0.00    +0.000 C 
ATOM      3  O   UNL     1      -0.467  11.314  23.166  0.00  0.00    +0.000 OA
ATOM      4  N   UNL     1      -0.425  10.440  21.037  0.00  0.00    +0.000 N 
ATOM      5  C   UNL     1      -0.601  10.562  19.588  0.00  0.00    +0.000 C 
ATOM      6  C   UNL     1       0.736  10.366  18.893  0.00  0.00    +0.000 C 
ATOM      7  C   UNL     1       1.310   9.045  19.280  0.00  0.00    +0.000 A 
ATOM      8  C   UNL     1       2.113   8.330  18.427  0.00  0.00    +0.000 A 
ATOM      9  N   UNL     1       2.593   7.117  18.717  0.00  0.00    +0.000 NA
ATOM     10  C   UNL     1       2.345   6.635  19.939  0.00  0.00    +0.000 A 
ATOM     11  N   UNL     1       2.829   5.395  20.268  0.00  0.00    +0.000 N 
ATOM     12  N   UNL     1       1.624   7.287  20.869  0.00  0.00    +0.000 NA
ATOM     13  C   UNL     1       1.075   8.476  20.521  0.00  0.00    +0.000 A 
ATOM     14  C   UNL     1       0.112   9.145  21.503  0.00  0.00    +0.000 C 
ATOM     15  H   UNL     1      -1.735  12.518  20.631  0.00  0.00    +0.000 HD
ATOM     16  H   UNL     1       3.071   5.285  21.242  0.00  0.00    +0.000 HD
ENDROOT
BRANCH  11  17
ATOM     17  C   UNL     1       3.235   4.435  19.256  0.00  0.00    +0.000 C 
ATOM     18  C   UNL     1       2.051   4.181  18.316  0.00  0.00    +0.000 C 
ATOM     19  C   UNL     1       2.378   3.083  17.315  0.00  0.00    +0.000 C 
ATOM     20  O   UNL     1       2.791   1.895  17.987  0.00  0.00    +0.000 OA
ATOM     21  C   UNL     1       3.978   2.100  18.750  0.00  0.00    +0.000 C 
ATOM     22  C   UNL     1       3.740   3.122  19.855  0.00  0.00    +0.000 C 
ENDBRANCH  11  17
BRANCH   1  23
ATOM     23  C   UNL     1      -1.380  13.804  22.198  0.00  0.00    +0.000 C 
BRANCH  23  24
ATOM     24  C   UNL     1      -0.860  15.030  21.441  0.00  0.00    +0.000 A 
ATOM     25  C   UNL     1      -0.178  16.047  22.134  0.00  0.00    +0.000 A 
ATOM     26  C   UNL     1       0.345  17.160  21.457  0.00  0.00    +0.000 A 
ATOM     27  C   UNL     1       0.194  17.270  20.074  0.00  0.00    +0.000 A 
ATOM     28 CL   UNL     1       0.853  18.630  19.249  0.00  0.00    +0.000 Cl
ATOM     29  C   UNL     1      -0.477  16.274  19.377  0.00  0.00    +0.000 A 
ATOM     30  F   UNL     1      -0.631  16.349  18.046  0.00  0.00    +0.000 F 
ATOM     31  C   UNL     1      -0.997  15.165  20.042  0.00  0.00    +0.000 A 
ENDBRANCH  23  24
BRANCH  23  35
ATOM     32  C   UNL     1      -5.983  15.291  23.654  0.00  0.00    +0.000 C 
ATOM     33  N   UNL     1      -4.875  14.678  22.964  0.00  0.00    +0.000 N 
ATOM     34  C   UNL     1      -3.548  14.934  23.148  0.00  0.00    +0.000 A 
ATOM     35  C   UNL     1      -2.856  14.030  22.352  0.00  0.00    +0.000 A 
ATOM     36  C   UNL     1      -3.888  13.322  21.692  0.00  0.00    +0.000 A 
ATOM     37  N   UNL     1      -5.110  13.707  22.068  0.00  0.00    +0.000 NA
ENDBRANCH  23  35
ENDBRANCH   1  23
TORSDOF 4
ENDMDL
MODEL 6
REMARK VINA RESULT:      -7.9      2.690      3.379
REMARK  Name = 
REMARK  5 active torsions:
REMARK  status: ('A' for Active; 'I' for Inactive)
REMARK    1  A    between atoms: C_1  and  N_2
REMARK    2  A    between atoms: C_4  and  C_5
REMARK    3  A    between atoms: C_5  and  N_6
REMARK    4  A    between atoms: C_5  and  C_26
REMARK    5  A    between atoms: N_16  and  C_17
REMARK                            x       y       z     vdW  Elec       q    Type
REMARK                         _______ _______ _______ _____ _____    ______ ____
ROOT
ATOM      1  N   UNL     1      -0.159  12.894  20.185  0.00  0.00    +0.000 N 
ATOM      2  C   UNL     1       0.152  11.761  20.886  0.00  0.00    +0.000 C 
ATOM      3  O   UNL     1       0.324  11.771  22.103  0.00  0.00    +0.000 OA
ATOM      4  N   UNL     1       0.310  10.626  20.107  0.00  0.00    +0.000 N 
ATOM      5  C   UNL     1       0.175  10.574  18.650  0.00  0.00    +0.000 C 
ATOM      6  C   UNL     1       1.496  10.147  18.030  0.00  0.00    +0.000 C 
ATOM      7  C   UNL     1       1.914   8.836  18.602  0.00  0.00    +0.000 A 
ATOM      8  C   UNL     1       2.650   7.933  17.876  0.00  0.00    +0.000 A 
ATOM      9  N   UNL     1       2.989   6.725  18.336  0.00  0.00    +0.000 NA
ATOM     10  C   UNL     1       2.667   6.437  19.601  0.00  0.00    +0.000 A 
ATOM     11  N   UNL     1       3.006   5.207  20.103  0.00  0.00    +0.000 N 
ATOM     12  N   UNL     1       2.004   7.278  20.415  0.00  0.00    +0.000 NA
ATOM     13  C   UNL     1       1.595   8.463  19.899  0.00  0.00    +0.000 A 
ATOM     14  C   UNL     1       0.693   9.353  20.754  0.00  0.00    +0.000 C 
ATOM     15  H   UNL     1      -0.758  12.759  19.395  0.00  0.00    +0.000 HD
ATOM     16  H   UNL     1       3.217   5.201  21.090  0.00  0.00    +0.000 HD
ENDROOT
BRANCH  11  17
ATOM     17  C   UNL     1       3.323   4.085  19.237  0.00  0.00    +0.000 C 
ATOM     18  C   UNL     1       2.029   3.583  18.586  0.00  0.00    +0.000 C 
ATOM     19  C   UNL     1       2.282   2.324  17.771  0.00  0.00    +0.000 C 
ATOM     20  O   UNL     1       2.900   1.320  18.573  0.00  0.00    +0.000 OA
ATOM     21  C   UNL     1       4.173   1.737  19.062  0.00  0.00    +0.000 C 
ATOM     22  C   UNL     1       4.031   2.948  19.976  0.00  0.00    +0.000 C 
ENDBRANCH  11  17
BRANCH   1  23
ATOM     23  C   UNL     1      -0.293  14.195  20.793  0.00  0.00    +0.000 C 
BRANCH  23  24
ATOM     24  C   UNL     1       0.016  15.280  19.757  0.00  0.00    +0.000 A 
ATOM     25  C   UNL     1      -0.982  16.199  19.382  0.00  0.00    +0.000 A 
ATOM     26  C   UNL     1      -0.713  17.228  18.465  0.00  0.00    +0.000 A 
ATOM     27  C   UNL     1       0.562  17.353  17.913  0.00  0.00    +0.000 A 
ATOM     28 CL   UNL     1       0.888  18.628  16.802  0.00  0.00    +0.000 Cl
ATOM     29  C   UNL     1       1.557  16.454  18.273  0.00  0.00    +0.000 A 
ATOM     30  F   UNL     1       2.794  16.555  17.763  0.00  0.00    +0.000 F 
ATOM     31  C   UNL     1       1.297  15.431  19.183  0.00  0.00    +0.000 A 
ENDBRANCH  23  24
BRANCH  23  35
ATOM     32  C   UNL     1      -4.539  15.660  23.105  0.00  0.00    +0.000 C 
ATOM     33  N   UNL     1      -3.582  15.077  22.197  0.00  0.00    +0.000 N 
ATOM     34  C   UNL     1      -2.235  15.295  22.171  0.00  0.00    +0.000 A 
ATOM     35  C   UNL     1      -1.714  14.438  21.210  0.00  0.00    +0.000 A 
ATOM     36  C   UNL     1      -2.864  13.800  20.686  0.00  0.00    +0.000 A 
ATOM     37  N   UNL     1      -3.993  14.179  21.288  0.00  0.00    +0.000 NA
ENDBRANCH  23  35
ENDBRANCH   1  23
TORSDOF 4
ENDMDL
MODEL 7
REMARK VINA RESULT:      -7.7      3.927      4.791
REMARK  Name = 
REMARK  5 active torsions:
REMARK  status: ('A' for Active; 'I' for Inactive)
REMARK    1  A    between atoms: C_1  and  N_2
REMARK    2  A    between atoms: C_4  and  C_5
REMARK    3  A    between atoms: C_5  and  N_6
REMARK    4  A    between atoms: C_5  and  C_26
REMARK    5  A    between atoms: N_16  and  C_17
REMARK                            x       y       z     vdW  Elec       q    Type
REMARK                         _______ _______ _______ _____ _____    ______ ____
ROOT
ATOM      1  N   UNL     1       0.558  14.037  19.877  0.00  0.00    +0.000 N 
ATOM      2  C   UNL     1       0.675  12.929  20.671  0.00  0.00    +0.000 C 
ATOM      3  O   UNL     1       0.908  13.009  21.876  0.00  0.00    +0.000 OA
ATOM      4  N   UNL     1       0.567  11.722  19.999  0.00  0.00    +0.000 N 
ATOM      5  C   UNL     1       0.351  11.573  18.558  0.00  0.00    +0.000 C 
ATOM      6  C   UNL     1       1.529  10.838  17.938  0.00  0.00    +0.000 C 
ATOM      7  C   UNL     1       1.709   9.524  18.618  0.00  0.00    +0.000 A 
ATOM      8  C   UNL     1       2.215   8.433  17.957  0.00  0.00    +0.000 A 
ATOM      9  N   UNL     1       2.333   7.225  18.517  0.00  0.00    +0.000 NA
ATOM     10  C   UNL     1       2.025   7.117  19.814  0.00  0.00    +0.000 A 
ATOM     11  N   UNL     1       2.140   5.893  20.418  0.00  0.00    +0.000 N 
ATOM     12  N   UNL     1       1.583   8.142  20.566  0.00  0.00    +0.000 NA
ATOM     13  C   UNL     1       1.389   9.336  19.954  0.00  0.00    +0.000 A 
ATOM     14  C   UNL     1       0.725  10.459  20.750  0.00  0.00    +0.000 C 
ATOM     15  H   UNL     1      -0.095  13.956  19.123  0.00  0.00    +0.000 HD
ATOM     16  H   UNL     1       2.396   5.929  21.394  0.00  0.00    +0.000 HD
ENDROOT
BRANCH  11  17
ATOM     17  C   UNL     1       2.186   4.659  19.652  0.00  0.00    +0.000 C 
ATOM     18  C   UNL     1       0.902   3.865  19.920  0.00  0.00    +0.000 C 
ATOM     19  C   UNL     1       0.955   2.502  19.247  0.00  0.00    +0.000 C 
ATOM     20  O   UNL     1       2.120   1.785  19.651  0.00  0.00    +0.000 OA
ATOM     21  C   UNL     1       3.318   2.460  19.272  0.00  0.00    +0.000 C 
ATOM     22  C   UNL     1       3.420   3.812  19.967  0.00  0.00    +0.000 C 
ENDBRANCH  11  17
BRANCH   1  23
ATOM     23  C   UNL     1       0.714  15.385  20.364  0.00  0.00    +0.000 C 
BRANCH  23  24
ATOM     24  C   UNL     1       2.110  15.902  20.002  0.00  0.00    +0.000 A 
ATOM     25  C   UNL     1       2.658  16.995  20.700  0.00  0.00    +0.000 A 
ATOM     26  C   UNL     1       3.951  17.461  20.415  0.00  0.00    +0.000 A 
ATOM     27  C   UNL     1       4.717  16.837  19.429  0.00  0.00    +0.000 A 
ATOM     28 CL   UNL     1       6.308  17.405  19.099  0.00  0.00    +0.000 Cl
ATOM     29  C   UNL     1       4.189  15.758  18.733  0.00  0.00    +0.000 A 
ATOM     30  F   UNL     1       4.905  15.134  17.784  0.00  0.00    +0.000 F 
ATOM     31  C   UNL     1       2.906  15.289  19.011  0.00  0.00    +0.000 A 
ENDBRANCH  23  24
BRANCH  23  35
ATOM     32  C   UNL     1      -3.197  18.296  19.039  0.00  0.00    +0.000 C 
ATOM     33  N   UNL     1      -1.935  17.597  19.077  0.00  0.00    +0.000 N 
ATOM     34  C   UNL     1      -1.410  16.905  20.130  0.00  0.00    +0.000 A 
ATOM     35  C   UNL     1      -0.243  16.310  19.670  0.00  0.00    +0.000 A 
ATOM     36  C   UNL     1      -0.146  16.773  18.336  0.00  0.00    +0.000 A 
ATOM     37  N   UNL     1      -1.174  17.544  17.974  0.00  0.00    +0.000 NA
ENDBRANCH  23  35
ENDBRANCH   1  23
TORSDOF 4
ENDMDL
MODEL 8
REMARK VINA RESULT:      -7.7      2.223      2.688
REMARK  Name = 
REMARK  5 active torsions:
REMARK  status: ('A' for Active; 'I' for Inactive)
REMARK    1  A    between atoms: C_1  and  N_2
REMARK    2  A    between atoms: C_4  and  C_5
REMARK    3  A    between atoms: C_5  and  N_6
REMARK    4  A    between atoms: C_5  and  C_26
REMARK    5  A    between atoms: N_16  and  C_17
REMARK                            x       y       z     vdW  Elec       q    Type
REMARK                         _______ _______ _______ _____ _____    ______ ____
ROOT
ATOM      1  N   UNL     1      -0.970  12.561  21.278  0.00  0.00    +0.000 N 
ATOM      2  C   UNL     1      -0.583  11.380  21.850  0.00  0.00    +0.000 C 
ATOM      3  O   UNL     1      -0.423  11.261  23.063  0.00  0.00    +0.000 OA
ATOM      4  N   UNL     1      -0.333  10.357  20.949  0.00  0.00    +0.000 N 
ATOM      5  C   UNL     1      -0.450  10.464  19.493  0.00  0.00    +0.000 C 
ATOM      6  C   UNL     1       0.905  10.210  18.852  0.00  0.00    +0.000 C 
ATOM      7  C   UNL     1       1.414   8.875  19.278  0.00  0.00    +0.000 A 
ATOM      8  C   UNL     1       2.222   8.119  18.466  0.00  0.00    +0.000 A 
ATOM      9  N   UNL     1       2.646   6.893  18.789  0.00  0.00    +0.000 NA
ATOM     10  C   UNL     1       2.334   6.437  20.007  0.00  0.00    +0.000 A 
ATOM     11  N   UNL     1       2.759   5.186  20.370  0.00  0.00    +0.000 N 
ATOM     12  N   UNL     1       1.603   7.128  20.901  0.00  0.00    +0.000 NA
ATOM     13  C   UNL     1       1.112   8.332  20.517  0.00  0.00    +0.000 A 
ATOM     14  C   UNL     1       0.138   9.049  21.452  0.00  0.00    +0.000 C 
ATOM     15  H   UNL     1      -1.549  12.474  20.467  0.00  0.00    +0.000 HD
ATOM     16  H   UNL     1       2.961   5.081  21.354  0.00  0.00    +0.000 HD
ENDROOT
BRANCH  11  17
ATOM     17  C   UNL     1       3.168   4.198  19.387  0.00  0.00    +0.000 C 
ATOM     18  C   UNL     1       1.915   3.632  18.708  0.00  0.00    +0.000 C 
ATOM     19  C   UNL     1       2.275   2.496  17.762  0.00  0.00    +0.000 C 
ATOM     20  O   UNL     1       3.014   1.486  18.446  0.00  0.00    +0.000 OA
ATOM     21  C   UNL     1       4.250   1.983  18.954  0.00  0.00    +0.000 C 
ATOM     22  C   UNL     1       4.008   3.072  19.992  0.00  0.00    +0.000 C 
ENDBRANCH  11  17
BRANCH   1  23
ATOM     23  C   UNL     1      -1.206  13.769  22.030  0.00  0.00    +0.000 C 
BRANCH  23  24
ATOM     24  C   UNL     1      -0.691  14.974  21.237  0.00  0.00    +0.000 A 
ATOM     25  C   UNL     1      -0.710  14.951  19.830  0.00  0.00    +0.000 A 
ATOM     26  C   UNL     1      -0.283  16.059  19.081  0.00  0.00    +0.000 A 
ATOM     27  C   UNL     1       0.168  17.208  19.731  0.00  0.00    +0.000 A 
ATOM     28 CL   UNL     1       0.674  18.568  18.804  0.00  0.00    +0.000 Cl
ATOM     29  C   UNL     1       0.192  17.246  21.119  0.00  0.00    +0.000 A 
ATOM     30  F   UNL     1       0.613  18.341  21.770  0.00  0.00    +0.000 F 
ATOM     31  C   UNL     1      -0.232  16.150  21.869  0.00  0.00    +0.000 A 
ENDBRANCH  23  24
BRANCH  23  35
ATOM     32  C   UNL     1      -5.812  15.001  23.701  0.00  0.00    +0.000 C 
ATOM     33  N   UNL     1      -4.699  14.548  22.903  0.00  0.00    +0.000 N 
ATOM     34  C   UNL     1      -3.371  14.694  23.185  0.00  0.00    +0.000 A 
ATOM     35  C   UNL     1      -2.679  14.005  22.198  0.00  0.00    +0.000 A 
ATOM     36  C   UNL     1      -3.708  13.538  21.345  0.00  0.00    +0.000 A 
ATOM     37  N   UNL     1      -4.930  13.858  21.776  0.00  0.00    +0.000 NA
ENDBRANCH  23  35
ENDBRANCH   1  23
TORSDOF 4
ENDMDL
MODEL 9
REMARK VINA RESULT:      -7.7      3.049      4.394
REMARK  Name = 
REMARK  5 active torsions:
REMARK  status: ('A' for Active; 'I' for Inactive)
REMARK    1  A    between atoms: C_1  and  N_2
REMARK    2  A    between atoms: C_4  and  C_5
REMARK    3  A    between atoms: C_5  and  N_6
REMARK    4  A    between atoms: C_5  and  C_26
REMARK    5  A    between atoms: N_16  and  C_17
REMARK                            x       y       z     vdW  Elec       q    Type
REMARK                         _______ _______ _______ _____ _____    ______ ____
ROOT
ATOM      1  N   UNL     1      -1.446  13.380  20.863  0.00  0.00    +0.000 N 
ATOM      2  C   UNL     1      -0.803  12.853  19.776  0.00  0.00    +0.000 C 
ATOM      3  O   UNL     1      -1.096  13.171  18.625  0.00  0.00    +0.000 OA
ATOM      4  N   UNL     1       0.156  11.900  20.078  0.00  0.00    +0.000 N 
ATOM      5  C   UNL     1       0.500  11.444  21.427  0.00  0.00    +0.000 C 
ATOM      6  C   UNL     1       0.209   9.957  21.552  0.00  0.00    +0.000 C 
ATOM      7  C   UNL     1       0.958   9.213  20.500  0.00  0.00    +0.000 A 
ATOM      8  C   UNL     1       1.398   7.928  20.699  0.00  0.00    +0.000 A 
ATOM      9  N   UNL     1       2.124   7.254  19.802  0.00  0.00    +0.000 NA
ATOM     10  C   UNL     1       2.342   7.843  18.621  0.00  0.00    +0.000 A 
ATOM     11  N   UNL     1       3.079   7.175  17.679  0.00  0.00    +0.000 N 
ATOM     12  N   UNL     1       1.898   9.073  18.305  0.00  0.00    +0.000 NA
ATOM     13  C   UNL     1       1.239   9.771  19.262  0.00  0.00    +0.000 A 
ATOM     14  C   UNL     1       0.882  11.230  18.979  0.00  0.00    +0.000 C 
ATOM     15  H   UNL     1      -0.880  13.501  21.678  0.00  0.00    +0.000 HD
ATOM     16  H   UNL     1       2.814   7.369  16.724  0.00  0.00    +0.000 HD
ENDROOT
BRANCH  11  17
ATOM     17  C   UNL     1       3.953   6.068  18.030  0.00  0.00    +0.000 C 
ATOM     18  C   UNL     1       5.361   6.366  17.502  0.00  0.00    +0.000 C 
ATOM     19  C   UNL     1       6.288   5.181  17.724  0.00  0.00    +0.000 C 
ATOM     20  O   UNL     1       5.741   3.998  17.145  0.00  0.00    +0.000 OA
ATOM     21  C   UNL     1       4.494   3.642  17.740  0.00  0.00    +0.000 C 
ATOM     22  C   UNL     1       3.451   4.725  17.497  0.00  0.00    +0.000 C 
ENDBRANCH  11  17
BRANCH   1  23
ATOM     23  C   UNL     1      -2.528  14.329  20.765  0.00  0.00    +0.000 C 
BRANCH  23  24
ATOM     24  C   UNL     1      -3.715  13.840  21.600  0.00  0.00    +0.000 A 
ATOM     25  C   UNL     1      -5.019  13.905  21.075  0.00  0.00    +0.000 A 
ATOM     26  C   UNL     1      -6.119  13.425  21.804  0.00  0.00    +0.000 A 
ATOM     27  C   UNL     1      -5.928  12.871  23.070  0.00  0.00    +0.000 A 
ATOM     28 CL   UNL     1      -7.281  12.270  23.950  0.00  0.00    +0.000 Cl
ATOM     29  C   UNL     1      -4.647  12.801  23.602  0.00  0.00    +0.000 A 
ATOM     30  F   UNL     1      -4.433  12.266  24.814  0.00  0.00    +0.000 F 
ATOM     31  C   UNL     1      -3.551  13.273  22.883  0.00  0.00    +0.000 A 
ENDBRANCH  23  24
BRANCH  23  35
ATOM     32  C   UNL     1      -0.338  18.060  23.374  0.00  0.00    +0.000 C 
ATOM     33  N   UNL     1      -1.181  17.290  22.491  0.00  0.00    +0.000 N 
ATOM     34  C   UNL     1      -1.026  15.980  22.141  0.00  0.00    +0.000 A 
ATOM     35  C   UNL     1      -2.131  15.644  21.371  0.00  0.00    +0.000 A 
ATOM     36  C   UNL     1      -2.848  16.861  21.281  0.00  0.00    +0.000 A 
ATOM     37  N   UNL     1      -2.278  17.855  21.965  0.00  0.00    +0.000 NA
ENDBRANCH  23  35
ENDBRANCH   1  23
TORSDOF 4
ENDMDL
