MODEL 1
REMARK VINA RESULT:      -8.1      0.000      0.000
REMARK  Name = 
REMARK  4 active torsions:
REMARK  status: ('A' for Active; 'I' for Inactive)
REMARK    1  A    between atoms: N_1  and  C_2
REMARK    2  A    between atoms: C_9  and  C_10
REMARK    3  A    between atoms: C_13  and  O_14
REMARK    4  A    between atoms: O_14  and  C_15
REMARK                            x       y       z     vdW  Elec       q    Type
REMARK                         _______ _______ _______ _____ _____    ______ ____
ROOT
ATOM      1  C   UNL     1       3.213   2.759  19.738  0.00  0.00    +0.000 A 
ATOM      2  N   UNL     1       2.398   1.949  20.447  0.00  0.00    +0.000 NA
ATOM      3  C   UNL     1       1.478   2.509  21.261  0.00  0.00    +0.000 A 
ATOM      4  N   UNL     1       1.265   3.817  21.488  0.00  0.00    +0.000 NA
ATOM      5  C   UNL     1       2.089   4.574  20.752  0.00  0.00    +0.000 A 
ATOM      6  N   UNL     1       2.141   5.935  20.745  0.00  0.00    +0.000 N 
ATOM      7  N   UNL     1       3.060   6.444  19.905  0.00  0.00    +0.000 NA
ATOM      8  C   UNL     1       3.605   5.360  19.318  0.00  0.00    +0.000 A 
ATOM      9  C   UNL     1       3.057   4.149  19.858  0.00  0.00    +0.000 A 
ATOM     10  H   UNL     1       1.571   6.565  21.296  0.00  0.00    +0.000 HD
ENDROOT
BRANCH   8  11
ATOM     11  C   UNL     1       4.628   5.518  18.279  0.00  0.00    +0.000 A 
ATOM     12  C   UNL     1       5.900   4.947  18.424  0.00  0.00    +0.000 A 
ATOM     13  C   UNL     1       6.837   5.022  17.385  0.00  0.00    +0.000 A 
ATOM     14  C   UNL     1       6.505   5.657  16.188  0.00  0.00    +0.000 A 
ATOM     15  C   UNL     1       5.281   6.318  16.076  0.00  0.00    +0.000 A 
ATOM     16  C   UNL     1       4.354   6.250  17.117  0.00  0.00    +0.000 A 
BRANCH  14  17
ATOM     17  O   UNL     1       7.454   5.644  15.192  0.00  0.00    +0.000 OA
BRANCH  17  18
ATOM     18  C   UNL     1       7.184   4.980  14.014  0.00  0.00    +0.000 A 
ATOM     19  C   UNL     1       7.889   5.415  12.890  0.00  0.00    +0.000 A 
ATOM     20  C   UNL     1       7.690   4.797  11.654  0.00  0.00    +0.000 A 
ATOM     21  C   UNL     1       6.786   3.740  11.540  0.00  0.00    +0.000 A 
ATOM     22  C   UNL     1       6.101   3.285  12.665  0.00  0.00    +0.000 A 
ATOM     23  C   UNL     1       6.316   3.888  13.906  0.00  0.00    +0.000 A 
ENDBRANCH  17  18
ENDBRANCH  14  17
ENDBRANCH   8  11
BRANCH   1  24
ATOM     24  N   UNL     1       4.164   2.118  18.954  0.00  0.00    +0.000 N 
ATOM     25  H   UNL     1       5.021   2.661  18.929  0.00  0.00    +0.000 HD
ATOM     26  H   UNL     1       3.825   1.796  18.057  0.00  0.00    +0.000 HD
ENDBRANCH   1  24
TORSDOF 4
ENDMDL
MODEL 2
REMARK VINA RESULT:      -7.8      1.434      1.863
REMARK  Name = 
REMARK  4 active torsions:
REMARK  status: ('A' for Active; 'I' for Inactive)
REMARK    1  A    between atoms: N_1  and  C_2
REMARK    2  A    between atoms: C_9  and  C_10
REMARK    3  A    between atoms: C_13  and  O_14
REMARK    4  A    between atoms: O_14  and  C_15
REMARK                            x       y       z     vdW  Elec       q    Type
REMARK                         _______ _______ _______ _____ _____    ______ ____
ROOT
ATOM      1  C   UNL     1       2.438   2.693  18.700  0.00  0.00    +0.000 A 
ATOM      2  N   UNL     1       1.479   2.151  19.479  0.00  0.00    +0.000 NA
ATOM      3  C   UNL     1       1.054   2.843  20.558  0.00  0.00    +0.000 A 
ATOM      4  N   UNL     1       1.487   4.039  20.993  0.00  0.00    +0.000 NA
ATOM      5  C   UNL     1       2.426   4.537  20.179  0.00  0.00    +0.000 A 
ATOM      6  N   UNL     1       3.076   5.725  20.330  0.00  0.00    +0.000 N 
ATOM      7  N   UNL     1       3.971   5.987  19.361  0.00  0.00    +0.000 NA
ATOM      8  C   UNL     1       3.870   4.933  18.527  0.00  0.00    +0.000 A 
ATOM      9  C   UNL     1       2.939   3.963  19.028  0.00  0.00    +0.000 A 
ATOM     10  H   UNL     1       2.947   6.394  21.078  0.00  0.00    +0.000 HD
ENDROOT
BRANCH   8  11
ATOM     11  C   UNL     1       4.667   4.886  17.296  0.00  0.00    +0.000 A 
ATOM     12  C   UNL     1       5.354   3.721  16.924  0.00  0.00    +0.000 A 
ATOM     13  C   UNL     1       6.033   3.655  15.700  0.00  0.00    +0.000 A 
ATOM     14  C   UNL     1       6.020   4.748  14.833  0.00  0.00    +0.000 A 
ATOM     15  C   UNL     1       5.429   5.944  15.242  0.00  0.00    +0.000 A 
ATOM     16  C   UNL     1       4.762   6.010  16.466  0.00  0.00    +0.000 A 
BRANCH  14  17
ATOM     17  O   UNL     1       6.661   4.592  13.626  0.00  0.00    +0.000 OA
BRANCH  17  18
ATOM     18  C   UNL     1       6.164   3.686  12.713  0.00  0.00    +0.000 A 
ATOM     19  C   UNL     1       4.834   3.869  12.330  0.00  0.00    +0.000 A 
ATOM     20  C   UNL     1       4.246   3.007  11.401  0.00  0.00    +0.000 A 
ATOM     21  C   UNL     1       4.988   1.962  10.852  0.00  0.00    +0.000 A 
ATOM     22  C   UNL     1       6.324   1.792  11.211  0.00  0.00    +0.000 A 
ATOM     23  C   UNL     1       6.920   2.667  12.123  0.00  0.00    +0.000 A 
ENDBRANCH  17  18
ENDBRANCH  14  17
ENDBRANCH   8  11
BRANCH   1  24
ATOM     24  N   UNL     1       2.859   1.911  17.632  0.00  0.00    +0.000 N 
ATOM     25  H   UNL     1       3.760   1.492  17.838  0.00  0.00    +0.000 HD
ATOM     26  H   UNL     1       2.781   2.355  16.726  0.00  0.00    +0.000 HD
ENDBRANCH   1  24
TORSDOF 4
ENDMDL
MODEL 3
REMARK VINA RESULT:      -7.8      0.794      1.280
REMARK  Name = 
REMARK  4 active torsions:
REMARK  status: ('A' for Active; 'I' for Inactive)
REMARK    1  A    between atoms: N_1  and  C_2
REMARK    2  A    between atoms: C_9  and  C_10
REMARK    3  A    between atoms: C_13  and  O_14
REMARK    4  A    between atoms: O_14  and  C_15
REMARK                            x       y       z     vdW  Elec       q    Type
REMARK                         _______ _______ _______ _____ _____    ______ ____
ROOT
ATOM      1  C   UNL     1       2.326   2.836  18.566  0.00  0.00    +0.000 A 
ATOM      2  N   UNL     1       1.264   2.120  18.992  0.00  0.00    +0.000 NA
ATOM      3  C   UNL     1       0.520   2.607  20.008  0.00  0.00    +0.000 A 
ATOM      4  N   UNL     1       0.710   3.746  20.697  0.00  0.00    +0.000 NA
ATOM      5  C   UNL     1       1.766   4.423  20.226  0.00  0.00    +0.000 A 
ATOM      6  N   UNL     1       2.236   5.611  20.698  0.00  0.00    +0.000 N 
ATOM      7  N   UNL     1       3.310   6.076  20.037  0.00  0.00    +0.000 NA
ATOM      8  C   UNL     1       3.524   5.161  19.071  0.00  0.00    +0.000 A 
ATOM      9  C   UNL     1       2.601   4.069  19.180  0.00  0.00    +0.000 A 
ATOM     10  H   UNL     1       1.861   6.146  21.471  0.00  0.00    +0.000 HD
ENDROOT
BRANCH   8  11
ATOM     11  C   UNL     1       4.599   5.357  18.092  0.00  0.00    +0.000 A 
ATOM     12  C   UNL     1       5.760   4.570  18.126  0.00  0.00    +0.000 A 
ATOM     13  C   UNL     1       6.737   4.699  17.131  0.00  0.00    +0.000 A 
ATOM     14  C   UNL     1       6.556   5.605  16.086  0.00  0.00    +0.000 A 
ATOM     15  C   UNL     1       5.456   6.464  16.102  0.00  0.00    +0.000 A 
ATOM     16  C   UNL     1       4.490   6.340  17.101  0.00  0.00    +0.000 A 
BRANCH  14  17
ATOM     17  O   UNL     1       7.530   5.638  15.115  0.00  0.00    +0.000 OA
BRANCH  17  18
ATOM     18  C   UNL     1       7.304   4.999  13.914  0.00  0.00    +0.000 A 
ATOM     19  C   UNL     1       6.336   3.993  13.927  0.00  0.00    +0.000 A 
ATOM     20  C   UNL     1       6.030   3.298  12.756  0.00  0.00    +0.000 A 
ATOM     21  C   UNL     1       6.691   3.609  11.567  0.00  0.00    +0.000 A 
ATOM     22  C   UNL     1       7.638   4.630  11.543  0.00  0.00    +0.000 A 
ATOM     23  C   UNL     1       7.929   5.342  12.710  0.00  0.00    +0.000 A 
ENDBRANCH  17  18
ENDBRANCH  14  17
ENDBRANCH   8  11
BRANCH   1  24
ATOM     24  N   UNL     1       3.072   2.257  17.547  0.00  0.00    +0.000 N 
ATOM     25  H   UNL     1       3.874   1.770  17.934  0.00  0.00    +0.000 HD
ATOM     26  H   UNL     1       3.269   2.871  16.767  0.00  0.00    +0.000 HD
ENDBRANCH   1  24
TORSDOF 4
ENDMDL
MODEL 4
REMARK VINA RESULT:      -7.8      4.938      7.847
REMARK  Name = 
REMARK  4 active torsions:
REMARK  status: ('A' for Active; 'I' for Inactive)
REMARK    1  A    between atoms: N_1  and  C_2
REMARK    2  A    between atoms: C_9  and  C_10
REMARK    3  A    between atoms: C_13  and  O_14
REMARK    4  A    between atoms: O_14  and  C_15
REMARK                            x       y       z     vdW  Elec       q    Type
REMARK                         _______ _______ _______ _____ _____    ______ ____
ROOT
ATOM      1  C   UNL     1       6.067   6.299  16.684  0.00  0.00    +0.000 A 
ATOM      2  N   UNL     1       7.086   5.786  15.963  0.00  0.00    +0.000 NA
ATOM      3  C   UNL     1       6.990   4.514  15.521  0.00  0.00    +0.000 A 
ATOM      4  N   UNL     1       5.986   3.643  15.726  0.00  0.00    +0.000 NA
ATOM      5  C   UNL     1       4.998   4.206  16.435  0.00  0.00    +0.000 A 
ATOM      6  N   UNL     1       3.839   3.602  16.820  0.00  0.00    +0.000 N 
ATOM      7  N   UNL     1       3.013   4.400  17.519  0.00  0.00    +0.000 NA
ATOM      8  C   UNL     1       3.655   5.585  17.560  0.00  0.00    +0.000 A 
ATOM      9  C   UNL     1       4.939   5.498  16.928  0.00  0.00    +0.000 A 
ATOM     10  H   UNL     1       3.563   2.647  16.633  0.00  0.00    +0.000 HD
ENDROOT
BRANCH   8  11
ATOM     11  C   UNL     1       3.027   6.744  18.202  0.00  0.00    +0.000 A 
ATOM     12  C   UNL     1       2.861   7.953  17.510  0.00  0.00    +0.000 A 
ATOM     13  C   UNL     1       2.175   9.022  18.100  0.00  0.00    +0.000 A 
ATOM     14  C   UNL     1       1.638   8.889  19.380  0.00  0.00    +0.000 A 
ATOM     15  C   UNL     1       1.889   7.729  20.114  0.00  0.00    +0.000 A 
ATOM     16  C   UNL     1       2.582   6.669  19.528  0.00  0.00    +0.000 A 
BRANCH  14  17
ATOM     17  O   UNL     1       0.930   9.961  19.872  0.00  0.00    +0.000 OA
BRANCH  17  18
ATOM     18  C   UNL     1      -0.102  10.486  19.124  0.00  0.00    +0.000 A 
ATOM     19  C   UNL     1      -0.079  11.869  18.932  0.00  0.00    +0.000 A 
ATOM     20  C   UNL     1      -1.076  12.490  18.178  0.00  0.00    +0.000 A 
ATOM     21  C   UNL     1      -2.099  11.729  17.612  0.00  0.00    +0.000 A 
ATOM     22  C   UNL     1      -2.112  10.345  17.777  0.00  0.00    +0.000 A 
ATOM     23  C   UNL     1      -1.102   9.720  18.513  0.00  0.00    +0.000 A 
ENDBRANCH  17  18
ENDBRANCH  14  17
ENDBRANCH   8  11
BRANCH   1  24
ATOM     24  N   UNL     1       6.249   7.597  17.143  0.00  0.00    +0.000 N 
ATOM     25  H   UNL     1       6.002   8.263  16.419  0.00  0.00    +0.000 HD
ATOM     26  H   UNL     1       7.135   7.762  17.605  0.00  0.00    +0.000 HD
ENDBRANCH   1  24
TORSDOF 4
ENDMDL
MODEL 5
REMARK VINA RESULT:      -7.7      1.449      1.712
REMARK  Name = 
REMARK  4 active torsions:
REMARK  status: ('A' for Active; 'I' for Inactive)
REMARK    1  A    between atoms: N_1  and  C_2
REMARK    2  A    between atoms: C_9  and  C_10
REMARK    3  A    between atoms: C_13  and  O_14
REMARK    4  A    between atoms: O_14  and  C_15
REMARK                            x       y       z     vdW  Elec       q    Type
REMARK                         _______ _______ _______ _____ _____    ______ ____
ROOT
ATOM      1  C   UNL     1       2.174   2.989  18.466  0.00  0.00    +0.000 A 
ATOM      2  N   UNL     1       1.141   2.490  19.178  0.00  0.00    +0.000 NA
ATOM      3  C   UNL     1       0.729   3.158  20.276  0.00  0.00    +0.000 A 
ATOM      4  N   UNL     1       1.240   4.289  20.793  0.00  0.00    +0.000 NA
ATOM      5  C   UNL     1       2.251   4.748  20.043  0.00  0.00    +0.000 A 
ATOM      6  N   UNL     1       2.989   5.867  20.285  0.00  0.00    +0.000 N 
ATOM      7  N   UNL     1       3.943   6.102  19.366  0.00  0.00    +0.000 NA
ATOM      8  C   UNL     1       3.792   5.105  18.471  0.00  0.00    +0.000 A 
ATOM      9  C   UNL     1       2.764   4.193  18.882  0.00  0.00    +0.000 A 
ATOM     10  H   UNL     1       2.884   6.504  21.063  0.00  0.00    +0.000 HD
ENDROOT
BRANCH   8  11
ATOM     11  C   UNL     1       4.633   5.055  17.270  0.00  0.00    +0.000 A 
ATOM     12  C   UNL     1       5.371   3.906  16.952  0.00  0.00    +0.000 A 
ATOM     13  C   UNL     1       6.095   3.833  15.755  0.00  0.00    +0.000 A 
ATOM     14  C   UNL     1       6.077   4.904  14.861  0.00  0.00    +0.000 A 
ATOM     15  C   UNL     1       5.433   6.089  15.218  0.00  0.00    +0.000 A 
ATOM     16  C   UNL     1       4.721   6.162  16.416  0.00  0.00    +0.000 A 
BRANCH  14  17
ATOM     17  O   UNL     1       6.765   4.740  13.681  0.00  0.00    +0.000 OA
BRANCH  17  18
ATOM     18  C   UNL     1       6.308   3.825  12.757  0.00  0.00    +0.000 A 
ATOM     19  C   UNL     1       7.279   3.022  12.155  0.00  0.00    +0.000 A 
ATOM     20  C   UNL     1       6.910   2.058  11.214  0.00  0.00    +0.000 A 
ATOM     21  C   UNL     1       5.567   1.894  10.875  0.00  0.00    +0.000 A 
ATOM     22  C   UNL     1       4.591   2.673  11.493  0.00  0.00    +0.000 A 
ATOM     23  C   UNL     1       4.957   3.623  12.450  0.00  0.00    +0.000 A 
ENDBRANCH  17  18
ENDBRANCH  14  17
ENDBRANCH   8  11
BRANCH   1  24
ATOM     24  N   UNL     1       2.574   2.230  17.373  0.00  0.00    +0.000 N 
ATOM     25  H   UNL     1       2.656   1.254  17.635  0.00  0.00    +0.000 HD
ATOM     26  H   UNL     1       3.357   2.612  16.857  0.00  0.00    +0.000 HD
ENDBRANCH   1  24
TORSDOF 4
ENDMDL
MODEL 6
REMARK VINA RESULT:      -7.7      5.068      7.530
REMARK  Name = 
REMARK  4 active torsions:
REMARK  status: ('A' for Active; 'I' for Inactive)
REMARK    1  A    between atoms: N_1  and  C_2
REMARK    2  A    between atoms: C_9  and  C_10
REMARK    3  A    between atoms: C_13  and  O_14
REMARK    4  A    between atoms: O_14  and  C_15
REMARK                            x       y       z     vdW  Elec       q    Type
REMARK                         _______ _______ _______ _____ _____    ______ ____
ROOT
ATOM      1  C   UNL     1       2.376   4.092  20.245  0.00  0.00    +0.000 A 
ATOM      2  N   UNL     1       2.667   2.849  20.681  0.00  0.00    +0.000 NA
ATOM      3  C   UNL     1       3.876   2.326  20.385  0.00  0.00    +0.000 A 
ATOM      4  N   UNL     1       4.864   2.888  19.667  0.00  0.00    +0.000 NA
ATOM      5  C   UNL     1       4.529   4.123  19.271  0.00  0.00    +0.000 A 
ATOM      6  N   UNL     1       5.298   4.965  18.526  0.00  0.00    +0.000 N 
ATOM      7  N   UNL     1       4.721   6.154  18.274  0.00  0.00    +0.000 NA
ATOM      8  C   UNL     1       3.536   6.087  18.914  0.00  0.00    +0.000 A 
ATOM      9  C   UNL     1       3.348   4.801  19.520  0.00  0.00    +0.000 A 
ATOM     10  H   UNL     1       6.223   4.778  18.163  0.00  0.00    +0.000 HD
ENDROOT
BRANCH   8  11
ATOM     11  C   UNL     1       2.631   7.242  18.916  0.00  0.00    +0.000 A 
ATOM     12  C   UNL     1       1.959   7.631  20.084  0.00  0.00    +0.000 A 
ATOM     13  C   UNL     1       1.173   8.790  20.100  0.00  0.00    +0.000 A 
ATOM     14  C   UNL     1       1.062   9.576  18.953  0.00  0.00    +0.000 A 
ATOM     15  C   UNL     1       1.641   9.140  17.761  0.00  0.00    +0.000 A 
ATOM     16  C   UNL     1       2.416   7.979  17.745  0.00  0.00    +0.000 A 
BRANCH  14  17
ATOM     17  O   UNL     1       0.319  10.729  19.059  0.00  0.00    +0.000 OA
BRANCH  17  18
ATOM     18  C   UNL     1      -0.983  10.735  18.602  0.00  0.00    +0.000 A 
ATOM     19  C   UNL     1      -1.836  11.669  19.193  0.00  0.00    +0.000 A 
ATOM     20  C   UNL     1      -3.169  11.756  18.788  0.00  0.00    +0.000 A 
ATOM     21  C   UNL     1      -3.652  10.911  17.790  0.00  0.00    +0.000 A 
ATOM     22  C   UNL     1      -2.798   9.996  17.178  0.00  0.00    +0.000 A 
ATOM     23  C   UNL     1      -1.458   9.922  17.567  0.00  0.00    +0.000 A 
ENDBRANCH  17  18
ENDBRANCH  14  17
ENDBRANCH   8  11
BRANCH   1  24
ATOM     24  N   UNL     1       1.100   4.553  20.547  0.00  0.00    +0.000 N 
ATOM     25  H   UNL     1       1.155   5.355  21.166  0.00  0.00    +0.000 HD
ATOM     26  H   UNL     1       0.445   3.833  20.824  0.00  0.00    +0.000 HD
ENDBRANCH   1  24
TORSDOF 4
ENDMDL
MODEL 7
REMARK VINA RESULT:      -7.7      4.932      7.912
REMARK  Name = 
REMARK  4 active torsions:
REMARK  status: ('A' for Active; 'I' for Inactive)
REMARK    1  A    between atoms: N_1  and  C_2
REMARK    2  A    between atoms: C_9  and  C_10
REMARK    3  A    between atoms: C_13  and  O_14
REMARK    4  A    between atoms: O_14  and  C_15
REMARK                            x       y       z     vdW  Elec       q    Type
REMARK                         _______ _______ _______ _____ _____    ______ ____
ROOT
ATOM      1  C   UNL     1       6.044   6.336  16.714  0.00  0.00    +0.000 A 
ATOM      2  N   UNL     1       7.067   5.839  15.987  0.00  0.00    +0.000 NA
ATOM      3  C   UNL     1       6.972   4.580  15.511  0.00  0.00    +0.000 A 
ATOM      4  N   UNL     1       5.964   3.707  15.684  0.00  0.00    +0.000 NA
ATOM      5  C   UNL     1       4.971   4.253  16.399  0.00  0.00    +0.000 A 
ATOM      6  N   UNL     1       3.808   3.643  16.758  0.00  0.00    +0.000 N 
ATOM      7  N   UNL     1       2.978   4.425  17.472  0.00  0.00    +0.000 NA
ATOM      8  C   UNL     1       3.622   5.606  17.549  0.00  0.00    +0.000 A 
ATOM      9  C   UNL     1       4.912   5.532  16.926  0.00  0.00    +0.000 A 
ATOM     10  H   UNL     1       3.531   2.694  16.543  0.00  0.00    +0.000 HD
ENDROOT
BRANCH   8  11
ATOM     11  C   UNL     1       2.992   6.750  18.218  0.00  0.00    +0.000 A 
ATOM     12  C   UNL     1       2.756   7.949  17.530  0.00  0.00    +0.000 A 
ATOM     13  C   UNL     1       2.068   9.001  18.148  0.00  0.00    +0.000 A 
ATOM     14  C   UNL     1       1.599   8.858  19.454  0.00  0.00    +0.000 A 
ATOM     15  C   UNL     1       1.922   7.711  20.179  0.00  0.00    +0.000 A 
ATOM     16  C   UNL     1       2.617   6.668  19.564  0.00  0.00    +0.000 A 
BRANCH  14  17
ATOM     17  O   UNL     1       0.884   9.911  19.976  0.00  0.00    +0.000 OA
BRANCH  17  18
ATOM     18  C   UNL     1      -0.048  10.549  19.185  0.00  0.00    +0.000 A 
ATOM     19  C   UNL     1      -1.147   9.782  18.793  0.00  0.00    +0.000 A 
ATOM     20  C   UNL     1      -2.149  10.346  17.999  0.00  0.00    +0.000 A 
ATOM     21  C   UNL     1      -2.054  11.679  17.599  0.00  0.00    +0.000 A 
ATOM     22  C   UNL     1      -0.973  12.455  18.011  0.00  0.00    +0.000 A 
ATOM     23  C   UNL     1       0.019  11.899  18.823  0.00  0.00    +0.000 A 
ENDBRANCH  17  18
ENDBRANCH  14  17
ENDBRANCH   8  11
BRANCH   1  24
ATOM     24  N   UNL     1       6.226   7.621  17.209  0.00  0.00    +0.000 N 
ATOM     25  H   UNL     1       6.226   7.609  18.223  0.00  0.00    +0.000 HD
ATOM     26  H   UNL     1       5.639   8.326  16.781  0.00  0.00    +0.000 HD
ENDBRANCH   1  24
TORSDOF 4
ENDMDL
MODEL 8
REMARK VINA RESULT:      -7.6      4.906      7.913
REMARK  Name = 
REMARK  4 active torsions:
REMARK  status: ('A' for Active; 'I' for Inactive)
REMARK    1  A    between atoms: N_1  and  C_2
REMARK    2  A    between atoms: C_9  and  C_10
REMARK    3  A    between atoms: C_13  and  O_14
REMARK    4  A    between atoms: O_14  and  C_15
REMARK                            x       y       z     vdW  Elec       q    Type
REMARK                         _______ _______ _______ _____ _____    ______ ____
ROOT
ATOM      1  C   UNL     1       6.035   6.330  16.687  0.00  0.00    +0.000 A 
ATOM      2  N   UNL     1       7.097   5.876  15.989  0.00  0.00    +0.000 NA
ATOM      3  C   UNL     1       7.098   4.591  15.573  0.00  0.00    +0.000 A 
ATOM      4  N   UNL     1       6.155   3.656  15.785  0.00  0.00    +0.000 NA
ATOM      5  C   UNL     1       5.120   4.161  16.469  0.00  0.00    +0.000 A 
ATOM      6  N   UNL     1       4.002   3.485  16.853  0.00  0.00    +0.000 N 
ATOM      7  N   UNL     1       3.112   4.236  17.526  0.00  0.00    +0.000 NA
ATOM      8  C   UNL     1       3.668   5.464  17.548  0.00  0.00    +0.000 A 
ATOM      9  C   UNL     1       4.964   5.456  16.934  0.00  0.00    +0.000 A 
ATOM     10  H   UNL     1       3.797   2.509  16.683  0.00  0.00    +0.000 HD
ENDROOT
BRANCH   8  11
ATOM     11  C   UNL     1       2.951   6.589  18.159  0.00  0.00    +0.000 A 
ATOM     12  C   UNL     1       2.509   6.528  19.489  0.00  0.00    +0.000 A 
ATOM     13  C   UNL     1       1.912   7.642  20.092  0.00  0.00    +0.000 A 
ATOM     14  C   UNL     1       1.762   8.829  19.375  0.00  0.00    +0.000 A 
ATOM     15  C   UNL     1       2.102   8.864  18.022  0.00  0.00    +0.000 A 
ATOM     16  C   UNL     1       2.687   7.749  17.421  0.00  0.00    +0.000 A 
BRANCH  14  17
ATOM     17  O   UNL     1       1.217   9.898  20.049  0.00  0.00    +0.000 OA
BRANCH  17  18
ATOM     18  C   UNL     1       0.304  10.705  19.404  0.00  0.00    +0.000 A 
ATOM     19  C   UNL     1      -0.937  10.127  19.128  0.00  0.00    +0.000 A 
ATOM     20  C   UNL     1      -1.931  10.871  18.487  0.00  0.00    +0.000 A 
ATOM     21  C   UNL     1      -1.686  12.195  18.123  0.00  0.00    +0.000 A 
ATOM     22  C   UNL     1      -0.459  12.784  18.422  0.00  0.00    +0.000 A 
ATOM     23  C   UNL     1       0.528  12.048  19.082  0.00  0.00    +0.000 A 
ENDBRANCH  17  18
ENDBRANCH  14  17
ENDBRANCH   8  11
BRANCH   1  24
ATOM     24  N   UNL     1       6.119   7.647  17.121  0.00  0.00    +0.000 N 
ATOM     25  H   UNL     1       6.684   7.704  17.961  0.00  0.00    +0.000 HD
ATOM     26  H   UNL     1       5.234   8.137  17.155  0.00  0.00    +0.000 HD
ENDBRANCH   1  24
TORSDOF 4
ENDMDL
MODEL 9
REMARK VINA RESULT:      -7.6      5.081      7.528
REMARK  Name = 
REMARK  4 active torsions:
REMARK  status: ('A' for Active; 'I' for Inactive)
REMARK    1  A    between atoms: N_1  and  C_2
REMARK    2  A    between atoms: C_9  and  C_10
REMARK    3  A    between atoms: C_13  and  O_14
REMARK    4  A    between atoms: O_14  and  C_15
REMARK                            x       y       z     vdW  Elec       q    Type
REMARK                         _______ _______ _______ _____ _____    ______ ____
ROOT
ATOM      1  C   UNL     1       2.352   4.183  20.187  0.00  0.00    +0.000 A 
ATOM      2  N   UNL     1       2.648   2.934  20.604  0.00  0.00    +0.000 NA
ATOM      3  C   UNL     1       3.853   2.415  20.290  0.00  0.00    +0.000 A 
ATOM      4  N   UNL     1       4.835   2.986  19.570  0.00  0.00    +0.000 NA
ATOM      5  C   UNL     1       4.496   4.226  19.192  0.00  0.00    +0.000 A 
ATOM      6  N   UNL     1       5.258   5.077  18.451  0.00  0.00    +0.000 N 
ATOM      7  N   UNL     1       4.679   6.269  18.219  0.00  0.00    +0.000 NA
ATOM      8  C   UNL     1       3.500   6.194  18.870  0.00  0.00    +0.000 A 
ATOM      9  C   UNL     1       3.318   4.901  19.462  0.00  0.00    +0.000 A 
ATOM     10  H   UNL     1       6.180   4.894  18.076  0.00  0.00    +0.000 HD
ENDROOT
BRANCH   8  11
ATOM     11  C   UNL     1       2.596   7.349  18.895  0.00  0.00    +0.000 A 
ATOM     12  C   UNL     1       1.921   7.713  20.070  0.00  0.00    +0.000 A 
ATOM     13  C   UNL     1       1.135   8.871  20.109  0.00  0.00    +0.000 A 
ATOM     14  C   UNL     1       1.027   9.682  18.979  0.00  0.00    +0.000 A 
ATOM     15  C   UNL     1       1.609   9.272  17.780  0.00  0.00    +0.000 A 
ATOM     16  C   UNL     1       2.383   8.112  17.740  0.00  0.00    +0.000 A 
BRANCH  14  17
ATOM     17  O   UNL     1       0.284  10.833  19.108  0.00  0.00    +0.000 OA
BRANCH  17  18
ATOM     18  C   UNL     1      -1.014  10.852  18.642  0.00  0.00    +0.000 A 
ATOM     19  C   UNL     1      -1.322   9.917  17.652  0.00  0.00    +0.000 A 
ATOM     20  C   UNL     1      -2.614   9.852  17.125  0.00  0.00    +0.000 A 
ATOM     21  C   UNL     1      -3.601  10.722  17.590  0.00  0.00    +0.000 A 
ATOM     22  C   UNL     1      -3.305  11.638  18.598  0.00  0.00    +0.000 A 
ATOM     23  C   UNL     1      -2.018  11.688  19.141  0.00  0.00    +0.000 A 
ENDBRANCH  17  18
ENDBRANCH  14  17
ENDBRANCH   8  11
BRANCH   1  24
ATOM     24  N   UNL     1       1.080   4.640  20.508  0.00  0.00    +0.000 N 
ATOM     25  H   UNL     1       1.011   4.815  21.505  0.00  0.00    +0.000 HD
ATOM     26  H   UNL     1       0.323   4.101  20.106  0.00  0.00    +0.000 HD
ENDBRANCH   1  24
TORSDOF 4
ENDMDL
