MODEL 1
REMARK VINA RESULT:      -7.1      0.000      0.000
REMARK  Name = 
REMARK  5 active torsions:
REMARK  status: ('A' for Active; 'I' for Inactive)
REMARK    1  A    between atoms: C_2  and  C_3
REMARK    2  A    between atoms: N_10  and  C_11
REMARK    3  A    between atoms: N_10  and  C_17
REMARK    4  A    between atoms: C_11  and  C_12
REMARK    5  A    between atoms: C_17  and  C_18
REMARK                            x       y       z     vdW  Elec       q    Type
REMARK                         _______ _______ _______ _____ _____    ______ ____
ROOT
ATOM      1  O   UNL     1       4.854   6.245  19.062  0.00  0.00    +0.000 OA
ATOM      2  C   UNL     1       3.704   6.072  18.644  0.00  0.00    +0.000 C 
ATOM      3  N   UNL     1       3.331   4.896  17.976  0.00  0.00    +0.000 N 
ENDROOT
BRANCH   2   4
ATOM      4  C   UNL     1       2.730   7.258  18.834  0.00  0.00    +0.000 A 
ATOM      5  C   UNL     1       2.265   8.142  17.929  0.00  0.00    +0.000 A 
ATOM      6  C   UNL     1       1.408   9.249  18.298  0.00  0.00    +0.000 A 
ATOM      7  C   UNL     1       0.988   9.381  19.559  0.00  0.00    +0.000 A 
ATOM      8  C   UNL     1       1.401   8.373  20.565  0.00  0.00    +0.000 A 
ATOM      9  O   UNL     1       0.984   8.433  21.721  0.00  0.00    +0.000 OA
ATOM     10  N   UNL     1       2.257   7.392  20.131  0.00  0.00    +0.000 N 
ATOM     11  H   UNL     1       2.541   6.687  20.808  0.00  0.00    +0.000 HD
ENDBRANCH   2   4
BRANCH   3  12
ATOM     12  C   UNL     1       4.351   3.865  17.763  0.00  0.00    +0.000 C 
BRANCH  12  13
ATOM     13  C   UNL     1       5.332   4.181  16.657  0.00  0.00    +0.000 A 
ATOM     14  C   UNL     1       6.724   4.522  16.760  0.00  0.00    +0.000 A 
ATOM     15  C   UNL     1       7.342   4.645  15.531  0.00  0.00    +0.000 A 
ATOM     16  S   UNL     1       6.253   4.402  14.239  0.00  0.00    +0.000 S 
ATOM     17  C   UNL     1       4.963   4.117  15.320  0.00  0.00    +0.000 A 
ENDBRANCH  12  13
ENDBRANCH   3  12
BRANCH   3  18
ATOM     18  C   UNL     1       1.933   4.562  17.792  0.00  0.00    +0.000 C 
BRANCH  18  19
ATOM     19  C   UNL     1       1.130   3.611  18.676  0.00  0.00    +0.000 C 
ATOM     20  C   UNL     1       1.180   4.156  20.111  0.00  0.00    +0.000 C 
ATOM     21  C   UNL     1       1.163   2.907  20.945  0.00  0.00    +0.000 C 
ATOM     22  C   UNL     1       1.978   1.957  20.098  0.00  0.00    +0.000 C 
ATOM     23  O   UNL     1       1.748   2.314  18.731  0.00  0.00    +0.000 OA
ENDBRANCH  18  19
ENDBRANCH   3  18
TORSDOF 5
ENDMDL
MODEL 2
REMARK VINA RESULT:      -6.9      3.086      6.090
REMARK  Name = 
REMARK  5 active torsions:
REMARK  status: ('A' for Active; 'I' for Inactive)
REMARK    1  A    between atoms: C_2  and  C_3
REMARK    2  A    between atoms: N_10  and  C_11
REMARK    3  A    between atoms: N_10  and  C_17
REMARK    4  A    between atoms: C_11  and  C_12
REMARK    5  A    between atoms: C_17  and  C_18
REMARK                            x       y       z     vdW  Elec       q    Type
REMARK                         _______ _______ _______ _____ _____    ______ ____
ROOT
ATOM      1  O   UNL     1       7.270   5.364  17.354  0.00  0.00    +0.000 OA
ATOM      2  C   UNL     1       6.305   4.862  16.765  0.00  0.00    +0.000 C 
ATOM      3  N   UNL     1       5.138   4.489  17.447  0.00  0.00    +0.000 N 
ENDROOT
BRANCH   2   4
ATOM      4  C   UNL     1       6.496   4.604  15.253  0.00  0.00    +0.000 A 
ATOM      5  C   UNL     1       5.812   3.787  14.427  0.00  0.00    +0.000 A 
ATOM      6  C   UNL     1       6.177   3.610  13.037  0.00  0.00    +0.000 A 
ATOM      7  C   UNL     1       7.176   4.321  12.509  0.00  0.00    +0.000 A 
ATOM      8  C   UNL     1       7.891   5.301  13.362  0.00  0.00    +0.000 A 
ATOM      9  O   UNL     1       8.776   6.013  12.891  0.00  0.00    +0.000 OA
ATOM     10  N   UNL     1       7.509   5.359  14.679  0.00  0.00    +0.000 N 
ATOM     11  H   UNL     1       7.983   6.034  15.275  0.00  0.00    +0.000 HD
ENDBRANCH   2   4
BRANCH   3  12
ATOM     12  C   UNL     1       5.087   4.690  18.899  0.00  0.00    +0.000 C 
BRANCH  12  13
ATOM     13  C   UNL     1       3.914   5.518  19.371  0.00  0.00    +0.000 A 
ATOM     14  C   UNL     1       3.447   6.782  18.873  0.00  0.00    +0.000 A 
ATOM     15  C   UNL     1       2.278   7.201  19.477  0.00  0.00    +0.000 A 
ATOM     16  S   UNL     1       1.750   6.111  20.679  0.00  0.00    +0.000 S 
ATOM     17  C   UNL     1       3.073   5.073  20.383  0.00  0.00    +0.000 A 
ENDBRANCH  12  13
ENDBRANCH   3  12
BRANCH   3  18
ATOM     18  C   UNL     1       3.911   4.222  16.724  0.00  0.00    +0.000 C 
BRANCH  18  19
ATOM     19  C   UNL     1       3.001   3.017  16.945  0.00  0.00    +0.000 C 
ATOM     20  C   UNL     1       1.725   3.518  17.635  0.00  0.00    +0.000 C 
ATOM     21  C   UNL     1       1.341   2.361  18.513  0.00  0.00    +0.000 C 
ATOM     22  C   UNL     1       2.691   1.834  18.940  0.00  0.00    +0.000 C 
ATOM     23  O   UNL     1       3.598   2.083  17.860  0.00  0.00    +0.000 OA
ENDBRANCH  18  19
ENDBRANCH   3  18
TORSDOF 5
ENDMDL
MODEL 3
REMARK VINA RESULT:      -6.9      2.390      4.790
REMARK  Name = 
REMARK  5 active torsions:
REMARK  status: ('A' for Active; 'I' for Inactive)
REMARK    1  A    between atoms: C_2  and  C_3
REMARK    2  A    between atoms: N_10  and  C_11
REMARK    3  A    between atoms: N_10  and  C_17
REMARK    4  A    between atoms: C_11  and  C_12
REMARK    5  A    between atoms: C_17  and  C_18
REMARK                            x       y       z     vdW  Elec       q    Type
REMARK                         _______ _______ _______ _____ _____    ______ ____
ROOT
ATOM      1  O   UNL     1       4.738   3.409  17.271  0.00  0.00    +0.000 OA
ATOM      2  C   UNL     1       3.894   4.213  17.681  0.00  0.00    +0.000 C 
ATOM      3  N   UNL     1       3.968   5.579  17.373  0.00  0.00    +0.000 N 
ENDROOT
BRANCH   2   4
ATOM      4  C   UNL     1       2.803   3.634  18.611  0.00  0.00    +0.000 A 
ATOM      5  C   UNL     1       1.510   3.356  18.350  0.00  0.00    +0.000 A 
ATOM      6  C   UNL     1       0.600   2.881  19.371  0.00  0.00    +0.000 A 
ATOM      7  C   UNL     1       1.045   2.631  20.604  0.00  0.00    +0.000 A 
ATOM      8  C   UNL     1       2.483   2.833  20.905  0.00  0.00    +0.000 A 
ATOM      9  O   UNL     1       2.937   2.555  22.014  0.00  0.00    +0.000 OA
ATOM     10  N   UNL     1       3.255   3.336  19.888  0.00  0.00    +0.000 N 
ATOM     11  H   UNL     1       4.247   3.471  20.075  0.00  0.00    +0.000 HD
ENDBRANCH   2   4
BRANCH   3  12
ATOM     12  C   UNL     1       5.093   6.049  16.559  0.00  0.00    +0.000 C 
BRANCH  12  13
ATOM     13  C   UNL     1       6.264   6.571  17.359  0.00  0.00    +0.000 A 
ATOM     14  C   UNL     1       7.068   5.884  18.331  0.00  0.00    +0.000 A 
ATOM     15  C   UNL     1       8.126   6.643  18.791  0.00  0.00    +0.000 A 
ATOM     16  S   UNL     1       8.142   8.204  18.102  0.00  0.00    +0.000 S 
ATOM     17  C   UNL     1       6.747   7.861  17.179  0.00  0.00    +0.000 A 
ENDBRANCH  12  13
ENDBRANCH   3  12
BRANCH   3  18
ATOM     18  C   UNL     1       2.821   6.444  17.566  0.00  0.00    +0.000 C 
BRANCH  18  19
ATOM     19  C   UNL     1       2.860   7.832  18.200  0.00  0.00    +0.000 C 
ATOM     20  C   UNL     1       1.995   7.789  19.468  0.00  0.00    +0.000 C 
ATOM     21  C   UNL     1       1.418   9.175  19.528  0.00  0.00    +0.000 C 
ATOM     22  C   UNL     1       1.212   9.489  18.065  0.00  0.00    +0.000 C 
ATOM     23  O   UNL     1       2.244   8.807  17.342  0.00  0.00    +0.000 OA
ENDBRANCH  18  19
ENDBRANCH   3  18
TORSDOF 5
ENDMDL
MODEL 4
REMARK VINA RESULT:      -6.9      2.681      5.749
REMARK  Name = 
REMARK  5 active torsions:
REMARK  status: ('A' for Active; 'I' for Inactive)
REMARK    1  A    between atoms: C_2  and  C_3
REMARK    2  A    between atoms: N_10  and  C_11
REMARK    3  A    between atoms: N_10  and  C_17
REMARK    4  A    between atoms: C_11  and  C_12
REMARK    5  A    between atoms: C_17  and  C_18
REMARK                            x       y       z     vdW  Elec       q    Type
REMARK                         _______ _______ _______ _____ _____    ______ ____
ROOT
ATOM      1  O   UNL     1       4.326   3.902  17.490  0.00  0.00    +0.000 OA
ATOM      2  C   UNL     1       4.256   5.094  17.812  0.00  0.00    +0.000 C 
ATOM      3  N   UNL     1       3.024   5.750  17.943  0.00  0.00    +0.000 N 
ENDROOT
BRANCH   2   4
ATOM      4  C   UNL     1       5.606   5.828  17.981  0.00  0.00    +0.000 A 
ATOM      5  C   UNL     1       6.132   6.838  17.260  0.00  0.00    +0.000 A 
ATOM      6  C   UNL     1       7.457   7.363  17.515  0.00  0.00    +0.000 A 
ATOM      7  C   UNL     1       8.177   6.899  18.539  0.00  0.00    +0.000 A 
ATOM      8  C   UNL     1       7.594   5.854  19.415  0.00  0.00    +0.000 A 
ATOM      9  O   UNL     1       8.207   5.448  20.401  0.00  0.00    +0.000 OA
ATOM     10  N   UNL     1       6.355   5.382  19.061  0.00  0.00    +0.000 N 
ATOM     11  H   UNL     1       5.937   4.672  19.658  0.00  0.00    +0.000 HD
ENDBRANCH   2   4
BRANCH   3  12
ATOM     12  C   UNL     1       1.800   4.991  17.671  0.00  0.00    +0.000 C 
BRANCH  12  13
ATOM     13  C   UNL     1       1.481   3.935  18.705  0.00  0.00    +0.000 A 
ATOM     14  C   UNL     1       1.197   2.540  18.508  0.00  0.00    +0.000 A 
ATOM     15  C   UNL     1       1.052   1.846  19.693  0.00  0.00    +0.000 A 
ATOM     16  S   UNL     1       1.207   2.863  21.054  0.00  0.00    +0.000 S 
ATOM     17  C   UNL     1       1.482   4.225  20.063  0.00  0.00    +0.000 A 
ENDBRANCH  12  13
ENDBRANCH   3  12
BRANCH   3  18
ATOM     18  C   UNL     1       2.934   7.022  18.632  0.00  0.00    +0.000 C 
BRANCH  18  19
ATOM     19  C   UNL     1       1.710   7.934  18.642  0.00  0.00    +0.000 C 
ATOM     20  C   UNL     1       2.054   9.183  17.819  0.00  0.00    +0.000 C 
ATOM     21  C   UNL     1       1.284  10.268  18.517  0.00  0.00    +0.000 C 
ATOM     22  C   UNL     1       1.383   9.838  19.963  0.00  0.00    +0.000 C 
ATOM     23  O   UNL     1       1.431   8.407  19.971  0.00  0.00    +0.000 OA
ENDBRANCH  18  19
ENDBRANCH   3  18
TORSDOF 5
ENDMDL
MODEL 5
REMARK VINA RESULT:      -6.8      3.411      6.102
REMARK  Name = 
REMARK  5 active torsions:
REMARK  status: ('A' for Active; 'I' for Inactive)
REMARK    1  A    between atoms: C_2  and  C_3
REMARK    2  A    between atoms: N_10  and  C_11
REMARK    3  A    between atoms: N_10  and  C_17
REMARK    4  A    between atoms: C_11  and  C_12
REMARK    5  A    between atoms: C_17  and  C_18
REMARK                            x       y       z     vdW  Elec       q    Type
REMARK                         _______ _______ _______ _____ _____    ______ ____
ROOT
ATOM      1  O   UNL     1       3.398   5.997  18.084  0.00  0.00    +0.000 OA
ATOM      2  C   UNL     1       4.379   5.501  17.519  0.00  0.00    +0.000 C 
ATOM      3  N   UNL     1       4.265   4.361  16.710  0.00  0.00    +0.000 N 
ENDROOT
BRANCH   2   4
ATOM      4  C   UNL     1       5.742   6.166  17.822  0.00  0.00    +0.000 A 
ATOM      5  C   UNL     1       6.293   7.276  17.293  0.00  0.00    +0.000 A 
ATOM      6  C   UNL     1       7.625   7.721  17.643  0.00  0.00    +0.000 A 
ATOM      7  C   UNL     1       8.328   7.069  18.573  0.00  0.00    +0.000 A 
ATOM      8  C   UNL     1       7.718   5.899  19.247  0.00  0.00    +0.000 A 
ATOM      9  O   UNL     1       8.314   5.313  20.149  0.00  0.00    +0.000 OA
ATOM     10  N   UNL     1       6.472   5.522  18.810  0.00  0.00    +0.000 N 
ATOM     11  H   UNL     1       6.036   4.726  19.270  0.00  0.00    +0.000 HD
ENDBRANCH   2   4
BRANCH   3  12
ATOM     12  C   UNL     1       2.943   3.747  16.557  0.00  0.00    +0.000 C 
BRANCH  12  13
ATOM     13  C   UNL     1       2.390   3.139  17.825  0.00  0.00    +0.000 A 
ATOM     14  C   UNL     1       2.925   2.064  18.616  0.00  0.00    +0.000 A 
ATOM     15  C   UNL     1       2.208   1.838  19.774  0.00  0.00    +0.000 A 
ATOM     16  S   UNL     1       0.859   2.875  19.907  0.00  0.00    +0.000 S 
ATOM     17  C   UNL     1       1.241   3.636  18.427  0.00  0.00    +0.000 A 
ENDBRANCH  12  13
ENDBRANCH   3  12
BRANCH   3  18
ATOM     18  C   UNL     1       5.331   3.991  15.800  0.00  0.00    +0.000 C 
BRANCH  18  19
ATOM     19  C   UNL     1       5.589   4.632  14.439  0.00  0.00    +0.000 C 
ATOM     20  C   UNL     1       5.833   3.500  13.430  0.00  0.00    +0.000 C 
ATOM     21  C   UNL     1       6.827   4.105  12.480  0.00  0.00    +0.000 C 
ATOM     22  C   UNL     1       7.665   4.955  13.406  0.00  0.00    +0.000 C 
ATOM     23  O   UNL     1       6.801   5.405  14.456  0.00  0.00    +0.000 OA
ENDBRANCH  18  19
ENDBRANCH   3  18
TORSDOF 5
ENDMDL
MODEL 6
REMARK VINA RESULT:      -6.8      2.354      4.682
REMARK  Name = 
REMARK  5 active torsions:
REMARK  status: ('A' for Active; 'I' for Inactive)
REMARK    1  A    between atoms: C_2  and  C_3
REMARK    2  A    between atoms: N_10  and  C_11
REMARK    3  A    between atoms: N_10  and  C_17
REMARK    4  A    between atoms: C_11  and  C_12
REMARK    5  A    between atoms: C_17  and  C_18
REMARK                            x       y       z     vdW  Elec       q    Type
REMARK                         _______ _______ _______ _____ _____    ______ ____
ROOT
ATOM      1  O   UNL     1       4.429   2.816  17.089  0.00  0.00    +0.000 OA
ATOM      2  C   UNL     1       4.066   3.676  17.900  0.00  0.00    +0.000 C 
ATOM      3  N   UNL     1       4.773   4.875  18.069  0.00  0.00    +0.000 N 
ENDROOT
BRANCH   2   4
ATOM      4  C   UNL     1       2.837   3.313  18.765  0.00  0.00    +0.000 A 
ATOM      5  C   UNL     1       1.565   3.069  18.392  0.00  0.00    +0.000 A 
ATOM      6  C   UNL     1       0.512   2.813  19.352  0.00  0.00    +0.000 A 
ATOM      7  C   UNL     1       0.795   2.740  20.655  0.00  0.00    +0.000 A 
ATOM      8  C   UNL     1       2.200   2.908  21.097  0.00  0.00    +0.000 A 
ATOM      9  O   UNL     1       2.503   2.787  22.283  0.00  0.00    +0.000 OA
ATOM     10  N   UNL     1       3.118   3.200  20.119  0.00  0.00    +0.000 N 
ATOM     11  H   UNL     1       4.088   3.308  20.405  0.00  0.00    +0.000 HD
ENDBRANCH   2   4
BRANCH   3  12
ATOM     12  C   UNL     1       5.981   5.088  17.266  0.00  0.00    +0.000 C 
BRANCH  12  13
ATOM     13  C   UNL     1       6.838   6.245  17.727  0.00  0.00    +0.000 A 
ATOM     14  C   UNL     1       7.821   6.275  18.774  0.00  0.00    +0.000 A 
ATOM     15  C   UNL     1       8.490   7.480  18.853  0.00  0.00    +0.000 A 
ATOM     16  S   UNL     1       7.918   8.607  17.706  0.00  0.00    +0.000 S 
ATOM     17  C   UNL     1       6.788   7.481  17.096  0.00  0.00    +0.000 A 
ENDBRANCH  12  13
ENDBRANCH   3  12
BRANCH   3  18
ATOM     18  C   UNL     1       4.170   5.999  18.757  0.00  0.00    +0.000 C 
BRANCH  18  19
ATOM     19  C   UNL     1       2.822   6.626  18.410  0.00  0.00    +0.000 C 
ATOM     20  C   UNL     1       3.098   7.931  17.650  0.00  0.00    +0.000 C 
ATOM     21  C   UNL     1       1.961   8.815  18.077  0.00  0.00    +0.000 C 
ATOM     22  C   UNL     1       1.766   8.397  19.516  0.00  0.00    +0.000 C 
ATOM     23  O   UNL     1       2.111   7.010  19.599  0.00  0.00    +0.000 OA
ENDBRANCH  18  19
ENDBRANCH   3  18
TORSDOF 5
ENDMDL
MODEL 7
REMARK VINA RESULT:      -6.8      2.241      2.733
REMARK  Name = 
REMARK  5 active torsions:
REMARK  status: ('A' for Active; 'I' for Inactive)
REMARK    1  A    between atoms: C_2  and  C_3
REMARK    2  A    between atoms: N_10  and  C_11
REMARK    3  A    between atoms: N_10  and  C_17
REMARK    4  A    between atoms: C_11  and  C_12
REMARK    5  A    between atoms: C_17  and  C_18
REMARK                            x       y       z     vdW  Elec       q    Type
REMARK                         _______ _______ _______ _____ _____    ______ ____
ROOT
ATOM      1  O   UNL     1       2.817   8.381  17.577  0.00  0.00    +0.000 OA
ATOM      2  C   UNL     1       2.466   7.747  18.579  0.00  0.00    +0.000 C 
ATOM      3  N   UNL     1       2.826   6.405  18.765  0.00  0.00    +0.000 N 
ENDROOT
BRANCH   2   4
ATOM      4  C   UNL     1       1.548   8.501  19.568  0.00  0.00    +0.000 A 
ATOM      5  C   UNL     1       1.395   8.334  20.897  0.00  0.00    +0.000 A 
ATOM      6  C   UNL     1       0.425   9.086  21.665  0.00  0.00    +0.000 A 
ATOM      7  C   UNL     1      -0.306  10.036  21.077  0.00  0.00    +0.000 A 
ATOM      8  C   UNL     1      -0.098  10.316  19.635  0.00  0.00    +0.000 A 
ATOM      9  O   UNL     1      -0.712  11.225  19.078  0.00  0.00    +0.000 OA
ATOM     10  N   UNL     1       0.805   9.515  18.982  0.00  0.00    +0.000 N 
ATOM     11  H   UNL     1       0.966   9.702  17.994  0.00  0.00    +0.000 HD
ENDBRANCH   2   4
BRANCH   3  12
ATOM     12  C   UNL     1       3.623   5.748  17.724  0.00  0.00    +0.000 C 
BRANCH  12  13
ATOM     13  C   UNL     1       5.113   5.962  17.856  0.00  0.00    +0.000 A 
ATOM     14  C   UNL     1       5.961   6.862  17.123  0.00  0.00    +0.000 A 
ATOM     15  C   UNL     1       7.264   6.869  17.581  0.00  0.00    +0.000 A 
ATOM     16  S   UNL     1       7.501   5.765  18.860  0.00  0.00    +0.000 S 
ATOM     17  C   UNL     1       5.861   5.290  18.813  0.00  0.00    +0.000 A 
ENDBRANCH  12  13
ENDBRANCH   3  12
BRANCH   3  18
ATOM     18  C   UNL     1       2.703   5.780  20.067  0.00  0.00    +0.000 C 
BRANCH  18  19
ATOM     19  C   UNL     1       1.587   4.827  20.486  0.00  0.00    +0.000 C 
ATOM     20  C   UNL     1       2.176   3.838  21.502  0.00  0.00    +0.000 C 
ATOM     21  C   UNL     1       1.413   2.574  21.222  0.00  0.00    +0.000 C 
ATOM     22  C   UNL     1       1.239   2.642  19.722  0.00  0.00    +0.000 C 
ATOM     23  O   UNL     1       1.147   4.028  19.374  0.00  0.00    +0.000 OA
ENDBRANCH  18  19
ENDBRANCH   3  18
TORSDOF 5
ENDMDL
MODEL 8
REMARK VINA RESULT:      -6.7      1.133      1.441
REMARK  Name = 
REMARK  5 active torsions:
REMARK  status: ('A' for Active; 'I' for Inactive)
REMARK    1  A    between atoms: C_2  and  C_3
REMARK    2  A    between atoms: N_10  and  C_11
REMARK    3  A    between atoms: N_10  and  C_17
REMARK    4  A    between atoms: C_11  and  C_12
REMARK    5  A    between atoms: C_17  and  C_18
REMARK                            x       y       z     vdW  Elec       q    Type
REMARK                         _______ _______ _______ _____ _____    ______ ____
ROOT
ATOM      1  O   UNL     1       5.642   6.442  18.159  0.00  0.00    +0.000 OA
ATOM      2  C   UNL     1       4.486   6.032  18.003  0.00  0.00    +0.000 C 
ATOM      3  N   UNL     1       4.221   4.740  17.524  0.00  0.00    +0.000 N 
ENDROOT
BRANCH   2   4
ATOM      4  C   UNL     1       3.361   7.051  18.294  0.00  0.00    +0.000 A 
ATOM      5  C   UNL     1       2.819   7.987  17.489  0.00  0.00    +0.000 A 
ATOM      6  C   UNL     1       1.813   8.918  17.952  0.00  0.00    +0.000 A 
ATOM      7  C   UNL     1       1.333   8.825  19.195  0.00  0.00    +0.000 A 
ATOM      8  C   UNL     1       1.836   7.748  20.082  0.00  0.00    +0.000 A 
ATOM      9  O   UNL     1       1.372   7.598  21.211  0.00  0.00    +0.000 OA
ATOM     10  N   UNL     1       2.827   6.948  19.570  0.00  0.00    +0.000 N 
ATOM     11  H   UNL     1       3.175   6.198  20.163  0.00  0.00    +0.000 HD
ENDBRANCH   2   4
BRANCH   3  12
ATOM     12  C   UNL     1       5.358   3.877  17.189  0.00  0.00    +0.000 C 
BRANCH  12  13
ATOM     13  C   UNL     1       5.867   4.042  15.775  0.00  0.00    +0.000 A 
ATOM     14  C   UNL     1       5.267   3.601  14.546  0.00  0.00    +0.000 A 
ATOM     15  C   UNL     1       5.962   4.017  13.427  0.00  0.00    +0.000 A 
ATOM     16  S   UNL     1       7.365   4.899  13.834  0.00  0.00    +0.000 S 
ATOM     17  C   UNL     1       7.036   4.739  15.502  0.00  0.00    +0.000 A 
ENDBRANCH  12  13
ENDBRANCH   3  12
BRANCH   3  18
ATOM     18  C   UNL     1       2.902   4.157  17.661  0.00  0.00    +0.000 C 
BRANCH  18  19
ATOM     19  C   UNL     1       2.459   3.235  18.794  0.00  0.00    +0.000 C 
ATOM     20  C   UNL     1       1.043   3.657  19.211  0.00  0.00    +0.000 C 
ATOM     21  C   UNL     1       1.029   3.374  20.687  0.00  0.00    +0.000 C 
ATOM     22  C   UNL     1       2.445   3.721  21.083  0.00  0.00    +0.000 C 
ATOM     23  O   UNL     1       3.280   3.419  19.959  0.00  0.00    +0.000 OA
ENDBRANCH  18  19
ENDBRANCH   3  18
TORSDOF 5
ENDMDL
MODEL 9
REMARK VINA RESULT:      -6.7      2.766      5.893
REMARK  Name = 
REMARK  5 active torsions:
REMARK  status: ('A' for Active; 'I' for Inactive)
REMARK    1  A    between atoms: C_2  and  C_3
REMARK    2  A    between atoms: N_10  and  C_11
REMARK    3  A    between atoms: N_10  and  C_17
REMARK    4  A    between atoms: C_11  and  C_12
REMARK    5  A    between atoms: C_17  and  C_18
REMARK                            x       y       z     vdW  Elec       q    Type
REMARK                         _______ _______ _______ _____ _____    ______ ____
ROOT
ATOM      1  O   UNL     1       6.367   6.437  17.410  0.00  0.00    +0.000 OA
ATOM      2  C   UNL     1       5.601   5.603  16.914  0.00  0.00    +0.000 C 
ATOM      3  N   UNL     1       4.472   5.137  17.603  0.00  0.00    +0.000 N 
ENDROOT
BRANCH   2   4
ATOM      4  C   UNL     1       6.008   5.053  15.527  0.00  0.00    +0.000 A 
ATOM      5  C   UNL     1       5.405   4.123  14.761  0.00  0.00    +0.000 A 
ATOM      6  C   UNL     1       5.969   3.668  13.507  0.00  0.00    +0.000 A 
ATOM      7  C   UNL     1       7.087   4.224  13.034  0.00  0.00    +0.000 A 
ATOM      8  C   UNL     1       7.729   5.318  13.802  0.00  0.00    +0.000 A 
ATOM      9  O   UNL     1       8.725   5.891  13.365  0.00  0.00    +0.000 OA
ATOM     10  N   UNL     1       7.150   5.642  15.004  0.00  0.00    +0.000 N 
ATOM     11  H   UNL     1       7.572   6.398  15.538  0.00  0.00    +0.000 HD
ENDBRANCH   2   4
BRANCH   3  12
ATOM     12  C   UNL     1       4.221   5.652  18.953  0.00  0.00    +0.000 C 
BRANCH  12  13
ATOM     13  C   UNL     1       3.180   6.746  19.017  0.00  0.00    +0.000 A 
ATOM     14  C   UNL     1       2.279   7.069  20.089  0.00  0.00    +0.000 A 
ATOM     15  C   UNL     1       1.532   8.204  19.842  0.00  0.00    +0.000 A 
ATOM     16  S   UNL     1       1.864   8.870  18.307  0.00  0.00    +0.000 S 
ATOM     17  C   UNL     1       3.015   7.652  17.978  0.00  0.00    +0.000 A 
ENDBRANCH  12  13
ENDBRANCH   3  12
BRANCH   3  18
ATOM     18  C   UNL     1       3.417   4.433  16.903  0.00  0.00    +0.000 C 
BRANCH  18  19
ATOM     19  C   UNL     1       2.731   3.160  17.393  0.00  0.00    +0.000 C 
ATOM     20  C   UNL     1       1.459   3.577  18.144  0.00  0.00    +0.000 C 
ATOM     21  C   UNL     1       1.342   2.528  19.214  0.00  0.00    +0.000 C 
ATOM     22  C   UNL     1       2.791   2.272  19.557  0.00  0.00    +0.000 C 
ATOM     23  O   UNL     1       3.547   2.475  18.358  0.00  0.00    +0.000 OA
ENDBRANCH  18  19
ENDBRANCH   3  18
TORSDOF 5
ENDMDL
