MODEL 1
REMARK VINA RESULT:      -7.7      0.000      0.000
REMARK  Name = 
REMARK  4 active torsions:
REMARK  status: ('A' for Active; 'I' for Inactive)
REMARK    1  A    between atoms: C_1  and  C_2
REMARK    2  A    between atoms: C_5  and  S_6
REMARK    3  A    between atoms: S_6  and  C_9
REMARK    4  A    between atoms: C_9  and  C_10
REMARK                            x       y       z     vdW  Elec       q    Type
REMARK                         _______ _______ _______ _____ _____    ______ ____
ROOT
ATOM      1  C   UNL     1       4.714   5.867  17.435  0.00  0.00    +0.000 C 
ATOM      2  C   UNL     1       4.561   7.412  17.527  0.00  0.00    +0.000 C 
ATOM      3  S   UNL     1       2.823   7.814  17.901  0.00  0.00    +0.000 S 
ATOM      4  C   UNL     1       2.506   6.198  18.352  0.00  0.00    +0.000 A 
ATOM      5  N   UNL     1       1.519   5.648  18.995  0.00  0.00    +0.000 NA
ATOM      6  C   UNL     1       1.825   4.307  18.958  0.00  0.00    +0.000 A 
ATOM      7  C   UNL     1       1.110   3.232  19.505  0.00  0.00    +0.000 A 
ATOM      8  C   UNL     1       1.572   1.934  19.279  0.00  0.00    +0.000 A 
ATOM      9  C   UNL     1       2.701   1.709  18.486  0.00  0.00    +0.000 A 
ATOM     10  C   UNL     1       3.450   2.769  17.951  0.00  0.00    +0.000 A 
ATOM     11  C   UNL     1       3.015   4.064  18.250  0.00  0.00    +0.000 A 
ATOM     12  N   UNL     1       3.491   5.320  18.015  0.00  0.00    +0.000 N 
ENDROOT
BRANCH   1  13
ATOM     13  C   UNL     1       6.010   5.393  18.125  0.00  0.00    +0.000 C 
BRANCH  13  14
ATOM     14  S   UNL     1       7.337   5.318  16.928  0.00  0.00    +0.000 S 
ATOM     15  O   UNL     1       8.239   4.261  17.348  0.00  0.00    +0.000 OA
ATOM     16  O   UNL     1       7.829   6.673  16.765  0.00  0.00    +0.000 OA
BRANCH  14  21
ATOM     17  C   UNL     1       5.558   2.912  11.668  0.00  0.00    +0.000 C 
ATOM     18  C   UNL     1       5.905   3.636  12.939  0.00  0.00    +0.000 A 
ATOM     19  C   UNL     1       6.954   4.563  12.977  0.00  0.00    +0.000 A 
ATOM     20  C   UNL     1       7.346   5.153  14.184  0.00  0.00    +0.000 A 
ATOM     21  C   UNL     1       6.673   4.818  15.359  0.00  0.00    +0.000 A 
ATOM     22  C   UNL     1       5.593   3.922  15.327  0.00  0.00    +0.000 A 
ATOM     23  C   UNL     1       5.211   3.338  14.118  0.00  0.00    +0.000 A 
ENDBRANCH  14  21
ENDBRANCH  13  14
ENDBRANCH   1  13
TORSDOF 3
ENDMDL
MODEL 2
REMARK VINA RESULT:      -7.7      2.815      6.826
REMARK  Name = 
REMARK  4 active torsions:
REMARK  status: ('A' for Active; 'I' for Inactive)
REMARK    1  A    between atoms: C_1  and  C_2
REMARK    2  A    between atoms: C_5  and  S_6
REMARK    3  A    between atoms: S_6  and  C_9
REMARK    4  A    between atoms: C_9  and  C_10
REMARK                            x       y       z     vdW  Elec       q    Type
REMARK                         _______ _______ _______ _____ _____    ______ ____
ROOT
ATOM      1  C   UNL     1       5.134   3.898  16.853  0.00  0.00    +0.000 C 
ATOM      2  C   UNL     1       5.620   4.607  18.150  0.00  0.00    +0.000 C 
ATOM      3  S   UNL     1       7.311   5.234  17.883  0.00  0.00    +0.000 S 
ATOM      4  C   UNL     1       7.162   5.029  16.194  0.00  0.00    +0.000 A 
ATOM      5  N   UNL     1       7.866   5.471  15.196  0.00  0.00    +0.000 NA
ATOM      6  C   UNL     1       7.271   4.884  14.103  0.00  0.00    +0.000 A 
ATOM      7  C   UNL     1       7.612   5.010  12.749  0.00  0.00    +0.000 A 
ATOM      8  C   UNL     1       6.910   4.254  11.807  0.00  0.00    +0.000 A 
ATOM      9  C   UNL     1       5.917   3.358  12.212  0.00  0.00    +0.000 A 
ATOM     10  C   UNL     1       5.539   3.233  13.559  0.00  0.00    +0.000 A 
ATOM     11  C   UNL     1       6.201   4.053  14.478  0.00  0.00    +0.000 A 
ATOM     12  N   UNL     1       6.076   4.301  15.814  0.00  0.00    +0.000 N 
ENDROOT
BRANCH   1  13
ATOM     13  C   UNL     1       3.663   4.248  16.545  0.00  0.00    +0.000 C 
BRANCH  13  14
ATOM     14  S   UNL     1       2.637   3.824  17.948  0.00  0.00    +0.000 S 
ATOM     15  O   UNL     1       3.369   2.852  18.740  0.00  0.00    +0.000 OA
ATOM     16  O   UNL     1       1.326   3.495  17.422  0.00  0.00    +0.000 OA
BRANCH  14  21
ATOM     17  C   UNL     1       1.135   8.703  21.197  0.00  0.00    +0.000 C 
ATOM     18  C   UNL     1       1.659   7.512  20.445  0.00  0.00    +0.000 A 
ATOM     19  C   UNL     1       2.211   7.654  19.165  0.00  0.00    +0.000 A 
ATOM     20  C   UNL     1       2.596   6.531  18.423  0.00  0.00    +0.000 A 
ATOM     21  C   UNL     1       2.437   5.259  18.973  0.00  0.00    +0.000 A 
ATOM     22  C   UNL     1       1.925   5.107  20.271  0.00  0.00    +0.000 A 
ATOM     23  C   UNL     1       1.542   6.233  21.003  0.00  0.00    +0.000 A 
ENDBRANCH  14  21
ENDBRANCH  13  14
ENDBRANCH   1  13
TORSDOF 3
ENDMDL
MODEL 3
REMARK VINA RESULT:      -7.6      2.743      6.861
REMARK  Name = 
REMARK  4 active torsions:
REMARK  status: ('A' for Active; 'I' for Inactive)
REMARK    1  A    between atoms: C_1  and  C_2
REMARK    2  A    between atoms: C_5  and  S_6
REMARK    3  A    between atoms: S_6  and  C_9
REMARK    4  A    between atoms: C_9  and  C_10
REMARK                            x       y       z     vdW  Elec       q    Type
REMARK                         _______ _______ _______ _____ _____    ______ ____
ROOT
ATOM      1  C   UNL     1       5.312   3.924  16.899  0.00  0.00    +0.000 C 
ATOM      2  C   UNL     1       5.745   4.722  18.162  0.00  0.00    +0.000 C 
ATOM      3  S   UNL     1       7.362   5.501  17.843  0.00  0.00    +0.000 S 
ATOM      4  C   UNL     1       7.209   5.222  16.165  0.00  0.00    +0.000 A 
ATOM      5  N   UNL     1       7.853   5.694  15.140  0.00  0.00    +0.000 NA
ATOM      6  C   UNL     1       7.302   5.013  14.079  0.00  0.00    +0.000 A 
ATOM      7  C   UNL     1       7.609   5.124  12.715  0.00  0.00    +0.000 A 
ATOM      8  C   UNL     1       6.971   4.271  11.812  0.00  0.00    +0.000 A 
ATOM      9  C   UNL     1       6.076   3.297  12.265  0.00  0.00    +0.000 A 
ATOM     10  C   UNL     1       5.731   3.184  13.622  0.00  0.00    +0.000 A 
ATOM     11  C   UNL     1       6.323   4.097  14.501  0.00  0.00    +0.000 A 
ATOM     12  N   UNL     1       6.195   4.379  15.829  0.00  0.00    +0.000 N 
ENDROOT
BRANCH   1  13
ATOM     13  C   UNL     1       3.809   4.118  16.605  0.00  0.00    +0.000 C 
BRANCH  13  14
ATOM     14  S   UNL     1       2.846   3.558  18.004  0.00  0.00    +0.000 S 
ATOM     15  O   UNL     1       3.754   2.877  18.910  0.00  0.00    +0.000 OA
ATOM     16  O   UNL     1       1.694   2.859  17.466  0.00  0.00    +0.000 OA
BRANCH  14  21
ATOM     17  C   UNL     1       1.520   8.432  21.338  0.00  0.00    +0.000 C 
ATOM     18  C   UNL     1       1.695   7.225  20.460  0.00  0.00    +0.000 A 
ATOM     19  C   UNL     1       1.408   5.939  20.936  0.00  0.00    +0.000 A 
ATOM     20  C   UNL     1       1.677   4.809  20.155  0.00  0.00    +0.000 A 
ATOM     21  C   UNL     1       2.227   4.971  18.883  0.00  0.00    +0.000 A 
ATOM     22  C   UNL     1       2.479   6.255  18.379  0.00  0.00    +0.000 A 
ATOM     23  C   UNL     1       2.209   7.377  19.166  0.00  0.00    +0.000 A 
ENDBRANCH  14  21
ENDBRANCH  13  14
ENDBRANCH   1  13
TORSDOF 3
ENDMDL
MODEL 4
REMARK VINA RESULT:      -7.3      7.080      9.350
REMARK  Name = 
REMARK  4 active torsions:
REMARK  status: ('A' for Active; 'I' for Inactive)
REMARK    1  A    between atoms: C_1  and  C_2
REMARK    2  A    between atoms: C_5  and  S_6
REMARK    3  A    between atoms: S_6  and  C_9
REMARK    4  A    between atoms: C_9  and  C_10
REMARK                            x       y       z     vdW  Elec       q    Type
REMARK                         _______ _______ _______ _____ _____    ______ ____
ROOT
ATOM      1  C   UNL     1      -1.870  12.227  20.561  0.00  0.00    +0.000 C 
ATOM      2  C   UNL     1      -2.548  12.768  21.853  0.00  0.00    +0.000 C 
ATOM      3  S   UNL     1      -4.204  13.403  21.430  0.00  0.00    +0.000 S 
ATOM      4  C   UNL     1      -4.165  12.609  19.918  0.00  0.00    +0.000 A 
ATOM      5  N   UNL     1      -5.092  12.344  19.047  0.00  0.00    +0.000 NA
ATOM      6  C   UNL     1      -4.397  11.759  18.013  0.00  0.00    +0.000 A 
ATOM      7  C   UNL     1      -4.892  11.262  16.799  0.00  0.00    +0.000 A 
ATOM      8  C   UNL     1      -3.987  10.775  15.854  0.00  0.00    +0.000 A 
ATOM      9  C   UNL     1      -2.611  10.824  16.097  0.00  0.00    +0.000 A 
ATOM     10  C   UNL     1      -2.092  11.291  17.315  0.00  0.00    +0.000 A 
ATOM     11  C   UNL     1      -3.018  11.704  18.278  0.00  0.00    +0.000 A 
ATOM     12  N   UNL     1      -2.940  12.122  19.575  0.00  0.00    +0.000 N 
ENDROOT
BRANCH   1  13
ATOM     13  C   UNL     1      -1.128  10.901  20.835  0.00  0.00    +0.000 C 
BRANCH  13  14
ATOM     14  S   UNL     1       0.599  11.078  20.402  0.00  0.00    +0.000 S 
ATOM     15  O   UNL     1       1.344  11.207  21.642  0.00  0.00    +0.000 OA
ATOM     16  O   UNL     1       0.672  12.121  19.397  0.00  0.00    +0.000 OA
BRANCH  14  21
ATOM     17  C   UNL     1       3.298   6.238  17.970  0.00  0.00    +0.000 C 
ATOM     18  C   UNL     1       2.487   7.375  18.527  0.00  0.00    +0.000 A 
ATOM     19  C   UNL     1       2.131   8.467  17.725  0.00  0.00    +0.000 A 
ATOM     20  C   UNL     1       1.472   9.574  18.274  0.00  0.00    +0.000 A 
ATOM     21  C   UNL     1       1.159   9.580  19.633  0.00  0.00    +0.000 A 
ATOM     22  C   UNL     1       1.472   8.473  20.437  0.00  0.00    +0.000 A 
ATOM     23  C   UNL     1       2.131   7.374  19.881  0.00  0.00    +0.000 A 
ENDBRANCH  14  21
ENDBRANCH  13  14
ENDBRANCH   1  13
TORSDOF 3
ENDMDL
MODEL 5
REMARK VINA RESULT:      -7.3      0.399      1.083
REMARK  Name = 
REMARK  4 active torsions:
REMARK  status: ('A' for Active; 'I' for Inactive)
REMARK    1  A    between atoms: C_1  and  C_2
REMARK    2  A    between atoms: C_5  and  S_6
REMARK    3  A    between atoms: S_6  and  C_9
REMARK    4  A    between atoms: C_9  and  C_10
REMARK                            x       y       z     vdW  Elec       q    Type
REMARK                         _______ _______ _______ _____ _____    ______ ____
ROOT
ATOM      1  C   UNL     1       4.732   5.828  17.656  0.00  0.00    +0.000 C 
ATOM      2  C   UNL     1       4.551   7.373  17.660  0.00  0.00    +0.000 C 
ATOM      3  S   UNL     1       2.781   7.761  17.859  0.00  0.00    +0.000 S 
ATOM      4  C   UNL     1       2.447   6.162  18.359  0.00  0.00    +0.000 A 
ATOM      5  N   UNL     1       1.415   5.626  18.939  0.00  0.00    +0.000 NA
ATOM      6  C   UNL     1       1.741   4.291  18.994  0.00  0.00    +0.000 A 
ATOM      7  C   UNL     1       0.995   3.230  19.528  0.00  0.00    +0.000 A 
ATOM      8  C   UNL     1       1.492   1.931  19.406  0.00  0.00    +0.000 A 
ATOM      9  C   UNL     1       2.691   1.690  18.727  0.00  0.00    +0.000 A 
ATOM     10  C   UNL     1       3.470   2.736  18.208  0.00  0.00    +0.000 A 
ATOM     11  C   UNL     1       2.992   4.035  18.406  0.00  0.00    +0.000 A 
ATOM     12  N   UNL     1       3.470   5.288  18.152  0.00  0.00    +0.000 N 
ENDROOT
BRANCH   1  13
ATOM     13  C   UNL     1       5.968   5.410  18.480  0.00  0.00    +0.000 C 
BRANCH  13  14
ATOM     14  S   UNL     1       7.398   5.308  17.410  0.00  0.00    +0.000 S 
ATOM     15  O   UNL     1       8.329   4.376  18.020  0.00  0.00    +0.000 OA
ATOM     16  O   UNL     1       7.809   6.672  17.131  0.00  0.00    +0.000 OA
BRANCH  14  21
ATOM     17  C   UNL     1       5.185   3.508  12.072  0.00  0.00    +0.000 C 
ATOM     18  C   UNL     1       5.830   3.824  13.392  0.00  0.00    +0.000 A 
ATOM     19  C   UNL     1       5.330   3.288  14.586  0.00  0.00    +0.000 A 
ATOM     20  C   UNL     1       5.863   3.671  15.822  0.00  0.00    +0.000 A 
ATOM     21  C   UNL     1       6.911   4.590  15.861  0.00  0.00    +0.000 A 
ATOM     22  C   UNL     1       7.449   5.102  14.670  0.00  0.00    +0.000 A 
ATOM     23  C   UNL     1       6.910   4.715  13.441  0.00  0.00    +0.000 A 
ENDBRANCH  14  21
ENDBRANCH  13  14
ENDBRANCH   1  13
TORSDOF 3
ENDMDL
MODEL 6
REMARK VINA RESULT:      -7.1      4.379      7.300
REMARK  Name = 
REMARK  4 active torsions:
REMARK  status: ('A' for Active; 'I' for Inactive)
REMARK    1  A    between atoms: C_1  and  C_2
REMARK    2  A    between atoms: C_5  and  S_6
REMARK    3  A    between atoms: S_6  and  C_9
REMARK    4  A    between atoms: C_9  and  C_10
REMARK                            x       y       z     vdW  Elec       q    Type
REMARK                         _______ _______ _______ _____ _____    ______ ____
ROOT
ATOM      1  C   UNL     1       2.929   7.421  18.185  0.00  0.00    +0.000 C 
ATOM      2  C   UNL     1       3.921   7.791  17.046  0.00  0.00    +0.000 C 
ATOM      3  S   UNL     1       4.975   6.348  16.686  0.00  0.00    +0.000 S 
ATOM      4  C   UNL     1       3.920   5.315  17.546  0.00  0.00    +0.000 A 
ATOM      5  N   UNL     1       3.808   4.021  17.589  0.00  0.00    +0.000 NA
ATOM      6  C   UNL     1       2.824   3.819  18.529  0.00  0.00    +0.000 A 
ATOM      7  C   UNL     1       2.283   2.608  18.981  0.00  0.00    +0.000 A 
ATOM      8  C   UNL     1       1.336   2.637  20.007  0.00  0.00    +0.000 A 
ATOM      9  C   UNL     1       0.967   3.848  20.600  0.00  0.00    +0.000 A 
ATOM     10  C   UNL     1       1.474   5.076  20.147  0.00  0.00    +0.000 A 
ATOM     11  C   UNL     1       2.364   5.033  19.069  0.00  0.00    +0.000 A 
ATOM     12  N   UNL     1       2.989   5.967  18.296  0.00  0.00    +0.000 N 
ENDROOT
BRANCH   1  13
ATOM     13  C   UNL     1       1.518   7.976  17.899  0.00  0.00    +0.000 C 
BRANCH  13  14
ATOM     14  S   UNL     1       1.309   9.547  18.729  0.00  0.00    +0.000 S 
ATOM     15  O   UNL     1       2.282  10.466  18.166  0.00  0.00    +0.000 OA
ATOM     16  O   UNL     1       1.309   9.269  20.153  0.00  0.00    +0.000 OA
BRANCH  14  21
ATOM     17  C   UNL     1      -4.449  11.245  17.961  0.00  0.00    +0.000 C 
ATOM     18  C   UNL     1      -2.981  10.930  18.035  0.00  0.00    +0.000 A 
ATOM     19  C   UNL     1      -2.408   9.961  17.200  0.00  0.00    +0.000 A 
ATOM     20  C   UNL     1      -1.066   9.591  17.347  0.00  0.00    +0.000 A 
ATOM     21  C   UNL     1      -0.291  10.204  18.331  0.00  0.00    +0.000 A 
ATOM     22  C   UNL     1      -0.842  11.205  19.146  0.00  0.00    +0.000 A 
ATOM     23  C   UNL     1      -2.182  11.566  18.992  0.00  0.00    +0.000 A 
ENDBRANCH  14  21
ENDBRANCH  13  14
ENDBRANCH   1  13
TORSDOF 3
ENDMDL
MODEL 7
REMARK VINA RESULT:      -7.1      2.891      6.810
REMARK  Name = 
REMARK  4 active torsions:
REMARK  status: ('A' for Active; 'I' for Inactive)
REMARK    1  A    between atoms: C_1  and  C_2
REMARK    2  A    between atoms: C_5  and  S_6
REMARK    3  A    between atoms: S_6  and  C_9
REMARK    4  A    between atoms: C_9  and  C_10
REMARK                            x       y       z     vdW  Elec       q    Type
REMARK                         _______ _______ _______ _____ _____    ______ ____
ROOT
ATOM      1  C   UNL     1       5.119   4.557  17.497  0.00  0.00    +0.000 C 
ATOM      2  C   UNL     1       5.653   5.434  18.665  0.00  0.00    +0.000 C 
ATOM      3  S   UNL     1       7.338   5.999  18.259  0.00  0.00    +0.000 S 
ATOM      4  C   UNL     1       7.132   5.561  16.621  0.00  0.00    +0.000 A 
ATOM      5  N   UNL     1       7.805   5.850  15.548  0.00  0.00    +0.000 NA
ATOM      6  C   UNL     1       7.170   5.123  14.569  0.00  0.00    +0.000 A 
ATOM      7  C   UNL     1       7.466   5.054  13.200  0.00  0.00    +0.000 A 
ATOM      8  C   UNL     1       6.728   4.183  12.396  0.00  0.00    +0.000 A 
ATOM      9  C   UNL     1       5.743   3.363  12.955  0.00  0.00    +0.000 A 
ATOM     10  C   UNL     1       5.409   3.433  14.317  0.00  0.00    +0.000 A 
ATOM     11  C   UNL     1       6.107   4.365  15.091  0.00  0.00    +0.000 A 
ATOM     12  N   UNL     1       6.029   4.799  16.382  0.00  0.00    +0.000 N 
ENDROOT
BRANCH   1  13
ATOM     13  C   UNL     1       3.641   4.877  17.190  0.00  0.00    +0.000 C 
BRANCH  13  14
ATOM     14  S   UNL     1       2.674   4.749  18.689  0.00  0.00    +0.000 S 
ATOM     15  O   UNL     1       3.517   4.128  19.696  0.00  0.00    +0.000 OA
ATOM     16  O   UNL     1       1.410   4.139  18.321  0.00  0.00    +0.000 OA
BRANCH  14  21
ATOM     17  C   UNL     1       0.608  10.141  20.502  0.00  0.00    +0.000 C 
ATOM     18  C   UNL     1       1.269   8.854  20.094  0.00  0.00    +0.000 A 
ATOM     19  C   UNL     1       1.800   8.693  18.808  0.00  0.00    +0.000 A 
ATOM     20  C   UNL     1       2.315   7.458  18.395  0.00  0.00    +0.000 A 
ATOM     21  C   UNL     1       2.306   6.382  19.282  0.00  0.00    +0.000 A 
ATOM     22  C   UNL     1       1.815   6.542  20.586  0.00  0.00    +0.000 A 
ATOM     23  C   UNL     1       1.302   7.777  20.989  0.00  0.00    +0.000 A 
ENDBRANCH  14  21
ENDBRANCH  13  14
ENDBRANCH   1  13
TORSDOF 3
ENDMDL
MODEL 8
REMARK VINA RESULT:      -6.9      4.274      7.209
REMARK  Name = 
REMARK  4 active torsions:
REMARK  status: ('A' for Active; 'I' for Inactive)
REMARK    1  A    between atoms: C_1  and  C_2
REMARK    2  A    between atoms: C_5  and  S_6
REMARK    3  A    between atoms: S_6  and  C_9
REMARK    4  A    between atoms: C_9  and  C_10
REMARK                            x       y       z     vdW  Elec       q    Type
REMARK                         _______ _______ _______ _____ _____    ______ ____
ROOT
ATOM      1  C   UNL     1       3.012   7.246  18.142  0.00  0.00    +0.000 C 
ATOM      2  C   UNL     1       4.096   7.725  17.134  0.00  0.00    +0.000 C 
ATOM      3  S   UNL     1       5.179   6.319  16.717  0.00  0.00    +0.000 S 
ATOM      4  C   UNL     1       4.057   5.211  17.374  0.00  0.00    +0.000 A 
ATOM      5  N   UNL     1       3.945   3.920  17.274  0.00  0.00    +0.000 NA
ATOM      6  C   UNL     1       2.885   3.629  18.102  0.00  0.00    +0.000 A 
ATOM      7  C   UNL     1       2.310   2.381  18.379  0.00  0.00    +0.000 A 
ATOM      8  C   UNL     1       1.279   2.311  19.319  0.00  0.00    +0.000 A 
ATOM      9  C   UNL     1       0.860   3.457  20.001  0.00  0.00    +0.000 A 
ATOM     10  C   UNL     1       1.400   4.722  19.721  0.00  0.00    +0.000 A 
ATOM     11  C   UNL     1       2.378   4.784  18.723  0.00  0.00    +0.000 A 
ATOM     12  N   UNL     1       3.065   5.788  18.106  0.00  0.00    +0.000 N 
ENDROOT
BRANCH   1  13
ATOM     13  C   UNL     1       1.629   7.838  17.796  0.00  0.00    +0.000 C 
BRANCH  13  14
ATOM     14  S   UNL     1       1.394   9.375  18.681  0.00  0.00    +0.000 S 
ATOM     15  O   UNL     1       2.208  10.382  18.022  0.00  0.00    +0.000 OA
ATOM     16  O   UNL     1       1.596   9.082  20.087  0.00  0.00    +0.000 OA
BRANCH  14  21
ATOM     17  C   UNL     1      -4.048  11.777  17.572  0.00  0.00    +0.000 C 
ATOM     18  C   UNL     1      -2.773  11.071  17.939  0.00  0.00    +0.000 A 
ATOM     19  C   UNL     1      -2.071  11.410  19.103  0.00  0.00    +0.000 A 
ATOM     20  C   UNL     1      -0.829  10.830  19.385  0.00  0.00    +0.000 A 
ATOM     21  C   UNL     1      -0.293   9.895  18.499  0.00  0.00    +0.000 A 
ATOM     22  C   UNL     1      -1.007   9.516  17.352  0.00  0.00    +0.000 A 
ATOM     23  C   UNL     1      -2.245  10.102  17.078  0.00  0.00    +0.000 A 
ENDBRANCH  14  21
ENDBRANCH  13  14
ENDBRANCH   1  13
TORSDOF 3
ENDMDL
MODEL 9
REMARK VINA RESULT:      -6.9      6.896      9.211
REMARK  Name = 
REMARK  4 active torsions:
REMARK  status: ('A' for Active; 'I' for Inactive)
REMARK    1  A    between atoms: C_1  and  C_2
REMARK    2  A    between atoms: C_5  and  S_6
REMARK    3  A    between atoms: S_6  and  C_9
REMARK    4  A    between atoms: C_9  and  C_10
REMARK                            x       y       z     vdW  Elec       q    Type
REMARK                         _______ _______ _______ _____ _____    ______ ____
ROOT
ATOM      1  C   UNL     1      -1.637  11.983  20.382  0.00  0.00    +0.000 C 
ATOM      2  C   UNL     1      -2.229  12.471  21.735  0.00  0.00    +0.000 C 
ATOM      3  S   UNL     1      -3.885  13.173  21.438  0.00  0.00    +0.000 S 
ATOM      4  C   UNL     1      -3.950  12.462  19.886  0.00  0.00    +0.000 A 
ATOM      5  N   UNL     1      -4.930  12.270  19.054  0.00  0.00    +0.000 NA
ATOM      6  C   UNL     1      -4.309  11.725  17.955  0.00  0.00    +0.000 A 
ATOM      7  C   UNL     1      -4.882  11.308  16.745  0.00  0.00    +0.000 A 
ATOM      8  C   UNL     1      -4.043  10.850  15.727  0.00  0.00    +0.000 A 
ATOM      9  C   UNL     1      -2.655  10.848  15.897  0.00  0.00    +0.000 A 
ATOM     10  C   UNL     1      -2.059  11.234  17.108  0.00  0.00    +0.000 A 
ATOM     11  C   UNL     1      -2.920  11.618  18.141  0.00  0.00    +0.000 A 
ATOM     12  N   UNL     1      -2.761  11.962  19.451  0.00  0.00    +0.000 N 
ENDROOT
BRANCH   1  13
ATOM     13  C   UNL     1      -0.922  10.625  20.543  0.00  0.00    +0.000 C 
BRANCH  13  14
ATOM     14  S   UNL     1       0.842  10.847  20.343  0.00  0.00    +0.000 S 
ATOM     15  O   UNL     1       1.404  11.061  21.665  0.00  0.00    +0.000 OA
ATOM     16  O   UNL     1       1.022  11.845  19.306  0.00  0.00    +0.000 OA
BRANCH  14  21
ATOM     17  C   UNL     1       2.457   5.485  18.049  0.00  0.00    +0.000 C 
ATOM     18  C   UNL     1       2.212   6.838  18.656  0.00  0.00    +0.000 A 
ATOM     19  C   UNL     1       1.968   6.979  20.029  0.00  0.00    +0.000 A 
ATOM     20  C   UNL     1       1.632   8.224  20.572  0.00  0.00    +0.000 A 
ATOM     21  C   UNL     1       1.550   9.337  19.735  0.00  0.00    +0.000 A 
ATOM     22  C   UNL     1       1.834   9.216  18.366  0.00  0.00    +0.000 A 
ATOM     23  C   UNL     1       2.167   7.969  17.833  0.00  0.00    +0.000 A 
ENDBRANCH  14  21
ENDBRANCH  13  14
ENDBRANCH   1  13
TORSDOF 3
ENDMDL
