MODEL 1
REMARK VINA RESULT:      -7.5      0.000      0.000
REMARK  Name = 
REMARK  5 active torsions:
REMARK  status: ('A' for Active; 'I' for Inactive)
REMARK    1  A    between atoms: C_1  and  O_2
REMARK    2  A    between atoms: O_2  and  C_3
REMARK    3  A    between atoms: C_3  and  C_5
REMARK    4  A    between atoms: C_8  and  C_9
REMARK    5  A    between atoms: N_11  and  C_12
REMARK                            x       y       z     vdW  Elec       q    Type
REMARK                         _______ _______ _______ _____ _____    ______ ____
ROOT
ATOM      1  C   UNL     1       2.260   7.271  18.872  0.00  0.00    +0.000 C 
ATOM      2  O   UNL     1       2.080   6.907  20.034  0.00  0.00    +0.000 OA
ATOM      3  N   UNL     1       1.443   8.325  18.297  0.00  0.00    +0.000 N 
ATOM      4  H   UNL     1       1.723   8.548  17.354  0.00  0.00    +0.000 HD
ENDROOT
BRANCH   3   5
ATOM      5  C   UNL     1       1.069   9.622  19.075  0.00  0.00    +0.000 C 
ATOM      6  C   UNL     1       1.856  10.844  18.569  0.00  0.00    +0.000 C 
ATOM      7  C   UNL     1       1.270  12.214  18.887  0.00  0.00    +0.000 C 
ATOM      8  S   UNL     1      -0.521  12.176  19.166  0.00  0.00    +0.000 S 
ATOM      9  C   UNL     1      -0.439  11.045  20.570  0.00  0.00    +0.000 A 
ATOM     10  C   UNL     1      -1.129  11.480  21.716  0.00  0.00    +0.000 A 
ATOM     11  C   UNL     1      -0.953  10.836  22.924  0.00  0.00    +0.000 A 
ATOM     12  C   UNL     1      -0.069   9.742  22.937  0.00  0.00    +0.000 A 
ATOM     13  C   UNL     1       0.609   9.277  21.770  0.00  0.00    +0.000 A 
ATOM     14  C   UNL     1       0.419   9.893  20.506  0.00  0.00    +0.000 A 
ENDBRANCH   3   5
BRANCH   1  18
ATOM     15  C   UNL     1       5.614   5.132  16.675  0.00  0.00    +0.000 A 
ATOM     16  C   UNL     1       4.696   4.461  17.490  0.00  0.00    +0.000 A 
ATOM     17  C   UNL     1       3.643   5.159  18.170  0.00  0.00    +0.000 A 
ATOM     18  C   UNL     1       3.447   6.578  18.076  0.00  0.00    +0.000 A 
ATOM     19  C   UNL     1       4.391   7.223  17.267  0.00  0.00    +0.000 A 
ATOM     20  C   UNL     1       5.450   6.527  16.586  0.00  0.00    +0.000 A 
BRANCH  15  21
ATOM     21  C   UNL     1       6.705   4.341  15.950  0.00  0.00    +0.000 C 
ATOM     22  O   UNL     1       7.907   4.481  16.216  0.00  0.00    +0.000 OA
BRANCH  21  24
ATOM     23  C   UNL     1       5.940   4.054  13.719  0.00  0.00    +0.000 C 
ATOM     24  O   UNL     1       6.215   3.490  15.014  0.00  0.00    +0.000 OA
ENDBRANCH  21  24
ENDBRANCH  15  21
ENDBRANCH   1  18
TORSDOF 4
ENDMDL
MODEL 2
REMARK VINA RESULT:      -7.3      0.526      1.516
REMARK  Name = 
REMARK  5 active torsions:
REMARK  status: ('A' for Active; 'I' for Inactive)
REMARK    1  A    between atoms: C_1  and  O_2
REMARK    2  A    between atoms: O_2  and  C_3
REMARK    3  A    between atoms: C_3  and  C_5
REMARK    4  A    between atoms: C_8  and  C_9
REMARK    5  A    between atoms: N_11  and  C_12
REMARK                            x       y       z     vdW  Elec       q    Type
REMARK                         _______ _______ _______ _____ _____    ______ ____
ROOT
ATOM      1  C   UNL     1       2.219   7.082  18.760  0.00  0.00    +0.000 C 
ATOM      2  O   UNL     1       2.104   6.761  19.943  0.00  0.00    +0.000 OA
ATOM      3  N   UNL     1       1.393   8.138  18.201  0.00  0.00    +0.000 N 
ATOM      4  H   UNL     1       1.618   8.321  17.235  0.00  0.00    +0.000 HD
ENDROOT
BRANCH   3   5
ATOM      5  C   UNL     1       1.102   9.470  18.955  0.00  0.00    +0.000 C 
ATOM      6  C   UNL     1       1.966  10.630  18.429  0.00  0.00    +0.000 C 
ATOM      7  C   UNL     1       1.469  12.040  18.721  0.00  0.00    +0.000 C 
ATOM      8  S   UNL     1      -0.321  12.122  18.997  0.00  0.00    +0.000 S 
ATOM      9  C   UNL     1      -0.314  11.012  20.421  0.00  0.00    +0.000 A 
ATOM     10  C   UNL     1      -0.976  11.511  21.557  0.00  0.00    +0.000 A 
ATOM     11  C   UNL     1      -0.843  10.879  22.777  0.00  0.00    +0.000 A 
ATOM     12  C   UNL     1      -0.030   9.731  22.812  0.00  0.00    +0.000 A 
ATOM     13  C   UNL     1       0.618   9.203  21.654  0.00  0.00    +0.000 A 
ATOM     14  C   UNL     1       0.469   9.807  20.379  0.00  0.00    +0.000 A 
ENDBRANCH   3   5
BRANCH   1  18
ATOM     15  C   UNL     1       5.472   5.095  16.287  0.00  0.00    +0.000 A 
ATOM     16  C   UNL     1       5.372   6.483  16.429  0.00  0.00    +0.000 A 
ATOM     17  C   UNL     1       4.337   7.086  17.219  0.00  0.00    +0.000 A 
ATOM     18  C   UNL     1       3.335   6.331  17.916  0.00  0.00    +0.000 A 
ATOM     19  C   UNL     1       3.452   4.946  17.741  0.00  0.00    +0.000 A 
ATOM     20  C   UNL     1       4.486   4.338  16.947  0.00  0.00    +0.000 A 
BRANCH  15  21
ATOM     21  C   UNL     1       6.608   4.497  15.454  0.00  0.00    +0.000 C 
ATOM     22  O   UNL     1       6.423   4.047  14.314  0.00  0.00    +0.000 OA
BRANCH  21  24
ATOM     23  C   UNL     1       7.770   4.493  17.527  0.00  0.00    +0.000 C 
ATOM     24  O   UNL     1       7.806   4.521  16.089  0.00  0.00    +0.000 OA
ENDBRANCH  21  24
ENDBRANCH  15  21
ENDBRANCH   1  18
TORSDOF 4
ENDMDL
MODEL 3
REMARK VINA RESULT:      -7.2      4.250      9.262
REMARK  Name = 
REMARK  5 active torsions:
REMARK  status: ('A' for Active; 'I' for Inactive)
REMARK    1  A    between atoms: C_1  and  O_2
REMARK    2  A    between atoms: O_2  and  C_3
REMARK    3  A    between atoms: C_3  and  C_5
REMARK    4  A    between atoms: C_8  and  C_9
REMARK    5  A    between atoms: N_11  and  C_12
REMARK                            x       y       z     vdW  Elec       q    Type
REMARK                         _______ _______ _______ _____ _____    ______ ____
ROOT
ATOM      1  C   UNL     1       0.345   8.525  21.571  0.00  0.00    +0.000 C 
ATOM      2  O   UNL     1      -0.606   7.749  21.474  0.00  0.00    +0.000 OA
ATOM      3  N   UNL     1       1.706   8.040  21.425  0.00  0.00    +0.000 N 
ATOM      4  H   UNL     1       2.382   8.786  21.490  0.00  0.00    +0.000 HD
ENDROOT
BRANCH   3   5
ATOM      5  C   UNL     1       2.125   7.019  20.325  0.00  0.00    +0.000 C 
ATOM      6  C   UNL     1       2.265   7.686  18.945  0.00  0.00    +0.000 C 
ATOM      7  C   UNL     1       3.106   6.948  17.910  0.00  0.00    +0.000 C 
ATOM      8  S   UNL     1       4.326   5.830  18.650  0.00  0.00    +0.000 S 
ATOM      9  C   UNL     1       3.108   4.807  19.504  0.00  0.00    +0.000 A 
ATOM     10  C   UNL     1       3.239   3.425  19.278  0.00  0.00    +0.000 A 
ATOM     11  C   UNL     1       2.242   2.555  19.669  0.00  0.00    +0.000 A 
ATOM     12  C   UNL     1       1.117   3.120  20.298  0.00  0.00    +0.000 A 
ATOM     13  C   UNL     1       0.994   4.518  20.558  0.00  0.00    +0.000 A 
ATOM     14  C   UNL     1       2.018   5.433  20.203  0.00  0.00    +0.000 A 
ENDBRANCH   3   5
BRANCH   1  18
ATOM     15  C   UNL     1      -0.753  12.864  22.355  0.00  0.00    +0.000 A 
ATOM     16  C   UNL     1      -1.277  11.805  23.103  0.00  0.00    +0.000 A 
ATOM     17  C   UNL     1      -0.911  10.443  22.839  0.00  0.00    +0.000 A 
ATOM     18  C   UNL     1       0.004  10.059  21.801  0.00  0.00    +0.000 A 
ATOM     19  C   UNL     1       0.497  11.139  21.059  0.00  0.00    +0.000 A 
ATOM     20  C   UNL     1       0.130  12.506  21.320  0.00  0.00    +0.000 A 
BRANCH  15  21
ATOM     21  C   UNL     1      -1.154  14.301  22.691  0.00  0.00    +0.000 C 
ATOM     22  O   UNL     1      -2.022  14.911  22.049  0.00  0.00    +0.000 OA
BRANCH  21  24
ATOM     23  C   UNL     1      -1.262  15.411  24.789  0.00  0.00    +0.000 C 
ATOM     24  O   UNL     1      -0.472  14.814  23.745  0.00  0.00    +0.000 OA
ENDBRANCH  21  24
ENDBRANCH  15  21
ENDBRANCH   1  18
TORSDOF 4
ENDMDL
MODEL 4
REMARK VINA RESULT:      -7.2      2.878      3.872
REMARK  Name = 
REMARK  5 active torsions:
REMARK  status: ('A' for Active; 'I' for Inactive)
REMARK    1  A    between atoms: C_1  and  O_2
REMARK    2  A    between atoms: O_2  and  C_3
REMARK    3  A    between atoms: C_3  and  C_5
REMARK    4  A    between atoms: C_8  and  C_9
REMARK    5  A    between atoms: N_11  and  C_12
REMARK                            x       y       z     vdW  Elec       q    Type
REMARK                         _______ _______ _______ _____ _____    ______ ____
ROOT
ATOM      1  C   UNL     1       1.956   8.025  20.000  0.00  0.00    +0.000 C 
ATOM      2  O   UNL     1       1.860   8.591  18.911  0.00  0.00    +0.000 OA
ATOM      3  N   UNL     1       1.622   8.728  21.226  0.00  0.00    +0.000 N 
ATOM      4  H   UNL     1       1.710   8.135  22.037  0.00  0.00    +0.000 HD
ENDROOT
BRANCH   3   5
ATOM      5  C   UNL     1       0.371   9.647  21.356  0.00  0.00    +0.000 C 
ATOM      6  C   UNL     1      -0.320   9.489  22.722  0.00  0.00    +0.000 C 
ATOM      7  C   UNL     1      -1.230  10.628  23.165  0.00  0.00    +0.000 C 
ATOM      8  S   UNL     1      -0.815  12.214  22.390  0.00  0.00    +0.000 S 
ATOM      9  C   UNL     1      -1.087  11.641  20.700  0.00  0.00    +0.000 A 
ATOM     10  C   UNL     1      -1.936  12.459  19.933  0.00  0.00    +0.000 A 
ATOM     11  C   UNL     1      -2.418  12.020  18.716  0.00  0.00    +0.000 A 
ATOM     12  C   UNL     1      -2.012  10.739  18.298  0.00  0.00    +0.000 A 
ATOM     13  C   UNL     1      -1.125   9.918  19.059  0.00  0.00    +0.000 A 
ATOM     14  C   UNL     1      -0.583  10.358  20.294  0.00  0.00    +0.000 A 
ENDBRANCH   3   5
BRANCH   1  18
ATOM     15  C   UNL     1       3.361   3.707  19.829  0.00  0.00    +0.000 A 
ATOM     16  C   UNL     1       4.020   4.743  19.159  0.00  0.00    +0.000 A 
ATOM     17  C   UNL     1       3.558   6.099  19.232  0.00  0.00    +0.000 A 
ATOM     18  C   UNL     1       2.402   6.501  19.982  0.00  0.00    +0.000 A 
ATOM     19  C   UNL     1       1.756   5.439  20.628  0.00  0.00    +0.000 A 
ATOM     20  C   UNL     1       2.214   4.077  20.555  0.00  0.00    +0.000 A 
BRANCH  15  21
ATOM     21  C   UNL     1       3.905   2.280  19.742  0.00  0.00    +0.000 C 
ATOM     22  O   UNL     1       4.914   1.919  20.365  0.00  0.00    +0.000 OA
BRANCH  21  24
ATOM     23  C   UNL     1       2.832   2.012  17.638  0.00  0.00    +0.000 C 
ATOM     24  O   UNL     1       3.172   1.477  18.930  0.00  0.00    +0.000 OA
ENDBRANCH  21  24
ENDBRANCH  15  21
ENDBRANCH   1  18
TORSDOF 4
ENDMDL
MODEL 5
REMARK VINA RESULT:      -7.2      5.799      8.016
REMARK  Name = 
REMARK  5 active torsions:
REMARK  status: ('A' for Active; 'I' for Inactive)
REMARK    1  A    between atoms: C_1  and  O_2
REMARK    2  A    between atoms: O_2  and  C_3
REMARK    3  A    between atoms: C_3  and  C_5
REMARK    4  A    between atoms: C_8  and  C_9
REMARK    5  A    between atoms: N_11  and  C_12
REMARK                            x       y       z     vdW  Elec       q    Type
REMARK                         _______ _______ _______ _____ _____    ______ ____
ROOT
ATOM      1  C   UNL     1       8.073   8.012  17.988  0.00  0.00    +0.000 C 
ATOM      2  O   UNL     1       8.415   7.185  18.833  0.00  0.00    +0.000 OA
ATOM      3  N   UNL     1       7.279   7.606  16.842  0.00  0.00    +0.000 N 
ATOM      4  H   UNL     1       7.039   8.389  16.252  0.00  0.00    +0.000 HD
ENDROOT
BRANCH   3   5
ATOM      5  C   UNL     1       6.077   6.620  16.954  0.00  0.00    +0.000 C 
ATOM      6  C   UNL     1       6.169   5.479  15.926  0.00  0.00    +0.000 C 
ATOM      7  C   UNL     1       5.361   4.223  16.224  0.00  0.00    +0.000 C 
ATOM      8  S   UNL     1       5.011   4.002  17.989  0.00  0.00    +0.000 S 
ATOM      9  C   UNL     1       4.097   5.549  18.165  0.00  0.00    +0.000 A 
ATOM     10  C   UNL     1       2.834   5.419  18.770  0.00  0.00    +0.000 A 
ATOM     11  C   UNL     1       1.938   6.469  18.750  0.00  0.00    +0.000 A 
ATOM     12  C   UNL     1       2.358   7.649  18.108  0.00  0.00    +0.000 A 
ATOM     13  C   UNL     1       3.651   7.796  17.521  0.00  0.00    +0.000 A 
ATOM     14  C   UNL     1       4.607   6.749  17.559  0.00  0.00    +0.000 A 
ENDBRANCH   3   5
BRANCH   1  18
ATOM     15  C   UNL     1       9.348  12.280  18.885  0.00  0.00    +0.000 A 
ATOM     16  C   UNL     1       9.728  11.195  19.681  0.00  0.00    +0.000 A 
ATOM     17  C   UNL     1       9.315   9.855  19.374  0.00  0.00    +0.000 A 
ATOM     18  C   UNL     1       8.491   9.522  18.247  0.00  0.00    +0.000 A 
ATOM     19  C   UNL     1       8.114  10.631  17.479  0.00  0.00    +0.000 A 
ATOM     20  C   UNL     1       8.523  11.976  17.786  0.00  0.00    +0.000 A 
BRANCH  15  21
ATOM     21  C   UNL     1       9.833  13.687  19.238  0.00  0.00    +0.000 C 
ATOM     22  O   UNL     1       9.117  14.500  19.841  0.00  0.00    +0.000 OA
BRANCH  21  24
ATOM     23  C   UNL     1      11.256  14.493  17.514  0.00  0.00    +0.000 C 
ATOM     24  O   UNL     1      11.103  13.933  18.830  0.00  0.00    +0.000 OA
ENDBRANCH  21  24
ENDBRANCH  15  21
ENDBRANCH   1  18
TORSDOF 4
ENDMDL
MODEL 6
REMARK VINA RESULT:      -7.1      4.199      9.062
REMARK  Name = 
REMARK  5 active torsions:
REMARK  status: ('A' for Active; 'I' for Inactive)
REMARK    1  A    between atoms: C_1  and  O_2
REMARK    2  A    between atoms: O_2  and  C_3
REMARK    3  A    between atoms: C_3  and  C_5
REMARK    4  A    between atoms: C_8  and  C_9
REMARK    5  A    between atoms: N_11  and  C_12
REMARK                            x       y       z     vdW  Elec       q    Type
REMARK                         _______ _______ _______ _____ _____    ______ ____
ROOT
ATOM      1  C   UNL     1       0.465   8.423  21.521  0.00  0.00    +0.000 C 
ATOM      2  O   UNL     1      -0.493   7.653  21.463  0.00  0.00    +0.000 OA
ATOM      3  N   UNL     1       1.818   7.927  21.340  0.00  0.00    +0.000 N 
ATOM      4  H   UNL     1       2.500   8.670  21.375  0.00  0.00    +0.000 HD
ENDROOT
BRANCH   3   5
ATOM      5  C   UNL     1       2.196   6.892  20.238  0.00  0.00    +0.000 C 
ATOM      6  C   UNL     1       2.359   7.554  18.858  0.00  0.00    +0.000 C 
ATOM      7  C   UNL     1       3.170   6.785  17.822  0.00  0.00    +0.000 C 
ATOM      8  S   UNL     1       4.348   5.622  18.559  0.00  0.00    +0.000 S 
ATOM      9  C   UNL     1       3.093   4.645  19.415  0.00  0.00    +0.000 A 
ATOM     10  C   UNL     1       3.172   3.259  19.188  0.00  0.00    +0.000 A 
ATOM     11  C   UNL     1       2.144   2.427  19.580  0.00  0.00    +0.000 A 
ATOM     12  C   UNL     1       1.042   3.034  20.211  0.00  0.00    +0.000 A 
ATOM     13  C   UNL     1       0.972   4.436  20.472  0.00  0.00    +0.000 A 
ATOM     14  C   UNL     1       2.029   5.311  20.115  0.00  0.00    +0.000 A 
ENDBRANCH   3   5
BRANCH   1  18
ATOM     15  C   UNL     1      -0.587  12.777  22.286  0.00  0.00    +0.000 A 
ATOM     16  C   UNL     1      -1.133  11.726  23.030  0.00  0.00    +0.000 A 
ATOM     17  C   UNL     1      -0.781  10.359  22.771  0.00  0.00    +0.000 A 
ATOM     18  C   UNL     1       0.141   9.962  21.745  0.00  0.00    +0.000 A 
ATOM     19  C   UNL     1       0.657  11.035  21.008  0.00  0.00    +0.000 A 
ATOM     20  C   UNL     1       0.304  12.406  21.262  0.00  0.00    +0.000 A 
BRANCH  15  21
ATOM     21  C   UNL     1      -0.974  14.220  22.614  0.00  0.00    +0.000 C 
ATOM     22  O   UNL     1      -0.706  14.742  23.706  0.00  0.00    +0.000 OA
BRANCH  21  24
ATOM     23  C   UNL     1      -3.015  14.534  21.439  0.00  0.00    +0.000 C 
ATOM     24  O   UNL     1      -1.620  14.845  21.599  0.00  0.00    +0.000 OA
ENDBRANCH  21  24
ENDBRANCH  15  21
ENDBRANCH   1  18
TORSDOF 4
ENDMDL
MODEL 7
REMARK VINA RESULT:      -7.1      5.763      8.000
REMARK  Name = 
REMARK  5 active torsions:
REMARK  status: ('A' for Active; 'I' for Inactive)
REMARK    1  A    between atoms: C_1  and  O_2
REMARK    2  A    between atoms: O_2  and  C_3
REMARK    3  A    between atoms: C_3  and  C_5
REMARK    4  A    between atoms: C_8  and  C_9
REMARK    5  A    between atoms: N_11  and  C_12
REMARK                            x       y       z     vdW  Elec       q    Type
REMARK                         _______ _______ _______ _____ _____    ______ ____
ROOT
ATOM      1  C   UNL     1       8.073   7.970  18.014  0.00  0.00    +0.000 C 
ATOM      2  O   UNL     1       8.407   7.100  18.819  0.00  0.00    +0.000 OA
ATOM      3  N   UNL     1       7.270   7.629  16.853  0.00  0.00    +0.000 N 
ATOM      4  H   UNL     1       7.039   8.441  16.302  0.00  0.00    +0.000 HD
ENDROOT
BRANCH   3   5
ATOM      5  C   UNL     1       6.054   6.656  16.926  0.00  0.00    +0.000 C 
ATOM      6  C   UNL     1       6.143   5.544  15.866  0.00  0.00    +0.000 C 
ATOM      7  C   UNL     1       5.315   4.290  16.120  0.00  0.00    +0.000 C 
ATOM      8  S   UNL     1       4.944   4.024  17.874  0.00  0.00    +0.000 S 
ATOM      9  C   UNL     1       4.048   5.577  18.085  0.00  0.00    +0.000 A 
ATOM     10  C   UNL     1       2.777   5.447  18.673  0.00  0.00    +0.000 A 
ATOM     11  C   UNL     1       1.895   6.508  18.674  0.00  0.00    +0.000 A 
ATOM     12  C   UNL     1       2.337   7.700  18.071  0.00  0.00    +0.000 A 
ATOM     13  C   UNL     1       3.638   7.847  17.501  0.00  0.00    +0.000 A 
ATOM     14  C   UNL     1       4.580   6.787  17.519  0.00  0.00    +0.000 A 
ENDBRANCH   3   5
BRANCH   1  18
ATOM     15  C   UNL     1       9.256  12.288  18.794  0.00  0.00    +0.000 A 
ATOM     16  C   UNL     1       8.450  11.908  17.715  0.00  0.00    +0.000 A 
ATOM     17  C   UNL     1       8.087  10.538  17.493  0.00  0.00    +0.000 A 
ATOM     18  C   UNL     1       8.514   9.461  18.341  0.00  0.00    +0.000 A 
ATOM     19  C   UNL     1       9.332   9.871  19.401  0.00  0.00    +0.000 A 
ATOM     20  C   UNL     1       9.701  11.243  19.625  0.00  0.00    +0.000 A 
BRANCH  15  21
ATOM     21  C   UNL     1       9.596  13.765  19.004  0.00  0.00    +0.000 C 
ATOM     22  O   UNL     1       9.257  14.381  20.025  0.00  0.00    +0.000 OA
BRANCH  21  24
ATOM     23  C   UNL     1      11.706  14.025  17.943  0.00  0.00    +0.000 C 
ATOM     24  O   UNL     1      10.295  14.304  17.974  0.00  0.00    +0.000 OA
ENDBRANCH  21  24
ENDBRANCH  15  21
ENDBRANCH   1  18
TORSDOF 4
ENDMDL
MODEL 8
REMARK VINA RESULT:      -7.1      5.619      7.992
REMARK  Name = 
REMARK  5 active torsions:
REMARK  status: ('A' for Active; 'I' for Inactive)
REMARK    1  A    between atoms: C_1  and  O_2
REMARK    2  A    between atoms: O_2  and  C_3
REMARK    3  A    between atoms: C_3  and  C_5
REMARK    4  A    between atoms: C_8  and  C_9
REMARK    5  A    between atoms: N_11  and  C_12
REMARK                            x       y       z     vdW  Elec       q    Type
REMARK                         _______ _______ _______ _____ _____    ______ ____
ROOT
ATOM      1  C   UNL     1       8.054   7.975  17.982  0.00  0.00    +0.000 C 
ATOM      2  O   UNL     1       8.395   7.131  18.811  0.00  0.00    +0.000 OA
ATOM      3  N   UNL     1       7.243   7.596  16.839  0.00  0.00    +0.000 N 
ATOM      4  H   UNL     1       7.007   8.390  16.263  0.00  0.00    +0.000 HD
ENDROOT
BRANCH   3   5
ATOM      5  C   UNL     1       6.031   6.624  16.950  0.00  0.00    +0.000 C 
ATOM      6  C   UNL     1       6.104   5.490  15.912  0.00  0.00    +0.000 C 
ATOM      7  C   UNL     1       5.282   4.240  16.204  0.00  0.00    +0.000 C 
ATOM      8  S   UNL     1       4.939   4.010  17.970  0.00  0.00    +0.000 S 
ATOM      9  C   UNL     1       4.044   5.566  18.162  0.00  0.00    +0.000 A 
ATOM     10  C   UNL     1       2.783   5.447  18.773  0.00  0.00    +0.000 A 
ATOM     11  C   UNL     1       1.899   6.507  18.765  0.00  0.00    +0.000 A 
ATOM     12  C   UNL     1       2.329   7.687  18.131  0.00  0.00    +0.000 A 
ATOM     13  C   UNL     1       3.621   7.823  17.538  0.00  0.00    +0.000 A 
ATOM     14  C   UNL     1       4.565   6.765  17.563  0.00  0.00    +0.000 A 
ENDBRANCH   3   5
BRANCH   1  18
ATOM     15  C   UNL     1       9.386  12.214  18.932  0.00  0.00    +0.000 A 
ATOM     16  C   UNL     1       9.723  11.119  19.734  0.00  0.00    +0.000 A 
ATOM     17  C   UNL     1       9.293   9.789  19.410  0.00  0.00    +0.000 A 
ATOM     18  C   UNL     1       8.494   9.475  18.259  0.00  0.00    +0.000 A 
ATOM     19  C   UNL     1       8.160  10.595  17.487  0.00  0.00    +0.000 A 
ATOM     20  C   UNL     1       8.586  11.930  17.810  0.00  0.00    +0.000 A 
BRANCH  15  21
ATOM     21  C   UNL     1       9.888  13.610  19.305  0.00  0.00    +0.000 C 
ATOM     22  O   UNL     1      11.095  13.869  19.418  0.00  0.00    +0.000 OA
BRANCH  21  24
ATOM     23  C   UNL     1       8.066  14.325  20.653  0.00  0.00    +0.000 C 
ATOM     24  O   UNL     1       8.887  14.508  19.485  0.00  0.00    +0.000 OA
ENDBRANCH  21  24
ENDBRANCH  15  21
ENDBRANCH   1  18
TORSDOF 4
ENDMDL
MODEL 9
REMARK VINA RESULT:      -7.1      0.584      1.105
REMARK  Name = 
REMARK  5 active torsions:
REMARK  status: ('A' for Active; 'I' for Inactive)
REMARK    1  A    between atoms: C_1  and  O_2
REMARK    2  A    between atoms: O_2  and  C_3
REMARK    3  A    between atoms: C_3  and  C_5
REMARK    4  A    between atoms: C_8  and  C_9
REMARK    5  A    between atoms: N_11  and  C_12
REMARK                            x       y       z     vdW  Elec       q    Type
REMARK                         _______ _______ _______ _____ _____    ______ ____
ROOT
ATOM      1  C   UNL     1       2.072   7.561  19.117  0.00  0.00    +0.000 C 
ATOM      2  O   UNL     1       1.931   7.263  20.303  0.00  0.00    +0.000 OA
ATOM      3  N   UNL     1       1.216   8.562  18.504  0.00  0.00    +0.000 N 
ATOM      4  H   UNL     1       1.466   8.734  17.542  0.00  0.00    +0.000 HD
ENDROOT
BRANCH   3   5
ATOM      5  C   UNL     1       0.836   9.896  19.215  0.00  0.00    +0.000 C 
ATOM      6  C   UNL     1       1.675  11.080  18.703  0.00  0.00    +0.000 C 
ATOM      7  C   UNL     1       1.107  12.474  18.941  0.00  0.00    +0.000 C 
ATOM      8  S   UNL     1      -0.695  12.486  19.132  0.00  0.00    +0.000 S 
ATOM      9  C   UNL     1      -0.709  11.407  20.579  0.00  0.00    +0.000 A 
ATOM     10  C   UNL     1      -1.443  11.900  21.673  0.00  0.00    +0.000 A 
ATOM     11  C   UNL     1      -1.341  11.299  22.911  0.00  0.00    +0.000 A 
ATOM     12  C   UNL     1      -0.485  10.187  23.009  0.00  0.00    +0.000 A 
ATOM     13  C   UNL     1       0.238   9.664  21.894  0.00  0.00    +0.000 A 
ATOM     14  C   UNL     1       0.124  10.236  20.601  0.00  0.00    +0.000 A 
ENDBRANCH   3   5
BRANCH   1  18
ATOM     15  C   UNL     1       5.431   5.641  16.735  0.00  0.00    +0.000 A 
ATOM     16  C   UNL     1       4.830   6.846  16.358  0.00  0.00    +0.000 A 
ATOM     17  C   UNL     1       3.773   7.434  17.130  0.00  0.00    +0.000 A 
ATOM     18  C   UNL     1       3.251   6.846  18.330  0.00  0.00    +0.000 A 
ATOM     19  C   UNL     1       3.861   5.632  18.672  0.00  0.00    +0.000 A 
ATOM     20  C   UNL     1       4.918   5.038  17.899  0.00  0.00    +0.000 A 
BRANCH  15  21
ATOM     21  C   UNL     1       6.571   5.065  15.893  0.00  0.00    +0.000 C 
ATOM     22  O   UNL     1       7.658   5.648  15.767  0.00  0.00    +0.000 OA
BRANCH  21  24
ATOM     23  C   UNL     1       6.204   3.851  13.883  0.00  0.00    +0.000 C 
ATOM     24  O   UNL     1       6.264   3.874  15.321  0.00  0.00    +0.000 OA
ENDBRANCH  21  24
ENDBRANCH  15  21
ENDBRANCH   1  18
TORSDOF 4
ENDMDL
