MODEL 1
REMARK VINA RESULT:      -7.9      0.000      0.000
REMARK  Name = 
REMARK  6 active torsions:
REMARK  status: ('A' for Active; 'I' for Inactive)
REMARK    1  A    between atoms: C_1  and  C_2
REMARK    2  A    between atoms: C_2  and  C_3
REMARK    3  A    between atoms: C_5  and  C_6
REMARK    4  A    between atoms: C_6  and  N_7
REMARK    5  A    between atoms: N_18  and  C_19
REMARK    6  A    between atoms: C_21  and  C_22
REMARK                            x       y       z     vdW  Elec       q    Type
REMARK                         _______ _______ _______ _____ _____    ______ ____
ROOT
ATOM      1  N   UNL     1       1.612   8.763  19.555  0.00  0.00    +0.000 N 
ATOM      2  C   UNL     1       2.208   8.218  18.456  0.00  0.00    +0.000 C 
ATOM      3  O   UNL     1       2.289   8.872  17.416  0.00  0.00    +0.000 OA
ATOM      4  N   UNL     1       2.730   6.942  18.596  0.00  0.00    +0.000 N 
ATOM      5  C   UNL     1       3.477   6.472  17.426  0.00  0.00    +0.000 C 
ATOM      6  C   UNL     1       4.939   6.275  17.730  0.00  0.00    +0.000 A 
ATOM      7  C   UNL     1       5.901   7.165  17.228  0.00  0.00    +0.000 A 
ATOM      8  C   UNL     1       7.255   6.928  17.453  0.00  0.00    +0.000 A 
ATOM      9  C   UNL     1       7.651   5.802  18.166  0.00  0.00    +0.000 A 
ATOM     10  C   UNL     1       6.694   4.918  18.679  0.00  0.00    +0.000 A 
ATOM     11  C   UNL     1       5.328   5.160  18.488  0.00  0.00    +0.000 A 
ATOM     12  N   UNL     1       4.349   4.369  19.055  0.00  0.00    +0.000 N 
ATOM     13  C   UNL     1       4.292   2.946  18.802  0.00  0.00    +0.000 C 
ATOM     14  C   UNL     1       3.523   4.995  20.093  0.00  0.00    +0.000 C 
ATOM     15  C   UNL     1       2.327   5.844  19.544  0.00  0.00    +0.000 C 
ATOM     16  C   UNL     1       1.461   6.227  20.752  0.00  0.00    +0.000 C 
ATOM     17  H   UNL     1       2.120   8.575  20.404  0.00  0.00    +0.000 HD
ENDROOT
BRANCH   1  18
ATOM     18  C   UNL     1       1.092  10.110  19.454  0.00  0.00    +0.000 C 
BRANCH  18  21
ATOM     19  C   UNL     1      -0.829  11.134  22.409  0.00  0.00    +0.000 A 
ATOM     20  C   UNL     1      -0.743  11.183  20.998  0.00  0.00    +0.000 A 
ATOM     21  C   UNL     1       0.382  10.455  20.701  0.00  0.00    +0.000 A 
ATOM     22  O   UNL     1       0.930   9.987  21.856  0.00  0.00    +0.000 OA
ATOM     23  N   UNL     1       0.169  10.410  22.930  0.00  0.00    +0.000 NA
BRANCH  19  25
ATOM     24  C   UNL     1      -2.965  12.428  22.508  0.00  0.00    +0.000 C 
ATOM     25  C   UNL     1      -1.843  11.766  23.294  0.00  0.00    +0.000 C 
ENDBRANCH  19  25
ENDBRANCH  18  21
ENDBRANCH   1  18
TORSDOF 3
ENDMDL
MODEL 2
REMARK VINA RESULT:      -7.7      2.751      4.469
REMARK  Name = 
REMARK  6 active torsions:
REMARK  status: ('A' for Active; 'I' for Inactive)
REMARK    1  A    between atoms: C_1  and  C_2
REMARK    2  A    between atoms: C_2  and  C_3
REMARK    3  A    between atoms: C_5  and  C_6
REMARK    4  A    between atoms: C_6  and  N_7
REMARK    5  A    between atoms: N_18  and  C_19
REMARK    6  A    between atoms: C_21  and  C_22
REMARK                            x       y       z     vdW  Elec       q    Type
REMARK                         _______ _______ _______ _____ _____    ______ ____
ROOT
ATOM      1  N   UNL     1       1.151   8.996  19.444  0.00  0.00    +0.000 N 
ATOM      2  C   UNL     1       1.571   7.938  20.197  0.00  0.00    +0.000 C 
ATOM      3  O   UNL     1       1.186   7.824  21.360  0.00  0.00    +0.000 OA
ATOM      4  N   UNL     1       2.396   7.017  19.572  0.00  0.00    +0.000 N 
ATOM      5  C   UNL     1       2.695   5.836  20.389  0.00  0.00    +0.000 C 
ATOM      6  C   UNL     1       2.121   4.577  19.795  0.00  0.00    +0.000 A 
ATOM      7  C   UNL     1       1.011   3.949  20.382  0.00  0.00    +0.000 A 
ATOM      8  C   UNL     1       0.538   2.745  19.866  0.00  0.00    +0.000 A 
ATOM      9  C   UNL     1       1.174   2.160  18.777  0.00  0.00    +0.000 A 
ATOM     10  C   UNL     1       2.274   2.789  18.181  0.00  0.00    +0.000 A 
ATOM     11  C   UNL     1       2.742   4.016  18.668  0.00  0.00    +0.000 A 
ATOM     12  N   UNL     1       3.761   4.717  18.055  0.00  0.00    +0.000 N 
ATOM     13  C   UNL     1       5.064   4.124  17.850  0.00  0.00    +0.000 C 
ATOM     14  C   UNL     1       3.392   5.989  17.425  0.00  0.00    +0.000 C 
ATOM     15  C   UNL     1       3.332   7.205  18.409  0.00  0.00    +0.000 C 
ATOM     16  C   UNL     1       3.156   8.466  17.550  0.00  0.00    +0.000 C 
ATOM     17  H   UNL     1       0.901   8.729  18.506  0.00  0.00    +0.000 HD
ENDROOT
BRANCH   1  18
ATOM     18  C   UNL     1       0.256   9.956  20.053  0.00  0.00    +0.000 C 
BRANCH  18  21
ATOM     19  C   UNL     1      -1.975  11.094  17.370  0.00  0.00    +0.000 A 
ATOM     20  C   UNL     1      -1.355   9.978  17.977  0.00  0.00    +0.000 A 
ATOM     21  C   UNL     1      -0.641  10.512  19.021  0.00  0.00    +0.000 A 
ATOM     22  O   UNL     1      -0.830  11.859  19.049  0.00  0.00    +0.000 OA
ATOM     23  N   UNL     1      -1.670  12.227  18.014  0.00  0.00    +0.000 NA
BRANCH  19  25
ATOM     24  C   UNL     1      -2.947   9.768  15.489  0.00  0.00    +0.000 C 
ATOM     25  C   UNL     1      -2.860  11.122  16.176  0.00  0.00    +0.000 C 
ENDBRANCH  19  25
ENDBRANCH  18  21
ENDBRANCH   1  18
TORSDOF 3
ENDMDL
MODEL 3
REMARK VINA RESULT:      -7.5      2.153      2.557
REMARK  Name = 
REMARK  6 active torsions:
REMARK  status: ('A' for Active; 'I' for Inactive)
REMARK    1  A    between atoms: C_1  and  C_2
REMARK    2  A    between atoms: C_2  and  C_3
REMARK    3  A    between atoms: C_5  and  C_6
REMARK    4  A    between atoms: C_6  and  N_7
REMARK    5  A    between atoms: N_18  and  C_19
REMARK    6  A    between atoms: C_21  and  C_22
REMARK                            x       y       z     vdW  Elec       q    Type
REMARK                         _______ _______ _______ _____ _____    ______ ____
ROOT
ATOM      1  N   UNL     1       1.702   9.106  19.217  0.00  0.00    +0.000 N 
ATOM      2  C   UNL     1       2.321   8.455  18.190  0.00  0.00    +0.000 C 
ATOM      3  O   UNL     1       2.484   9.027  17.113  0.00  0.00    +0.000 OA
ATOM      4  N   UNL     1       2.772   7.171  18.447  0.00  0.00    +0.000 N 
ATOM      5  C   UNL     1       3.550   6.582  17.353  0.00  0.00    +0.000 C 
ATOM      6  C   UNL     1       4.984   6.341  17.743  0.00  0.00    +0.000 A 
ATOM      7  C   UNL     1       6.012   7.147  17.229  0.00  0.00    +0.000 A 
ATOM      8  C   UNL     1       7.340   6.865  17.539  0.00  0.00    +0.000 A 
ATOM      9  C   UNL     1       7.646   5.777  18.349  0.00  0.00    +0.000 A 
ATOM     10  C   UNL     1       6.623   4.978  18.875  0.00  0.00    +0.000 A 
ATOM     11  C   UNL     1       5.281   5.268  18.597  0.00  0.00    +0.000 A 
ATOM     12  N   UNL     1       4.238   4.566  19.168  0.00  0.00    +0.000 N 
ATOM     13  C   UNL     1       4.123   3.133  19.014  0.00  0.00    +0.000 C 
ATOM     14  C   UNL     1       3.397   5.304  20.116  0.00  0.00    +0.000 C 
ATOM     15  C   UNL     1       2.272   6.164  19.449  0.00  0.00    +0.000 C 
ATOM     16  C   UNL     1       1.369   6.674  20.581  0.00  0.00    +0.000 C 
ATOM     17  H   UNL     1       2.159   8.957  20.102  0.00  0.00    +0.000 HD
ENDROOT
BRANCH   1  18
ATOM     18  C   UNL     1       1.255  10.464  18.994  0.00  0.00    +0.000 C 
BRANCH  18  21
ATOM     19  C   UNL     1      -2.265  10.300  17.966  0.00  0.00    +0.000 A 
ATOM     20  C   UNL     1      -0.958   9.811  17.737  0.00  0.00    +0.000 A 
ATOM     21  C   UNL     1      -0.185  10.458  18.669  0.00  0.00    +0.000 A 
ATOM     22  O   UNL     1      -0.976  11.272  19.418  0.00  0.00    +0.000 OA
ATOM     23  N   UNL     1      -2.284  11.173  18.981  0.00  0.00    +0.000 NA
BRANCH  19  25
ATOM     24  C   UNL     1      -4.069  11.144  16.458  0.00  0.00    +0.000 C 
ATOM     25  C   UNL     1      -3.517   9.962  17.240  0.00  0.00    +0.000 C 
ENDBRANCH  19  25
ENDBRANCH  18  21
ENDBRANCH   1  18
TORSDOF 3
ENDMDL
MODEL 4
REMARK VINA RESULT:      -7.4      2.661      8.008
REMARK  Name = 
REMARK  6 active torsions:
REMARK  status: ('A' for Active; 'I' for Inactive)
REMARK    1  A    between atoms: C_1  and  C_2
REMARK    2  A    between atoms: C_2  and  C_3
REMARK    3  A    between atoms: C_5  and  C_6
REMARK    4  A    between atoms: C_6  and  N_7
REMARK    5  A    between atoms: N_18  and  C_19
REMARK    6  A    between atoms: C_21  and  C_22
REMARK                            x       y       z     vdW  Elec       q    Type
REMARK                         _______ _______ _______ _____ _____    ______ ____
ROOT
ATOM      1  N   UNL     1       1.929   8.201  19.263  0.00  0.00    +0.000 N 
ATOM      2  C   UNL     1       1.577   9.374  18.662  0.00  0.00    +0.000 C 
ATOM      3  O   UNL     1       1.903   9.586  17.495  0.00  0.00    +0.000 OA
ATOM      4  N   UNL     1       0.823  10.259  19.416  0.00  0.00    +0.000 N 
ATOM      5  C   UNL     1       0.360  11.433  18.669  0.00  0.00    +0.000 C 
ATOM      6  C   UNL     1      -1.139  11.464  18.536  0.00  0.00    +0.000 A 
ATOM      7  C   UNL     1      -1.755  11.194  17.303  0.00  0.00    +0.000 A 
ATOM      8  C   UNL     1      -3.137  11.300  17.176  0.00  0.00    +0.000 A 
ATOM      9  C   UNL     1      -3.906  11.685  18.269  0.00  0.00    +0.000 A 
ATOM     10  C   UNL     1      -3.298  11.943  19.504  0.00  0.00    +0.000 A 
ATOM     11  C   UNL     1      -1.911  11.810  19.655  0.00  0.00    +0.000 A 
ATOM     12  N   UNL     1      -1.281  11.962  20.874  0.00  0.00    +0.000 N 
ATOM     13  C   UNL     1      -1.405  13.184  21.637  0.00  0.00    +0.000 C 
ATOM     14  C   UNL     1      -0.681  10.756  21.454  0.00  0.00    +0.000 C 
ATOM     15  C   UNL     1       0.749  10.420  20.911  0.00  0.00    +0.000 C 
ATOM     16  C   UNL     1       1.299   9.278  21.779  0.00  0.00    +0.000 C 
ATOM     17  H   UNL     1       1.181   7.805  19.808  0.00  0.00    +0.000 HD
ENDROOT
BRANCH   1  18
ATOM     18  C   UNL     1       2.683   7.237  18.490  0.00  0.00    +0.000 C 
BRANCH  18  21
ATOM     19  C   UNL     1       1.583   3.895  19.537  0.00  0.00    +0.000 A 
ATOM     20  C   UNL     1       2.059   5.155  19.967  0.00  0.00    +0.000 A 
ATOM     21  C   UNL     1       2.208   5.876  18.809  0.00  0.00    +0.000 A 
ATOM     22  O   UNL     1       1.834   5.105  17.752  0.00  0.00    +0.000 OA
ATOM     23  N   UNL     1       1.438   3.861  18.207  0.00  0.00    +0.000 NA
BRANCH  19  25
ATOM     24  C   UNL     1       1.804   2.809  21.777  0.00  0.00    +0.000 C 
ATOM     25  C   UNL     1       1.260   2.700  20.361  0.00  0.00    +0.000 C 
ENDBRANCH  19  25
ENDBRANCH  18  21
ENDBRANCH   1  18
TORSDOF 3
ENDMDL
MODEL 5
REMARK VINA RESULT:      -7.2      2.386      4.244
REMARK  Name = 
REMARK  6 active torsions:
REMARK  status: ('A' for Active; 'I' for Inactive)
REMARK    1  A    between atoms: C_1  and  C_2
REMARK    2  A    between atoms: C_2  and  C_3
REMARK    3  A    between atoms: C_5  and  C_6
REMARK    4  A    between atoms: C_6  and  N_7
REMARK    5  A    between atoms: N_18  and  C_19
REMARK    6  A    between atoms: C_21  and  C_22
REMARK                            x       y       z     vdW  Elec       q    Type
REMARK                         _______ _______ _______ _____ _____    ______ ____
ROOT
ATOM      1  N   UNL     1       1.144   9.008  19.487  0.00  0.00    +0.000 N 
ATOM      2  C   UNL     1       1.582   7.950  20.229  0.00  0.00    +0.000 C 
ATOM      3  O   UNL     1       1.220   7.832  21.399  0.00  0.00    +0.000 OA
ATOM      4  N   UNL     1       2.398   7.032  19.587  0.00  0.00    +0.000 N 
ATOM      5  C   UNL     1       2.716   5.851  20.395  0.00  0.00    +0.000 C 
ATOM      6  C   UNL     1       2.134   4.591  19.810  0.00  0.00    +0.000 A 
ATOM      7  C   UNL     1       1.038   3.959  20.417  0.00  0.00    +0.000 A 
ATOM      8  C   UNL     1       0.558   2.755  19.909  0.00  0.00    +0.000 A 
ATOM      9  C   UNL     1       1.175   2.174  18.806  0.00  0.00    +0.000 A 
ATOM     10  C   UNL     1       2.260   2.807  18.189  0.00  0.00    +0.000 A 
ATOM     11  C   UNL     1       2.734   4.035  18.670  0.00  0.00    +0.000 A 
ATOM     12  N   UNL     1       3.739   4.740  18.038  0.00  0.00    +0.000 N 
ATOM     13  C   UNL     1       5.039   4.151  17.806  0.00  0.00    +0.000 C 
ATOM     14  C   UNL     1       3.354   6.012  17.418  0.00  0.00    +0.000 C 
ATOM     15  C   UNL     1       3.310   7.226  18.405  0.00  0.00    +0.000 C 
ATOM     16  C   UNL     1       3.113   8.488  17.552  0.00  0.00    +0.000 C 
ATOM     17  H   UNL     1       0.877   8.742  18.553  0.00  0.00    +0.000 HD
ENDROOT
BRANCH   1  18
ATOM     18  C   UNL     1       0.258   9.964  20.115  0.00  0.00    +0.000 C 
BRANCH  18  21
ATOM     19  C   UNL     1       1.946  13.221  19.985  0.00  0.00    +0.000 A 
ATOM     20  C   UNL     1       1.402  12.157  19.228  0.00  0.00    +0.000 A 
ATOM     21  C   UNL     1       0.921  11.282  20.170  0.00  0.00    +0.000 A 
ATOM     22  O   UNL     1       1.148  11.792  21.411  0.00  0.00    +0.000 OA
ATOM     23  N   UNL     1       1.789  13.011  21.297  0.00  0.00    +0.000 NA
BRANCH  19  25
ATOM     24  C   UNL     1       3.513  14.177  18.290  0.00  0.00    +0.000 C 
ATOM     25  C   UNL     1       2.625  14.449  19.494  0.00  0.00    +0.000 C 
ENDBRANCH  19  25
ENDBRANCH  18  21
ENDBRANCH   1  18
TORSDOF 3
ENDMDL
MODEL 6
REMARK VINA RESULT:      -7.1      2.700      8.156
REMARK  Name = 
REMARK  6 active torsions:
REMARK  status: ('A' for Active; 'I' for Inactive)
REMARK    1  A    between atoms: C_1  and  C_2
REMARK    2  A    between atoms: C_2  and  C_3
REMARK    3  A    between atoms: C_5  and  C_6
REMARK    4  A    between atoms: C_6  and  N_7
REMARK    5  A    between atoms: N_18  and  C_19
REMARK    6  A    between atoms: C_21  and  C_22
REMARK                            x       y       z     vdW  Elec       q    Type
REMARK                         _______ _______ _______ _____ _____    ______ ____
ROOT
ATOM      1  N   UNL     1       1.843   8.388  19.343  0.00  0.00    +0.000 N 
ATOM      2  C   UNL     1       1.468   9.536  18.708  0.00  0.00    +0.000 C 
ATOM      3  O   UNL     1       1.795   9.722  17.536  0.00  0.00    +0.000 OA
ATOM      4  N   UNL     1       0.691  10.425  19.434  0.00  0.00    +0.000 N 
ATOM      5  C   UNL     1       0.206  11.567  18.652  0.00  0.00    +0.000 C 
ATOM      6  C   UNL     1      -1.293  11.561  18.512  0.00  0.00    +0.000 A 
ATOM      7  C   UNL     1      -1.896  11.243  17.285  0.00  0.00    +0.000 A 
ATOM      8  C   UNL     1      -3.280  11.315  17.149  0.00  0.00    +0.000 A 
ATOM      9  C   UNL     1      -4.062  11.713  18.228  0.00  0.00    +0.000 A 
ATOM     10  C   UNL     1      -3.466  12.019  19.457  0.00  0.00    +0.000 A 
ATOM     11  C   UNL     1      -2.078  11.921  19.618  0.00  0.00    +0.000 A 
ATOM     12  N   UNL     1      -1.457  12.121  20.835  0.00  0.00    +0.000 N 
ATOM     13  C   UNL     1      -1.611  13.361  21.563  0.00  0.00    +0.000 C 
ATOM     14  C   UNL     1      -0.833  10.945  21.451  0.00  0.00    +0.000 C 
ATOM     15  C   UNL     1       0.606  10.626  20.923  0.00  0.00    +0.000 C 
ATOM     16  C   UNL     1       1.177   9.521  21.825  0.00  0.00    +0.000 C 
ATOM     17  H   UNL     1       1.101   7.991  19.896  0.00  0.00    +0.000 HD
ENDROOT
BRANCH   1  18
ATOM     18  C   UNL     1       2.621   7.420  18.601  0.00  0.00    +0.000 C 
BRANCH  18  21
ATOM     19  C   UNL     1       1.656   3.963  19.368  0.00  0.00    +0.000 A 
ATOM     20  C   UNL     1       2.114   4.852  18.369  0.00  0.00    +0.000 A 
ATOM     21  C   UNL     1       2.231   6.058  19.014  0.00  0.00    +0.000 A 
ATOM     22  O   UNL     1       1.879   5.901  20.320  0.00  0.00    +0.000 OA
ATOM     23  N   UNL     1       1.521   4.585  20.545  0.00  0.00    +0.000 NA
BRANCH  19  25
ATOM     24  C   UNL     1       2.452   1.733  18.571  0.00  0.00    +0.000 C 
ATOM     25  C   UNL     1       1.334   2.517  19.240  0.00  0.00    +0.000 C 
ENDBRANCH  19  25
ENDBRANCH  18  21
ENDBRANCH   1  18
TORSDOF 3
ENDMDL
MODEL 7
REMARK VINA RESULT:      -7.0      1.126      1.172
REMARK  Name = 
REMARK  6 active torsions:
REMARK  status: ('A' for Active; 'I' for Inactive)
REMARK    1  A    between atoms: C_1  and  C_2
REMARK    2  A    between atoms: C_2  and  C_3
REMARK    3  A    between atoms: C_5  and  C_6
REMARK    4  A    between atoms: C_6  and  N_7
REMARK    5  A    between atoms: N_18  and  C_19
REMARK    6  A    between atoms: C_21  and  C_22
REMARK                            x       y       z     vdW  Elec       q    Type
REMARK                         _______ _______ _______ _____ _____    ______ ____
ROOT
ATOM      1  N   UNL     1       1.684   9.164  19.079  0.00  0.00    +0.000 N 
ATOM      2  C   UNL     1       2.324   8.465  18.097  0.00  0.00    +0.000 C 
ATOM      3  O   UNL     1       2.487   8.976  16.989  0.00  0.00    +0.000 OA
ATOM      4  N   UNL     1       2.793   7.206  18.433  0.00  0.00    +0.000 N 
ATOM      5  C   UNL     1       3.592   6.568  17.381  0.00  0.00    +0.000 C 
ATOM      6  C   UNL     1       5.025   6.374  17.798  0.00  0.00    +0.000 A 
ATOM      7  C   UNL     1       6.045   7.166  17.247  0.00  0.00    +0.000 A 
ATOM      8  C   UNL     1       7.374   6.926  17.585  0.00  0.00    +0.000 A 
ATOM      9  C   UNL     1       7.690   5.892  18.460  0.00  0.00    +0.000 A 
ATOM     10  C   UNL     1       6.676   5.108  19.022  0.00  0.00    +0.000 A 
ATOM     11  C   UNL     1       5.332   5.358  18.716  0.00  0.00    +0.000 A 
ATOM     12  N   UNL     1       4.295   4.673  19.318  0.00  0.00    +0.000 N 
ATOM     13  C   UNL     1       4.206   3.231  19.247  0.00  0.00    +0.000 C 
ATOM     14  C   UNL     1       3.432   5.450  20.214  0.00  0.00    +0.000 C 
ATOM     15  C   UNL     1       2.300   6.251  19.487  0.00  0.00    +0.000 C 
ATOM     16  C   UNL     1       1.378   6.811  20.580  0.00  0.00    +0.000 C 
ATOM     17  H   UNL     1       2.134   9.075  19.975  0.00  0.00    +0.000 HD
ENDROOT
BRANCH   1  18
ATOM     18  C   UNL     1       1.216  10.499  18.773  0.00  0.00    +0.000 C 
BRANCH  18  21
ATOM     19  C   UNL     1      -0.860  11.572  21.603  0.00  0.00    +0.000 A 
ATOM     20  C   UNL     1       0.433  11.179  21.188  0.00  0.00    +0.000 A 
ATOM     21  C   UNL     1       0.302  10.954  19.840  0.00  0.00    +0.000 A 
ATOM     22  O   UNL     1      -0.981  11.207  19.467  0.00  0.00    +0.000 OA
ATOM     23  N   UNL     1      -1.713  11.598  20.572  0.00  0.00    +0.000 NA
BRANCH  19  25
ATOM     24  C   UNL     1      -1.173  13.411  23.266  0.00  0.00    +0.000 C 
ATOM     25  C   UNL     1      -1.321  11.926  22.972  0.00  0.00    +0.000 C 
ENDBRANCH  19  25
ENDBRANCH  18  21
ENDBRANCH   1  18
TORSDOF 3
ENDMDL
MODEL 8
REMARK VINA RESULT:      -6.9      2.268      3.969
REMARK  Name = 
REMARK  6 active torsions:
REMARK  status: ('A' for Active; 'I' for Inactive)
REMARK    1  A    between atoms: C_1  and  C_2
REMARK    2  A    between atoms: C_2  and  C_3
REMARK    3  A    between atoms: C_5  and  C_6
REMARK    4  A    between atoms: C_6  and  N_7
REMARK    5  A    between atoms: N_18  and  C_19
REMARK    6  A    between atoms: C_21  and  C_22
REMARK                            x       y       z     vdW  Elec       q    Type
REMARK                         _______ _______ _______ _____ _____    ______ ____
ROOT
ATOM      1  N   UNL     1       0.416   9.558  20.309  0.00  0.00    +0.000 N 
ATOM      2  C   UNL     1       1.156   8.512  20.776  0.00  0.00    +0.000 C 
ATOM      3  O   UNL     1       1.112   8.216  21.970  0.00  0.00    +0.000 OA
ATOM      4  N   UNL     1       1.901   7.808  19.844  0.00  0.00    +0.000 N 
ATOM      5  C   UNL     1       2.559   6.615  20.385  0.00  0.00    +0.000 C 
ATOM      6  C   UNL     1       2.020   5.347  19.778  0.00  0.00    +0.000 A 
ATOM      7  C   UNL     1       1.198   4.488  20.524  0.00  0.00    +0.000 A 
ATOM      8  C   UNL     1       0.769   3.282  19.975  0.00  0.00    +0.000 A 
ATOM      9  C   UNL     1       1.167   2.926  18.691  0.00  0.00    +0.000 A 
ATOM     10  C   UNL     1       1.976   3.785  17.938  0.00  0.00    +0.000 A 
ATOM     11  C   UNL     1       2.389   5.016  18.465  0.00  0.00    +0.000 A 
ATOM     12  N   UNL     1       3.108   5.934  17.726  0.00  0.00    +0.000 N 
ATOM     13  C   UNL     1       4.376   5.588  17.124  0.00  0.00    +0.000 C 
ATOM     14  C   UNL     1       2.420   7.186  17.394  0.00  0.00    +0.000 C 
ATOM     15  C   UNL     1       2.462   8.268  18.525  0.00  0.00    +0.000 C 
ATOM     16  C   UNL     1       1.899   9.564  17.924  0.00  0.00    +0.000 C 
ATOM     17  H   UNL     1      -0.036   9.352  19.433  0.00  0.00    +0.000 HD
ENDROOT
BRANCH   1  18
ATOM     18  C   UNL     1      -0.405  10.289  21.250  0.00  0.00    +0.000 C 
BRANCH  18  21
ATOM     19  C   UNL     1       0.636  13.787  21.646  0.00  0.00    +0.000 A 
ATOM     20  C   UNL     1      -0.421  12.860  21.797  0.00  0.00    +0.000 A 
ATOM     21  C   UNL     1       0.116  11.664  21.388  0.00  0.00    +0.000 A 
ATOM     22  O   UNL     1       1.414  11.856  21.028  0.00  0.00    +0.000 OA
ATOM     23  N   UNL     1       1.744  13.189  21.192  0.00  0.00    +0.000 NA
BRANCH  19  25
ATOM     24  C   UNL     1      -0.413  15.986  21.093  0.00  0.00    +0.000 C 
ATOM     25  C   UNL     1       0.628  15.248  21.920  0.00  0.00    +0.000 C 
ENDBRANCH  19  25
ENDBRANCH  18  21
ENDBRANCH   1  18
TORSDOF 3
ENDMDL
MODEL 9
REMARK VINA RESULT:      -6.8      2.557      4.428
REMARK  Name = 
REMARK  6 active torsions:
REMARK  status: ('A' for Active; 'I' for Inactive)
REMARK    1  A    between atoms: C_1  and  C_2
REMARK    2  A    between atoms: C_2  and  C_3
REMARK    3  A    between atoms: C_5  and  C_6
REMARK    4  A    between atoms: C_6  and  N_7
REMARK    5  A    between atoms: N_18  and  C_19
REMARK    6  A    between atoms: C_21  and  C_22
REMARK                            x       y       z     vdW  Elec       q    Type
REMARK                         _______ _______ _______ _____ _____    ______ ____
ROOT
ATOM      1  N   UNL     1       1.408   8.968  19.214  0.00  0.00    +0.000 N 
ATOM      2  C   UNL     1       1.748   7.921  20.019  0.00  0.00    +0.000 C 
ATOM      3  O   UNL     1       1.325   7.875  21.174  0.00  0.00    +0.000 OA
ATOM      4  N   UNL     1       2.538   6.931  19.456  0.00  0.00    +0.000 N 
ATOM      5  C   UNL     1       2.749   5.770  20.326  0.00  0.00    +0.000 C 
ATOM      6  C   UNL     1       2.123   4.521  19.765  0.00  0.00    +0.000 A 
ATOM      7  C   UNL     1       0.964   3.978  20.343  0.00  0.00    +0.000 A 
ATOM      8  C   UNL     1       0.440   2.782  19.861  0.00  0.00    +0.000 A 
ATOM      9  C   UNL     1       1.073   2.120  18.815  0.00  0.00    +0.000 A 
ATOM     10  C   UNL     1       2.221   2.664  18.227  0.00  0.00    +0.000 A 
ATOM     11  C   UNL     1       2.742   3.883  18.680  0.00  0.00    +0.000 A 
ATOM     12  N   UNL     1       3.815   4.502  18.070  0.00  0.00    +0.000 N 
ATOM     13  C   UNL     1       5.088   3.832  17.927  0.00  0.00    +0.000 C 
ATOM     14  C   UNL     1       3.534   5.765  17.380  0.00  0.00    +0.000 C 
ATOM     15  C   UNL     1       3.514   7.022  18.313  0.00  0.00    +0.000 C 
ATOM     16  C   UNL     1       3.431   8.254  17.401  0.00  0.00    +0.000 C 
ATOM     17  H   UNL     1       1.169   8.677  18.280  0.00  0.00    +0.000 HD
ENDROOT
BRANCH   1  18
ATOM     18  C   UNL     1       0.550   9.999  19.758  0.00  0.00    +0.000 C 
BRANCH  18  21
ATOM     19  C   UNL     1       1.613  13.403  18.890  0.00  0.00    +0.000 A 
ATOM     20  C   UNL     1       0.772  12.617  19.711  0.00  0.00    +0.000 A 
ATOM     21  C   UNL     1       1.057  11.324  19.349  0.00  0.00    +0.000 A 
ATOM     22  O   UNL     1       2.016  11.330  18.384  0.00  0.00    +0.000 OA
ATOM     23  N   UNL     1       2.370  12.636  18.096  0.00  0.00    +0.000 NA
BRANCH  19  25
ATOM     24  C   UNL     1       2.932  15.344  18.033  0.00  0.00    +0.000 C 
ATOM     25  C   UNL     1       1.722  14.885  18.831  0.00  0.00    +0.000 C 
ENDBRANCH  19  25
ENDBRANCH  18  21
ENDBRANCH   1  18
TORSDOF 3
ENDMDL
