MODEL 1
REMARK VINA RESULT:      -8.8      0.000      0.000
REMARK  Name = 
REMARK  8 active torsions:
REMARK  status: ('A' for Active; 'I' for Inactive)
REMARK    1  A    between atoms: C_1  and  O_2
REMARK    2  A    between atoms: O_2  and  C_3
REMARK    3  A    between atoms: C_6  and  C_7
REMARK    4  A    between atoms: C_9  and  N_10
REMARK    5  A    between atoms: N_10  and  C_11
REMARK    6  A    between atoms: N_10  and  S_24
REMARK    7  A    between atoms: C_11  and  C_12
REMARK    8  A    between atoms: S_24  and  C_25
REMARK                            x       y       z     vdW  Elec       q    Type
REMARK                         _______ _______ _______ _____ _____    ______ ____
ROOT
ATOM      1  N   UNL     1       3.990   4.617  18.370  0.00  0.00    +0.000 N 
ENDROOT
BRANCH   1   8
ATOM      2  C   UNL     1       6.436   4.841  17.940  0.00  0.00    +0.000 A 
ATOM      3  C   UNL     1       7.507   4.638  17.060  0.00  0.00    +0.000 A 
ATOM      4  C   UNL     1       7.282   4.328  15.720  0.00  0.00    +0.000 A 
ATOM      5  C   UNL     1       5.982   4.246  15.224  0.00  0.00    +0.000 A 
ATOM      6  C   UNL     1       5.734   3.876  13.794  0.00  0.00    +0.000 C 
ATOM      7  C   UNL     1       4.906   4.438  16.099  0.00  0.00    +0.000 A 
ATOM      8  C   UNL     1       5.122   4.658  17.467  0.00  0.00    +0.000 A 
BRANCH   2  10
ATOM      9  C   UNL     1       7.878   5.740  19.582  0.00  0.00    +0.000 C 
ATOM     10  O   UNL     1       6.623   5.132  19.270  0.00  0.00    +0.000 OA
ENDBRANCH   2  10
ENDBRANCH   1   8
BRANCH   1  11
ATOM     11  S   UNL     1       3.619   3.153  19.150  0.00  0.00    +0.000 S 
ATOM     12  C   UNL     1       2.331   3.619  20.289  0.00  0.00    +0.000 C 
ATOM     13  O   UNL     1       3.018   2.280  18.164  0.00  0.00    +0.000 OA
ATOM     14  O   UNL     1       4.750   2.701  19.941  0.00  0.00    +0.000 OA
ENDBRANCH   1  11
BRANCH   1  15
ATOM     15  C   UNL     1       3.675   5.852  19.132  0.00  0.00    +0.000 C 
BRANCH  15  16
ATOM     16  C   UNL     1       3.183   7.046  18.309  0.00  0.00    +0.000 C 
ATOM     17  O   UNL     1       3.645   7.242  17.180  0.00  0.00    +0.000 OA
ATOM     18  N   UNL     1       2.278   7.923  18.896  0.00  0.00    +0.000 N 
ATOM     19  C   UNL     1       1.931   9.176  18.212  0.00  0.00    +0.000 C 
ATOM     20  C   UNL     1       0.581   9.797  18.617  0.00  0.00    +0.000 C 
ATOM     21  C   UNL     1       0.384   9.788  20.110  0.00  0.00    +0.000 A 
ATOM     22  C   UNL     1      -0.466  10.686  20.763  0.00  0.00    +0.000 A 
ATOM     23  C   UNL     1      -0.595  10.641  22.155  0.00  0.00    +0.000 A 
ATOM     24  C   UNL     1       0.156   9.735  22.903  0.00  0.00    +0.000 A 
ATOM     25  C   UNL     1       0.961   8.805  22.254  0.00  0.00    +0.000 A 
ATOM     26  C   UNL     1       1.022   8.790  20.858  0.00  0.00    +0.000 A 
ATOM     27  C   UNL     1       1.594   7.603  20.140  0.00  0.00    +0.000 C 
ENDBRANCH  15  16
ENDBRANCH   1  15
TORSDOF 5
ENDMDL
MODEL 2
REMARK VINA RESULT:      -8.4      1.050      1.231
REMARK  Name = 
REMARK  8 active torsions:
REMARK  status: ('A' for Active; 'I' for Inactive)
REMARK    1  A    between atoms: C_1  and  O_2
REMARK    2  A    between atoms: O_2  and  C_3
REMARK    3  A    between atoms: C_6  and  C_7
REMARK    4  A    between atoms: C_9  and  N_10
REMARK    5  A    between atoms: N_10  and  C_11
REMARK    6  A    between atoms: N_10  and  S_24
REMARK    7  A    between atoms: C_11  and  C_12
REMARK    8  A    between atoms: S_24  and  C_25
REMARK                            x       y       z     vdW  Elec       q    Type
REMARK                         _______ _______ _______ _____ _____    ______ ____
ROOT
ATOM      1  N   UNL     1       3.561   5.272  17.787  0.00  0.00    +0.000 N 
ENDROOT
BRANCH   1   8
ATOM      2  C   UNL     1       6.042   5.018  17.778  0.00  0.00    +0.000 A 
ATOM      3  C   UNL     1       7.183   4.565  17.104  0.00  0.00    +0.000 A 
ATOM      4  C   UNL     1       7.125   4.213  15.756  0.00  0.00    +0.000 A 
ATOM      5  C   UNL     1       5.932   4.337  15.047  0.00  0.00    +0.000 A 
ATOM      6  C   UNL     1       5.855   3.925  13.609  0.00  0.00    +0.000 C 
ATOM      7  C   UNL     1       4.785   4.780  15.716  0.00  0.00    +0.000 A 
ATOM      8  C   UNL     1       4.812   5.047  17.092  0.00  0.00    +0.000 A 
BRANCH   2  10
ATOM      9  C   UNL     1       7.356   5.657  19.636  0.00  0.00    +0.000 C 
ATOM     10  O   UNL     1       6.062   5.357  19.110  0.00  0.00    +0.000 OA
ENDBRANCH   2  10
ENDBRANCH   1   8
BRANCH   1  11
ATOM     11  S   UNL     1       2.647   3.927  18.281  0.00  0.00    +0.000 S 
ATOM     12  C   UNL     1       3.848   2.611  18.305  0.00  0.00    +0.000 C 
ATOM     13  O   UNL     1       2.246   4.160  19.653  0.00  0.00    +0.000 OA
ATOM     14  O   UNL     1       1.659   3.590  17.272  0.00  0.00    +0.000 OA
ENDBRANCH   1  11
BRANCH   1  15
ATOM     15  C   UNL     1       3.466   6.472  18.656  0.00  0.00    +0.000 C 
BRANCH  15  16
ATOM     16  C   UNL     1       2.843   7.718  18.021  0.00  0.00    +0.000 C 
ATOM     17  O   UNL     1       3.186   8.063  16.886  0.00  0.00    +0.000 OA
ATOM     18  N   UNL     1       1.956   8.471  18.782  0.00  0.00    +0.000 N 
ATOM     19  C   UNL     1       1.486   9.769  18.278  0.00  0.00    +0.000 C 
ATOM     20  C   UNL     1       0.151  10.262  18.869  0.00  0.00    +0.000 C 
ATOM     21  C   UNL     1       0.096  10.080  20.363  0.00  0.00    +0.000 A 
ATOM     22  C   UNL     1      -0.731  10.849  21.186  0.00  0.00    +0.000 A 
ATOM     23  C   UNL     1      -0.727  10.645  22.570  0.00  0.00    +0.000 A 
ATOM     24  C   UNL     1       0.135   9.708  23.141  0.00  0.00    +0.000 A 
ATOM     25  C   UNL     1       0.919   8.903  22.322  0.00  0.00    +0.000 A 
ATOM     26  C   UNL     1       0.849   9.045  20.933  0.00  0.00    +0.000 A 
ATOM     27  C   UNL     1       1.407   7.978  20.037  0.00  0.00    +0.000 C 
ENDBRANCH  15  16
ENDBRANCH   1  15
TORSDOF 5
ENDMDL
MODEL 3
REMARK VINA RESULT:      -8.3      1.165      2.380
REMARK  Name = 
REMARK  8 active torsions:
REMARK  status: ('A' for Active; 'I' for Inactive)
REMARK    1  A    between atoms: C_1  and  O_2
REMARK    2  A    between atoms: O_2  and  C_3
REMARK    3  A    between atoms: C_6  and  C_7
REMARK    4  A    between atoms: C_9  and  N_10
REMARK    5  A    between atoms: N_10  and  C_11
REMARK    6  A    between atoms: N_10  and  S_24
REMARK    7  A    between atoms: C_11  and  C_12
REMARK    8  A    between atoms: S_24  and  C_25
REMARK                            x       y       z     vdW  Elec       q    Type
REMARK                         _______ _______ _______ _____ _____    ______ ____
ROOT
ATOM      1  N   UNL     1       3.560   5.095  18.371  0.00  0.00    +0.000 N 
ENDROOT
BRANCH   1   8
ATOM      2  C   UNL     1       5.510   4.633  16.888  0.00  0.00    +0.000 A 
ATOM      3  C   UNL     1       6.894   4.720  16.691  0.00  0.00    +0.000 A 
ATOM      4  C   UNL     1       7.749   5.029  17.748  0.00  0.00    +0.000 A 
ATOM      5  C   UNL     1       7.241   5.226  19.030  0.00  0.00    +0.000 A 
ATOM      6  C   UNL     1       8.150   5.595  20.162  0.00  0.00    +0.000 C 
ATOM      7  C   UNL     1       5.857   5.151  19.234  0.00  0.00    +0.000 A 
ATOM      8  C   UNL     1       4.983   4.932  18.160  0.00  0.00    +0.000 A 
BRANCH   2  10
ATOM      9  C   UNL     1       5.235   4.283  14.567  0.00  0.00    +0.000 C 
ATOM     10  O   UNL     1       4.640   4.346  15.864  0.00  0.00    +0.000 OA
ENDBRANCH   2  10
ENDBRANCH   1   8
BRANCH   1  11
ATOM     11  S   UNL     1       2.578   3.710  18.431  0.00  0.00    +0.000 S 
ATOM     12  C   UNL     1       1.521   4.026  19.830  0.00  0.00    +0.000 C 
ATOM     13  O   UNL     1       1.737   3.725  17.252  0.00  0.00    +0.000 OA
ATOM     14  O   UNL     1       3.375   2.539  18.752  0.00  0.00    +0.000 OA
ENDBRANCH   1  11
BRANCH   1  15
ATOM     15  C   UNL     1       3.117   6.237  19.210  0.00  0.00    +0.000 C 
BRANCH  15  16
ATOM     16  C   UNL     1       2.687   7.501  18.460  0.00  0.00    +0.000 C 
ATOM     17  O   UNL     1       3.167   7.745  17.348  0.00  0.00    +0.000 OA
ATOM     18  N   UNL     1       1.817   8.380  19.094  0.00  0.00    +0.000 N 
ATOM     19  C   UNL     1       1.532   9.688  18.486  0.00  0.00    +0.000 C 
ATOM     20  C   UNL     1       0.208  10.343  18.921  0.00  0.00    +0.000 C 
ATOM     21  C   UNL     1      -0.003  10.252  20.409  0.00  0.00    +0.000 A 
ATOM     22  C   UNL     1      -0.818  11.145  21.111  0.00  0.00    +0.000 A 
ATOM     23  C   UNL     1      -0.961  11.021  22.497  0.00  0.00    +0.000 A 
ATOM     24  C   UNL     1      -0.258  10.037  23.192  0.00  0.00    +0.000 A 
ATOM     25  C   UNL     1       0.510   9.113  22.492  0.00  0.00    +0.000 A 
ATOM     26  C   UNL     1       0.583   9.182  21.098  0.00  0.00    +0.000 A 
ATOM     27  C   UNL     1       1.107   8.015  20.311  0.00  0.00    +0.000 C 
ENDBRANCH  15  16
ENDBRANCH   1  15
TORSDOF 5
ENDMDL
MODEL 4
REMARK VINA RESULT:      -8.2      1.537      2.615
REMARK  Name = 
REMARK  8 active torsions:
REMARK  status: ('A' for Active; 'I' for Inactive)
REMARK    1  A    between atoms: C_1  and  O_2
REMARK    2  A    between atoms: O_2  and  C_3
REMARK    3  A    between atoms: C_6  and  C_7
REMARK    4  A    between atoms: C_9  and  N_10
REMARK    5  A    between atoms: N_10  and  C_11
REMARK    6  A    between atoms: N_10  and  S_24
REMARK    7  A    between atoms: C_11  and  C_12
REMARK    8  A    between atoms: S_24  and  C_25
REMARK                            x       y       z     vdW  Elec       q    Type
REMARK                         _______ _______ _______ _____ _____    ______ ____
ROOT
ATOM      1  N   UNL     1       3.033   4.739  19.745  0.00  0.00    +0.000 N 
ENDROOT
BRANCH   1   8
ATOM      2  C   UNL     1       4.128   4.117  17.593  0.00  0.00    +0.000 A 
ATOM      3  C   UNL     1       5.247   4.230  16.758  0.00  0.00    +0.000 A 
ATOM      4  C   UNL     1       6.447   4.755  17.237  0.00  0.00    +0.000 A 
ATOM      5  C   UNL     1       6.562   5.147  18.569  0.00  0.00    +0.000 A 
ATOM      6  C   UNL     1       7.836   5.746  19.079  0.00  0.00    +0.000 C 
ATOM      7  C   UNL     1       5.445   5.046  19.408  0.00  0.00    +0.000 A 
ATOM      8  C   UNL     1       4.210   4.606  18.912  0.00  0.00    +0.000 A 
BRANCH   2  10
ATOM      9  C   UNL     1       2.827   2.193  17.155  0.00  0.00    +0.000 C 
ATOM     10  O   UNL     1       2.928   3.618  17.148  0.00  0.00    +0.000 OA
ENDBRANCH   2  10
ENDBRANCH   1   8
BRANCH   1  11
ATOM     11  S   UNL     1       2.551   3.416  20.696  0.00  0.00    +0.000 S 
ATOM     12  C   UNL     1       0.964   2.984  20.010  0.00  0.00    +0.000 C 
ATOM     13  O   UNL     1       3.452   2.322  20.400  0.00  0.00    +0.000 OA
ATOM     14  O   UNL     1       2.326   3.835  22.068  0.00  0.00    +0.000 OA
ENDBRANCH   1  11
BRANCH   1  15
ATOM     15  C   UNL     1       2.740   6.081  20.309  0.00  0.00    +0.000 C 
BRANCH  15  16
ATOM     16  C   UNL     1       2.435   7.188  19.296  0.00  0.00    +0.000 C 
ATOM     17  O   UNL     1       3.017   7.197  18.207  0.00  0.00    +0.000 OA
ATOM     18  N   UNL     1       1.558   8.200  19.670  0.00  0.00    +0.000 N 
ATOM     19  C   UNL     1       1.389   9.373  18.802  0.00  0.00    +0.000 C 
ATOM     20  C   UNL     1       0.066  10.141  18.982  0.00  0.00    +0.000 C 
ATOM     21  C   UNL     1      -0.273  10.346  20.435  0.00  0.00    +0.000 A 
ATOM     22  C   UNL     1      -1.099  11.383  20.877  0.00  0.00    +0.000 A 
ATOM     23  C   UNL     1      -1.363  11.534  22.243  0.00  0.00    +0.000 A 
ATOM     24  C   UNL     1      -0.768  10.682  23.173  0.00  0.00    +0.000 A 
ATOM     25  C   UNL     1       0.010   9.617  22.735  0.00  0.00    +0.000 A 
ATOM     26  C   UNL     1       0.202   9.412  21.365  0.00  0.00    +0.000 A 
ATOM     27  C   UNL     1       0.733   8.100  20.865  0.00  0.00    +0.000 C 
ENDBRANCH  15  16
ENDBRANCH   1  15
TORSDOF 5
ENDMDL
MODEL 5
REMARK VINA RESULT:      -7.9      4.504      6.675
REMARK  Name = 
REMARK  8 active torsions:
REMARK  status: ('A' for Active; 'I' for Inactive)
REMARK    1  A    between atoms: C_1  and  O_2
REMARK    2  A    between atoms: O_2  and  C_3
REMARK    3  A    between atoms: C_6  and  C_7
REMARK    4  A    between atoms: C_9  and  N_10
REMARK    5  A    between atoms: N_10  and  C_11
REMARK    6  A    between atoms: N_10  and  S_24
REMARK    7  A    between atoms: C_11  and  C_12
REMARK    8  A    between atoms: S_24  and  C_25
REMARK                            x       y       z     vdW  Elec       q    Type
REMARK                         _______ _______ _______ _____ _____    ______ ____
ROOT
ATOM      1  N   UNL     1       6.521   6.308  17.424  0.00  0.00    +0.000 N 
ENDROOT
BRANCH   1   8
ATOM      2  C   UNL     1       4.738   5.356  18.883  0.00  0.00    +0.000 A 
ATOM      3  C   UNL     1       3.483   5.524  19.482  0.00  0.00    +0.000 A 
ATOM      4  C   UNL     1       2.627   6.547  19.076  0.00  0.00    +0.000 A 
ATOM      5  C   UNL     1       2.996   7.403  18.039  0.00  0.00    +0.000 A 
ATOM      6  C   UNL     1       2.098   8.527  17.623  0.00  0.00    +0.000 C 
ATOM      7  C   UNL     1       4.253   7.247  17.442  0.00  0.00    +0.000 A 
ATOM      8  C   UNL     1       5.156   6.281  17.907  0.00  0.00    +0.000 A 
BRANCH   2  10
ATOM      9  C   UNL     1       4.992   3.153  19.702  0.00  0.00    +0.000 C 
ATOM     10  O   UNL     1       5.610   4.367  19.272  0.00  0.00    +0.000 OA
ENDBRANCH   2  10
ENDBRANCH   1   8
BRANCH   1  11
ATOM     11  S   UNL     1       7.029   5.104  16.338  0.00  0.00    +0.000 S 
ATOM     12  C   UNL     1       5.523   4.218  15.987  0.00  0.00    +0.000 C 
ATOM     13  O   UNL     1       7.426   5.767  15.114  0.00  0.00    +0.000 OA
ATOM     14  O   UNL     1       7.929   4.175  16.998  0.00  0.00    +0.000 OA
ENDBRANCH   1  11
BRANCH   1  15
ATOM     15  C   UNL     1       7.166   7.636  17.263  0.00  0.00    +0.000 C 
BRANCH  15  16
ATOM     16  C   UNL     1       8.183   8.028  18.338  0.00  0.00    +0.000 C 
ATOM     17  O   UNL     1       8.591   7.175  19.133  0.00  0.00    +0.000 OA
ATOM     18  N   UNL     1       8.562   9.362  18.432  0.00  0.00    +0.000 N 
ATOM     19  C   UNL     1       9.386   9.807  19.564  0.00  0.00    +0.000 C 
ATOM     20  C   UNL     1      10.194  11.096  19.326  0.00  0.00    +0.000 C 
ATOM     21  C   UNL     1       9.367  12.163  18.659  0.00  0.00    +0.000 A 
ATOM     22  C   UNL     1       9.662  13.525  18.768  0.00  0.00    +0.000 A 
ATOM     23  C   UNL     1       8.846  14.471  18.139  0.00  0.00    +0.000 A 
ATOM     24  C   UNL     1       7.709  14.067  17.440  0.00  0.00    +0.000 A 
ATOM     25  C   UNL     1       7.441  12.711  17.283  0.00  0.00    +0.000 A 
ATOM     26  C   UNL     1       8.306  11.762  17.836  0.00  0.00    +0.000 A 
ATOM     27  C   UNL     1       8.235  10.329  17.394  0.00  0.00    +0.000 C 
ENDBRANCH  15  16
ENDBRANCH   1  15
TORSDOF 5
ENDMDL
MODEL 6
REMARK VINA RESULT:      -7.8      1.215      1.412
REMARK  Name = 
REMARK  8 active torsions:
REMARK  status: ('A' for Active; 'I' for Inactive)
REMARK    1  A    between atoms: C_1  and  O_2
REMARK    2  A    between atoms: O_2  and  C_3
REMARK    3  A    between atoms: C_6  and  C_7
REMARK    4  A    between atoms: C_9  and  N_10
REMARK    5  A    between atoms: N_10  and  C_11
REMARK    6  A    between atoms: N_10  and  S_24
REMARK    7  A    between atoms: C_11  and  C_12
REMARK    8  A    between atoms: S_24  and  C_25
REMARK                            x       y       z     vdW  Elec       q    Type
REMARK                         _______ _______ _______ _____ _____    ______ ____
ROOT
ATOM      1  N   UNL     1       3.272   5.398  17.721  0.00  0.00    +0.000 N 
ENDROOT
BRANCH   1   8
ATOM      2  C   UNL     1       5.653   4.816  18.181  0.00  0.00    +0.000 A 
ATOM      3  C   UNL     1       6.886   4.389  17.673  0.00  0.00    +0.000 A 
ATOM      4  C   UNL     1       7.132   4.385  16.300  0.00  0.00    +0.000 A 
ATOM      5  C   UNL     1       6.161   4.840  15.410  0.00  0.00    +0.000 A 
ATOM      6  C   UNL     1       6.406   4.803  13.932  0.00  0.00    +0.000 C 
ATOM      7  C   UNL     1       4.922   5.259  15.909  0.00  0.00    +0.000 A 
ATOM      8  C   UNL     1       4.634   5.179  17.278  0.00  0.00    +0.000 A 
BRANCH   2  10
ATOM      9  C   UNL     1       5.167   3.525  20.100  0.00  0.00    +0.000 C 
ATOM     10  O   UNL     1       5.374   4.817  19.526  0.00  0.00    +0.000 OA
ENDBRANCH   2  10
ENDBRANCH   1   8
BRANCH   1  11
ATOM     11  S   UNL     1       2.223   4.065  17.829  0.00  0.00    +0.000 S 
ATOM     12  C   UNL     1       1.744   4.068  19.546  0.00  0.00    +0.000 C 
ATOM     13  O   UNL     1       1.040   4.385  17.058  0.00  0.00    +0.000 OA
ATOM     14  O   UNL     1       2.948   2.830  17.588  0.00  0.00    +0.000 OA
ENDBRANCH   1  11
BRANCH   1  15
ATOM     15  C   UNL     1       3.037   6.485  18.705  0.00  0.00    +0.000 C 
BRANCH  15  16
ATOM     16  C   UNL     1       2.563   7.824  18.131  0.00  0.00    +0.000 C 
ATOM     17  O   UNL     1       2.979   8.199  17.031  0.00  0.00    +0.000 OA
ATOM     18  N   UNL     1       1.729   8.616  18.911  0.00  0.00    +0.000 N 
ATOM     19  C   UNL     1       1.408   9.982  18.476  0.00  0.00    +0.000 C 
ATOM     20  C   UNL     1       0.109  10.571  19.058  0.00  0.00    +0.000 C 
ATOM     21  C   UNL     1      -0.018  10.307  20.534  0.00  0.00    +0.000 A 
ATOM     22  C   UNL     1      -0.793  11.106  21.380  0.00  0.00    +0.000 A 
ATOM     23  C   UNL     1      -0.858  10.820  22.748  0.00  0.00    +0.000 A 
ATOM     24  C   UNL     1      -0.114   9.769  23.284  0.00  0.00    +0.000 A 
ATOM     25  C   UNL     1       0.615   8.939  22.439  0.00  0.00    +0.000 A 
ATOM     26  C   UNL     1       0.609   9.169  21.060  0.00  0.00    +0.000 A 
ATOM     27  C   UNL     1       1.090   8.107  20.116  0.00  0.00    +0.000 C 
ENDBRANCH  15  16
ENDBRANCH   1  15
TORSDOF 5
ENDMDL
MODEL 7
REMARK VINA RESULT:      -7.8      3.614      8.072
REMARK  Name = 
REMARK  8 active torsions:
REMARK  status: ('A' for Active; 'I' for Inactive)
REMARK    1  A    between atoms: C_1  and  O_2
REMARK    2  A    between atoms: O_2  and  C_3
REMARK    3  A    between atoms: C_6  and  C_7
REMARK    4  A    between atoms: C_9  and  N_10
REMARK    5  A    between atoms: N_10  and  C_11
REMARK    6  A    between atoms: N_10  and  S_24
REMARK    7  A    between atoms: C_11  and  C_12
REMARK    8  A    between atoms: S_24  and  C_25
REMARK                            x       y       z     vdW  Elec       q    Type
REMARK                         _______ _______ _______ _____ _____    ______ ____
ROOT
ATOM      1  N   UNL     1       0.986  10.330  20.081  0.00  0.00    +0.000 N 
ENDROOT
BRANCH   1   8
ATOM      2  C   UNL     1      -0.463  12.123  19.130  0.00  0.00    +0.000 A 
ATOM      3  C   UNL     1      -0.615  13.479  18.815  0.00  0.00    +0.000 A 
ATOM      4  C   UNL     1       0.480  14.342  18.817  0.00  0.00    +0.000 A 
ATOM      5  C   UNL     1       1.756  13.859  19.101  0.00  0.00    +0.000 A 
ATOM      6  C   UNL     1       2.931  14.787  19.140  0.00  0.00    +0.000 C 
ATOM      7  C   UNL     1       1.916  12.506  19.425  0.00  0.00    +0.000 A 
ATOM      8  C   UNL     1       0.808  11.652  19.517  0.00  0.00    +0.000 A 
BRANCH   2  10
ATOM      9  C   UNL     1      -2.633  11.630  18.336  0.00  0.00    +0.000 C 
ATOM     10  O   UNL     1      -1.524  11.250  19.152  0.00  0.00    +0.000 OA
ENDBRANCH   2  10
ENDBRANCH   1   8
BRANCH   1  11
ATOM     11  S   UNL     1       0.663  10.095  21.733  0.00  0.00    +0.000 S 
ATOM     12  C   UNL     1      -0.554   8.794  21.723  0.00  0.00    +0.000 C 
ATOM     13  O   UNL     1       1.863   9.549  22.333  0.00  0.00    +0.000 OA
ATOM     14  O   UNL     1       0.028  11.273  22.296  0.00  0.00    +0.000 OA
ENDBRANCH   1  11
BRANCH   1  15
ATOM     15  C   UNL     1       0.718   9.166  19.198  0.00  0.00    +0.000 C 
BRANCH  15  16
ATOM     16  C   UNL     1       1.913   8.630  18.406  0.00  0.00    +0.000 C 
ATOM     17  O   UNL     1       2.350   9.274  17.447  0.00  0.00    +0.000 OA
ATOM     18  N   UNL     1       2.426   7.384  18.749  0.00  0.00    +0.000 N 
ATOM     19  C   UNL     1       3.444   6.756  17.896  0.00  0.00    +0.000 C 
ATOM     20  C   UNL     1       4.326   5.701  18.590  0.00  0.00    +0.000 C 
ATOM     21  C   UNL     1       3.516   4.762  19.443  0.00  0.00    +0.000 A 
ATOM     22  C   UNL     1       3.951   3.475  19.771  0.00  0.00    +0.000 A 
ATOM     23  C   UNL     1       3.146   2.641  20.553  0.00  0.00    +0.000 A 
ATOM     24  C   UNL     1       1.886   3.069  20.971  0.00  0.00    +0.000 A 
ATOM     25  C   UNL     1       1.471   4.367  20.694  0.00  0.00    +0.000 A 
ATOM     26  C   UNL     1       2.313   5.232  19.988  0.00  0.00    +0.000 A 
ATOM     27  C   UNL     1       2.044   6.708  19.981  0.00  0.00    +0.000 C 
ENDBRANCH  15  16
ENDBRANCH   1  15
TORSDOF 5
ENDMDL
MODEL 8
REMARK VINA RESULT:      -7.6      3.500      7.986
REMARK  Name = 
REMARK  8 active torsions:
REMARK  status: ('A' for Active; 'I' for Inactive)
REMARK    1  A    between atoms: C_1  and  O_2
REMARK    2  A    between atoms: O_2  and  C_3
REMARK    3  A    between atoms: C_6  and  C_7
REMARK    4  A    between atoms: C_9  and  N_10
REMARK    5  A    between atoms: N_10  and  C_11
REMARK    6  A    between atoms: N_10  and  S_24
REMARK    7  A    between atoms: C_11  and  C_12
REMARK    8  A    between atoms: S_24  and  C_25
REMARK                            x       y       z     vdW  Elec       q    Type
REMARK                         _______ _______ _______ _____ _____    ______ ____
ROOT
ATOM      1  N   UNL     1       0.844   9.994  20.470  0.00  0.00    +0.000 N 
ENDROOT
BRANCH   1   8
ATOM      2  C   UNL     1       0.853  12.334  19.609  0.00  0.00    +0.000 A 
ATOM      3  C   UNL     1       0.325  13.265  18.706  0.00  0.00    +0.000 A 
ATOM      4  C   UNL     1      -0.845  12.991  17.998  0.00  0.00    +0.000 A 
ATOM      5  C   UNL     1      -1.528  11.794  18.203  0.00  0.00    +0.000 A 
ATOM      6  C   UNL     1      -2.765  11.478  17.419  0.00  0.00    +0.000 C 
ATOM      7  C   UNL     1      -1.001  10.854  19.098  0.00  0.00    +0.000 A 
ATOM      8  C   UNL     1       0.222  11.081  19.743  0.00  0.00    +0.000 A 
BRANCH   2  10
ATOM      9  C   UNL     1       2.224  13.928  20.688  0.00  0.00    +0.000 C 
ATOM     10  O   UNL     1       2.012  12.567  20.309  0.00  0.00    +0.000 OA
ENDBRANCH   2  10
ENDBRANCH   1   8
BRANCH   1  11
ATOM     11  S   UNL     1       0.637   9.914  22.155  0.00  0.00    +0.000 S 
ATOM     12  C   UNL     1      -0.545   8.595  22.354  0.00  0.00    +0.000 C 
ATOM     13  O   UNL     1       1.887   9.451  22.720  0.00  0.00    +0.000 OA
ATOM     14  O   UNL     1       0.012  11.129  22.646  0.00  0.00    +0.000 OA
ENDBRANCH   1  11
BRANCH   1  15
ATOM     15  C   UNL     1       0.975   8.689  19.773  0.00  0.00    +0.000 C 
BRANCH  15  16
ATOM     16  C   UNL     1       2.114   8.579  18.755  0.00  0.00    +0.000 C 
ATOM     17  O   UNL     1       2.532   9.597  18.193  0.00  0.00    +0.000 OA
ATOM     18  N   UNL     1       2.595   7.314  18.439  0.00  0.00    +0.000 N 
ATOM     19  C   UNL     1       3.551   7.154  17.334  0.00  0.00    +0.000 C 
ATOM     20  C   UNL     1       4.423   5.887  17.395  0.00  0.00    +0.000 C 
ATOM     21  C   UNL     1       3.617   4.664  17.746  0.00  0.00    +0.000 A 
ATOM     22  C   UNL     1       4.019   3.371  17.400  0.00  0.00    +0.000 A 
ATOM     23  C   UNL     1       3.218   2.275  17.739  0.00  0.00    +0.000 A 
ATOM     24  C   UNL     1       1.994   2.468  18.380  0.00  0.00    +0.000 A 
ATOM     25  C   UNL     1       1.616   3.747  18.774  0.00  0.00    +0.000 A 
ATOM     26  C   UNL     1       2.458   4.833  18.515  0.00  0.00    +0.000 A 
ATOM     27  C   UNL     1       2.243   6.139  19.223  0.00  0.00    +0.000 C 
ENDBRANCH  15  16
ENDBRANCH   1  15
TORSDOF 5
ENDMDL
MODEL 9
REMARK VINA RESULT:      -7.6      3.470      8.135
REMARK  Name = 
REMARK  8 active torsions:
REMARK  status: ('A' for Active; 'I' for Inactive)
REMARK    1  A    between atoms: C_1  and  O_2
REMARK    2  A    between atoms: O_2  and  C_3
REMARK    3  A    between atoms: C_6  and  C_7
REMARK    4  A    between atoms: C_9  and  N_10
REMARK    5  A    between atoms: N_10  and  C_11
REMARK    6  A    between atoms: N_10  and  S_24
REMARK    7  A    between atoms: C_11  and  C_12
REMARK    8  A    between atoms: S_24  and  C_25
REMARK                            x       y       z     vdW  Elec       q    Type
REMARK                         _______ _______ _______ _____ _____    ______ ____
ROOT
ATOM      1  N   UNL     1       1.056  10.057  20.032  0.00  0.00    +0.000 N 
ENDROOT
BRANCH   1   8
ATOM      2  C   UNL     1      -0.648  11.377  18.777  0.00  0.00    +0.000 A 
ATOM      3  C   UNL     1      -1.078  12.632  18.328  0.00  0.00    +0.000 A 
ATOM      4  C   UNL     1      -0.228  13.736  18.368  0.00  0.00    +0.000 A 
ATOM      5  C   UNL     1       1.081  13.600  18.828  0.00  0.00    +0.000 A 
ATOM      6  C   UNL     1       1.987  14.790  18.908  0.00  0.00    +0.000 C 
ATOM      7  C   UNL     1       1.516  12.351  19.286  0.00  0.00    +0.000 A 
ATOM      8  C   UNL     1       0.640  11.258  19.336  0.00  0.00    +0.000 A 
BRANCH   2  10
ATOM      9  C   UNL     1      -2.130  10.028  17.525  0.00  0.00    +0.000 C 
ATOM     10  O   UNL     1      -1.466  10.273  18.766  0.00  0.00    +0.000 OA
ENDBRANCH   2  10
ENDBRANCH   1   8
BRANCH   1  11
ATOM     11  S   UNL     1       0.718   9.914  21.691  0.00  0.00    +0.000 S 
ATOM     12  C   UNL     1      -0.469   8.586  21.747  0.00  0.00    +0.000 C 
ATOM     13  O   UNL     1       1.922   9.434  22.336  0.00  0.00    +0.000 OA
ATOM     14  O   UNL     1       0.048  11.108  22.175  0.00  0.00    +0.000 OA
ENDBRANCH   1  11
BRANCH   1  15
ATOM     15  C   UNL     1       1.063   8.787  19.262  0.00  0.00    +0.000 C 
BRANCH  15  16
ATOM     16  C   UNL     1       2.267   8.561  18.343  0.00  0.00    +0.000 C 
ATOM     17  O   UNL     1       2.766   9.519  17.743  0.00  0.00    +0.000 OA
ATOM     18  N   UNL     1       2.716   7.260  18.154  0.00  0.00    +0.000 N 
ATOM     19  C   UNL     1       3.742   6.985  17.138  0.00  0.00    +0.000 C 
ATOM     20  C   UNL     1       4.555   5.694  17.354  0.00  0.00    +0.000 C 
ATOM     21  C   UNL     1       3.675   4.531  17.729  0.00  0.00    +0.000 A 
ATOM     22  C   UNL     1       4.047   3.202  17.507  0.00  0.00    +0.000 A 
ATOM     23  C   UNL     1       3.180   2.164  17.861  0.00  0.00    +0.000 A 
ATOM     24  C   UNL     1       1.922   2.448  18.393  0.00  0.00    +0.000 A 
ATOM     25  C   UNL     1       1.569   3.765  18.666  0.00  0.00    +0.000 A 
ATOM     26  C   UNL     1       2.472   4.798  18.395  0.00  0.00    +0.000 A 
ATOM     27  C   UNL     1       2.261   6.160  18.990  0.00  0.00    +0.000 C 
ENDBRANCH  15  16
ENDBRANCH   1  15
TORSDOF 5
ENDMDL
