MODEL 1
REMARK VINA RESULT:      -7.3      0.000      0.000
REMARK  Name = 
REMARK  5 active torsions:
REMARK  status: ('A' for Active; 'I' for Inactive)
REMARK    1  A    between atoms: C_1  and  C_2
REMARK    2  A    between atoms: C_2  and  C_3
REMARK    3  A    between atoms: N_7  and  C_8
REMARK    4  A    between atoms: C_8  and  C_9
REMARK    5  A    between atoms: C_9  and  N_10
REMARK                            x       y       z     vdW  Elec       q    Type
REMARK                         _______ _______ _______ _____ _____    ______ ____
ROOT
ATOM      1  N   UNL     1       2.473   7.257  19.220  0.00  0.00    +0.000 N 
ATOM      2  C   UNL     1       1.726   8.160  19.906  0.00  0.00    +0.000 A 
ATOM      3  N   UNL     1       1.465   8.101  21.196  0.00  0.00    +0.000 NA
ATOM      4  C   UNL     1       0.690   9.176  21.573  0.00  0.00    +0.000 A 
ATOM      5  C   UNL     1       0.337  10.028  20.553  0.00  0.00    +0.000 A 
ATOM      6  S   UNL     1       1.013   9.507  19.085  0.00  0.00    +0.000 S 
ATOM      7  C   UNL     1      -0.475  11.212  20.714  0.00  0.00    +0.000 C 
ATOM      8  O   UNL     1      -0.872  11.924  19.799  0.00  0.00    +0.000 OA
ATOM      9  C   UNL     1      -0.746  11.584  22.174  0.00  0.00    +0.000 C 
ATOM     10  C   UNL     1      -0.909  10.351  23.077  0.00  0.00    +0.000 C 
ATOM     11  C   UNL     1       0.299   9.404  22.994  0.00  0.00    +0.000 C 
ATOM     12  H   UNL     1       2.429   7.333  18.211  0.00  0.00    +0.000 HD
ENDROOT
BRANCH   1  13
ATOM     13  C   UNL     1       2.477   5.888  19.736  0.00  0.00    +0.000 C 
BRANCH  13  14
ATOM     14  C   UNL     1       2.837   4.850  18.641  0.00  0.00    +0.000 C 
BRANCH  14  21
ATOM     15  C   UNL     1       6.477   7.090  17.345  0.00  0.00    +0.000 C 
ATOM     16  C   UNL     1       6.538   5.694  17.998  0.00  0.00    +0.000 C 
ATOM     17  C   UNL     1       7.715   5.687  18.991  0.00  0.00    +0.000 C 
ATOM     18  C   UNL     1       6.795   4.610  16.933  0.00  0.00    +0.000 C 
ATOM     19  C   UNL     1       5.590   4.424  16.026  0.00  0.00    +0.000 C 
ATOM     20  C   UNL     1       4.324   4.151  16.835  0.00  0.00    +0.000 C 
ATOM     21  N   UNL     1       4.050   5.188  17.845  0.00  0.00    +0.000 NA
ATOM     22  C   UNL     1       5.212   5.374  18.744  0.00  0.00    +0.000 C 
ENDBRANCH  14  21
ENDBRANCH  13  14
ENDBRANCH   1  13
TORSDOF 3
ENDMDL
MODEL 2
REMARK VINA RESULT:      -7.2      6.248      9.026
REMARK  Name = 
REMARK  5 active torsions:
REMARK  status: ('A' for Active; 'I' for Inactive)
REMARK    1  A    between atoms: C_1  and  C_2
REMARK    2  A    between atoms: C_2  and  C_3
REMARK    3  A    between atoms: N_7  and  C_8
REMARK    4  A    between atoms: C_8  and  C_9
REMARK    5  A    between atoms: C_9  and  N_10
REMARK                            x       y       z     vdW  Elec       q    Type
REMARK                         _______ _______ _______ _____ _____    ______ ____
ROOT
ATOM      1  N   UNL     1       8.744   8.121  18.763  0.00  0.00    +0.000 N 
ATOM      2  C   UNL     1       7.858   7.188  18.330  0.00  0.00    +0.000 A 
ATOM      3  N   UNL     1       7.287   7.180  17.141  0.00  0.00    +0.000 NA
ATOM      4  C   UNL     1       6.451   6.092  17.024  0.00  0.00    +0.000 A 
ATOM      5  C   UNL     1       6.364   5.297  18.143  0.00  0.00    +0.000 A 
ATOM      6  S   UNL     1       7.376   5.892  19.371  0.00  0.00    +0.000 S 
ATOM      7  C   UNL     1       5.546   4.112  18.250  0.00  0.00    +0.000 C 
ATOM      8  O   UNL     1       5.389   3.452  19.271  0.00  0.00    +0.000 OA
ATOM      9  C   UNL     1       4.927   3.665  16.922  0.00  0.00    +0.000 C 
ATOM     10  C   UNL     1       4.540   4.849  16.023  0.00  0.00    +0.000 C 
ATOM     11  C   UNL     1       5.726   5.791  15.757  0.00  0.00    +0.000 C 
ATOM     12  H   UNL     1       8.948   8.099  19.754  0.00  0.00    +0.000 HD
ENDROOT
BRANCH   1  13
ATOM     13  C   UNL     1       8.612   9.461  18.189  0.00  0.00    +0.000 C 
BRANCH  13  14
ATOM     14  C   UNL     1       8.999  10.572  19.201  0.00  0.00    +0.000 C 
BRANCH  14  21
ATOM     15  C   UNL     1      11.373  13.348  16.632  0.00  0.00    +0.000 C 
ATOM     16  C   UNL     1      10.758  13.771  17.981  0.00  0.00    +0.000 C 
ATOM     17  C   UNL     1      10.175  15.187  17.812  0.00  0.00    +0.000 C 
ATOM     18  C   UNL     1      11.840  13.820  19.078  0.00  0.00    +0.000 C 
ATOM     19  C   UNL     1      12.330  12.427  19.438  0.00  0.00    +0.000 C 
ATOM     20  C   UNL     1      11.168  11.511  19.812  0.00  0.00    +0.000 C 
ATOM     21  N   UNL     1      10.132  11.435  18.767  0.00  0.00    +0.000 NA
ATOM     22  C   UNL     1       9.637  12.785  18.412  0.00  0.00    +0.000 C 
ENDBRANCH  14  21
ENDBRANCH  13  14
ENDBRANCH   1  13
TORSDOF 3
ENDMDL
MODEL 3
REMARK VINA RESULT:      -7.2      0.966      1.032
REMARK  Name = 
REMARK  5 active torsions:
REMARK  status: ('A' for Active; 'I' for Inactive)
REMARK    1  A    between atoms: C_1  and  C_2
REMARK    2  A    between atoms: C_2  and  C_3
REMARK    3  A    between atoms: N_7  and  C_8
REMARK    4  A    between atoms: C_8  and  C_9
REMARK    5  A    between atoms: C_9  and  N_10
REMARK                            x       y       z     vdW  Elec       q    Type
REMARK                         _______ _______ _______ _____ _____    ______ ____
ROOT
ATOM      1  N   UNL     1       2.721   6.684  18.302  0.00  0.00    +0.000 N 
ATOM      2  C   UNL     1       2.126   7.705  18.971  0.00  0.00    +0.000 A 
ATOM      3  N   UNL     1       1.811   7.690  20.250  0.00  0.00    +0.000 NA
ATOM      4  C   UNL     1       1.231   8.886  20.611  0.00  0.00    +0.000 A 
ATOM      5  C   UNL     1       1.076   9.793  19.588  0.00  0.00    +0.000 A 
ATOM      6  S   UNL     1       1.700   9.163  18.140  0.00  0.00    +0.000 S 
ATOM      7  C   UNL     1       0.488  11.104  19.733  0.00  0.00    +0.000 C 
ATOM      8  O   UNL     1       0.260  11.881  18.812  0.00  0.00    +0.000 OA
ATOM      9  C   UNL     1       0.236  11.513  21.187  0.00  0.00    +0.000 C 
ATOM     10  C   UNL     1      -0.181  10.326  22.070  0.00  0.00    +0.000 C 
ATOM     11  C   UNL     1       0.837   9.176  22.019  0.00  0.00    +0.000 C 
ATOM     12  H   UNL     1       2.728   6.772  17.293  0.00  0.00    +0.000 HD
ENDROOT
BRANCH   1  13
ATOM     13  C   UNL     1       2.457   5.335  18.803  0.00  0.00    +0.000 C 
BRANCH  13  14
ATOM     14  C   UNL     1       3.362   4.272  18.127  0.00  0.00    +0.000 C 
BRANCH  14  21
ATOM     15  C   UNL     1       6.801   7.043  17.464  0.00  0.00    +0.000 C 
ATOM     16  C   UNL     1       6.965   5.624  18.045  0.00  0.00    +0.000 C 
ATOM     17  C   UNL     1       7.994   5.697  19.189  0.00  0.00    +0.000 C 
ATOM     18  C   UNL     1       7.503   4.659  16.970  0.00  0.00    +0.000 C 
ATOM     19  C   UNL     1       6.462   4.385  15.897  0.00  0.00    +0.000 C 
ATOM     20  C   UNL     1       5.151   3.897  16.509  0.00  0.00    +0.000 C 
ATOM     21  N   UNL     1       4.611   4.817  17.525  0.00  0.00    +0.000 NA
ATOM     22  C   UNL     1       5.610   5.086  18.584  0.00  0.00    +0.000 C 
ENDBRANCH  14  21
ENDBRANCH  13  14
ENDBRANCH   1  13
TORSDOF 3
ENDMDL
MODEL 4
REMARK VINA RESULT:      -7.2      1.901      3.275
REMARK  Name = 
REMARK  5 active torsions:
REMARK  status: ('A' for Active; 'I' for Inactive)
REMARK    1  A    between atoms: C_1  and  C_2
REMARK    2  A    between atoms: C_2  and  C_3
REMARK    3  A    between atoms: N_7  and  C_8
REMARK    4  A    between atoms: C_8  and  C_9
REMARK    5  A    between atoms: C_9  and  N_10
REMARK                            x       y       z     vdW  Elec       q    Type
REMARK                         _______ _______ _______ _____ _____    ______ ____
ROOT
ATOM      1  N   UNL     1       2.276   8.380  18.247  0.00  0.00    +0.000 N 
ATOM      2  C   UNL     1       1.578   9.018  19.221  0.00  0.00    +0.000 A 
ATOM      3  N   UNL     1       1.378   8.553  20.438  0.00  0.00    +0.000 NA
ATOM      4  C   UNL     1       0.640   9.452  21.175  0.00  0.00    +0.000 A 
ATOM      5  C   UNL     1       0.251  10.584  20.497  0.00  0.00    +0.000 A 
ATOM      6  S   UNL     1       0.846  10.555  18.907  0.00  0.00    +0.000 S 
ATOM      7  C   UNL     1      -0.533  11.655  21.066  0.00  0.00    +0.000 C 
ATOM      8  O   UNL     1      -0.963  12.621  20.446  0.00  0.00    +0.000 OA
ATOM      9  C   UNL     1      -0.727  11.544  22.581  0.00  0.00    +0.000 C 
ATOM     10  C   UNL     1      -0.865  10.088  23.053  0.00  0.00    +0.000 C 
ATOM     11  C   UNL     1       0.322   9.217  22.613  0.00  0.00    +0.000 C 
ATOM     12  H   UNL     1       2.184   8.772  17.318  0.00  0.00    +0.000 HD
ENDROOT
BRANCH   1  13
ATOM     13  C   UNL     1       2.283   6.918  18.302  0.00  0.00    +0.000 C 
BRANCH  13  14
ATOM     14  C   UNL     1       3.547   6.365  19.012  0.00  0.00    +0.000 C 
BRANCH  14  21
ATOM     15  C   UNL     1       1.655   2.931  21.149  0.00  0.00    +0.000 C 
ATOM     16  C   UNL     1       1.878   2.951  19.624  0.00  0.00    +0.000 C 
ATOM     17  C   UNL     1       0.625   2.357  18.954  0.00  0.00    +0.000 C 
ATOM     18  C   UNL     1       3.091   2.078  19.243  0.00  0.00    +0.000 C 
ATOM     19  C   UNL     1       4.395   2.705  19.708  0.00  0.00    +0.000 C 
ATOM     20  C   UNL     1       4.532   4.139  19.202  0.00  0.00    +0.000 C 
ATOM     21  N   UNL     1       3.391   4.994  19.573  0.00  0.00    +0.000 NA
ATOM     22  C   UNL     1       2.113   4.401  19.118  0.00  0.00    +0.000 C 
ENDBRANCH  14  21
ENDBRANCH  13  14
ENDBRANCH   1  13
TORSDOF 3
ENDMDL
MODEL 5
REMARK VINA RESULT:      -7.1      1.979      2.913
REMARK  Name = 
REMARK  5 active torsions:
REMARK  status: ('A' for Active; 'I' for Inactive)
REMARK    1  A    between atoms: C_1  and  C_2
REMARK    2  A    between atoms: C_2  and  C_3
REMARK    3  A    between atoms: N_7  and  C_8
REMARK    4  A    between atoms: C_8  and  C_9
REMARK    5  A    between atoms: C_9  and  N_10
REMARK                            x       y       z     vdW  Elec       q    Type
REMARK                         _______ _______ _______ _____ _____    ______ ____
ROOT
ATOM      1  N   UNL     1       2.213   8.172  18.220  0.00  0.00    +0.000 N 
ATOM      2  C   UNL     1       1.560   8.887  19.173  0.00  0.00    +0.000 A 
ATOM      3  N   UNL     1       1.331   8.476  20.404  0.00  0.00    +0.000 NA
ATOM      4  C   UNL     1       0.655   9.446  21.110  0.00  0.00    +0.000 A 
ATOM      5  C   UNL     1       0.342  10.578  20.395  0.00  0.00    +0.000 A 
ATOM      6  S   UNL     1       0.932  10.458  18.808  0.00  0.00    +0.000 S 
ATOM      7  C   UNL     1      -0.369  11.717  20.928  0.00  0.00    +0.000 C 
ATOM      8  O   UNL     1      -0.734  12.689  20.276  0.00  0.00    +0.000 OA
ATOM      9  C   UNL     1      -0.568  11.669  22.445  0.00  0.00    +0.000 C 
ATOM     10  C   UNL     1      -0.802  10.242  22.965  0.00  0.00    +0.000 C 
ATOM     11  C   UNL     1       0.324   9.280  22.554  0.00  0.00    +0.000 C 
ATOM     12  H   UNL     1       2.146   8.539  17.279  0.00  0.00    +0.000 HD
ENDROOT
BRANCH   1  13
ATOM     13  C   UNL     1       2.123   6.715  18.323  0.00  0.00    +0.000 C 
BRANCH  13  14
ATOM     14  C   UNL     1       3.486   6.024  18.056  0.00  0.00    +0.000 C 
BRANCH  14  21
ATOM     15  C   UNL     1       4.390   2.287  20.328  0.00  0.00    +0.000 C 
ATOM     16  C   UNL     1       2.964   2.853  20.176  0.00  0.00    +0.000 C 
ATOM     17  C   UNL     1       2.249   2.708  21.533  0.00  0.00    +0.000 C 
ATOM     18  C   UNL     1       2.173   2.052  19.123  0.00  0.00    +0.000 C 
ATOM     19  C   UNL     1       2.705   2.299  17.721  0.00  0.00    +0.000 C 
ATOM     20  C   UNL     1       2.749   3.791  17.400  0.00  0.00    +0.000 C 
ATOM     21  N   UNL     1       3.518   4.572  18.384  0.00  0.00    +0.000 NA
ATOM     22  C   UNL     1       3.004   4.349  19.755  0.00  0.00    +0.000 C 
ENDBRANCH  14  21
ENDBRANCH  13  14
ENDBRANCH   1  13
TORSDOF 3
ENDMDL
MODEL 6
REMARK VINA RESULT:      -7.0      2.089      3.613
REMARK  Name = 
REMARK  5 active torsions:
REMARK  status: ('A' for Active; 'I' for Inactive)
REMARK    1  A    between atoms: C_1  and  C_2
REMARK    2  A    between atoms: C_2  and  C_3
REMARK    3  A    between atoms: N_7  and  C_8
REMARK    4  A    between atoms: C_8  and  C_9
REMARK    5  A    between atoms: C_9  and  N_10
REMARK                            x       y       z     vdW  Elec       q    Type
REMARK                         _______ _______ _______ _____ _____    ______ ____
ROOT
ATOM      1  N   UNL     1       2.218   7.399  19.531  0.00  0.00    +0.000 N 
ATOM      2  C   UNL     1       1.456   8.461  19.901  0.00  0.00    +0.000 A 
ATOM      3  N   UNL     1       0.935   9.344  19.073  0.00  0.00    +0.000 NA
ATOM      4  C   UNL     1       0.212  10.283  19.774  0.00  0.00    +0.000 A 
ATOM      5  C   UNL     1       0.220  10.126  21.141  0.00  0.00    +0.000 A 
ATOM      6  S   UNL     1       1.119   8.753  21.574  0.00  0.00    +0.000 S 
ATOM      7  C   UNL     1      -0.461  10.995  22.072  0.00  0.00    +0.000 C 
ATOM      8  O   UNL     1      -0.384  10.919  23.293  0.00  0.00    +0.000 OA
ATOM      9  C   UNL     1      -1.397  12.007  21.405  0.00  0.00    +0.000 C 
ATOM     10  C   UNL     1      -0.855  12.514  20.060  0.00  0.00    +0.000 C 
ATOM     11  C   UNL     1      -0.547  11.366  19.085  0.00  0.00    +0.000 C 
ATOM     12  H   UNL     1       2.697   6.924  20.286  0.00  0.00    +0.000 HD
ENDROOT
BRANCH   1  13
ATOM     13  C   UNL     1       2.999   7.554  18.304  0.00  0.00    +0.000 C 
BRANCH  13  14
ATOM     14  C   UNL     1       3.575   6.203  17.802  0.00  0.00    +0.000 C 
BRANCH  14  21
ATOM     15  C   UNL     1       1.521   3.521  20.722  0.00  0.00    +0.000 C 
ATOM     16  C   UNL     1       1.873   3.086  19.286  0.00  0.00    +0.000 C 
ATOM     17  C   UNL     1       0.683   2.281  18.730  0.00  0.00    +0.000 C 
ATOM     18  C   UNL     1       3.117   2.175  19.285  0.00  0.00    +0.000 C 
ATOM     19  C   UNL     1       4.374   2.951  19.641  0.00  0.00    +0.000 C 
ATOM     20  C   UNL     1       4.548   4.169  18.735  0.00  0.00    +0.000 C 
ATOM     21  N   UNL     1       3.377   5.062  18.738  0.00  0.00    +0.000 NA
ATOM     22  C   UNL     1       2.144   4.322  18.383  0.00  0.00    +0.000 C 
ENDBRANCH  14  21
ENDBRANCH  13  14
ENDBRANCH   1  13
TORSDOF 3
ENDMDL
MODEL 7
REMARK VINA RESULT:      -6.9      1.692      2.777
REMARK  Name = 
REMARK  5 active torsions:
REMARK  status: ('A' for Active; 'I' for Inactive)
REMARK    1  A    between atoms: C_1  and  C_2
REMARK    2  A    between atoms: C_2  and  C_3
REMARK    3  A    between atoms: N_7  and  C_8
REMARK    4  A    between atoms: C_8  and  C_9
REMARK    5  A    between atoms: C_9  and  N_10
REMARK                            x       y       z     vdW  Elec       q    Type
REMARK                         _______ _______ _______ _____ _____    ______ ____
ROOT
ATOM      1  N   UNL     1       1.671   9.253  17.899  0.00  0.00    +0.000 N 
ATOM      2  C   UNL     1       1.044   9.725  19.008  0.00  0.00    +0.000 A 
ATOM      3  N   UNL     1       1.097   9.169  20.202  0.00  0.00    +0.000 NA
ATOM      4  C   UNL     1       0.358   9.905  21.101  0.00  0.00    +0.000 A 
ATOM      5  C   UNL     1      -0.283  11.001  20.572  0.00  0.00    +0.000 A 
ATOM      6  S   UNL     1       0.065  11.149  18.917  0.00  0.00    +0.000 S 
ATOM      7  C   UNL     1      -1.116  11.909  21.325  0.00  0.00    +0.000 C 
ATOM      8  O   UNL     1      -1.767  12.831  20.847  0.00  0.00    +0.000 OA
ATOM      9  C   UNL     1      -1.063  11.688  22.840  0.00  0.00    +0.000 C 
ATOM     10  C   UNL     1      -0.922  10.204  23.215  0.00  0.00    +0.000 C 
ATOM     11  C   UNL     1       0.297   9.547  22.547  0.00  0.00    +0.000 C 
ATOM     12  H   UNL     1       1.386   9.677  17.025  0.00  0.00    +0.000 HD
ENDROOT
BRANCH   1  13
ATOM     13  C   UNL     1       1.893   7.808  17.842  0.00  0.00    +0.000 C 
BRANCH  13  14
ATOM     14  C   UNL     1       3.402   7.447  17.837  0.00  0.00    +0.000 C 
BRANCH  14  21
ATOM     15  C   UNL     1       3.313   3.462  19.851  0.00  0.00    +0.000 C 
ATOM     16  C   UNL     1       2.633   3.733  18.494  0.00  0.00    +0.000 C 
ATOM     17  C   UNL     1       1.269   3.017  18.496  0.00  0.00    +0.000 C 
ATOM     18  C   UNL     1       3.480   3.159  17.341  0.00  0.00    +0.000 C 
ATOM     19  C   UNL     1       4.768   3.945  17.152  0.00  0.00    +0.000 C 
ATOM     20  C   UNL     1       4.486   5.436  16.978  0.00  0.00    +0.000 C 
ATOM     21  N   UNL     1       3.694   6.007  18.080  0.00  0.00    +0.000 NA
ATOM     22  C   UNL     1       2.431   5.257  18.270  0.00  0.00    +0.000 C 
ENDBRANCH  14  21
ENDBRANCH  13  14
ENDBRANCH   1  13
TORSDOF 3
ENDMDL
MODEL 8
REMARK VINA RESULT:      -6.9      3.511      8.022
REMARK  Name = 
REMARK  5 active torsions:
REMARK  status: ('A' for Active; 'I' for Inactive)
REMARK    1  A    between atoms: C_1  and  C_2
REMARK    2  A    between atoms: C_2  and  C_3
REMARK    3  A    between atoms: N_7  and  C_8
REMARK    4  A    between atoms: C_8  and  C_9
REMARK    5  A    between atoms: C_9  and  N_10
REMARK                            x       y       z     vdW  Elec       q    Type
REMARK                         _______ _______ _______ _____ _____    ______ ____
ROOT
ATOM      1  N   UNL     1       3.352   7.741  17.840  0.00  0.00    +0.000 N 
ATOM      2  C   UNL     1       3.221   6.419  18.125  0.00  0.00    +0.000 A 
ATOM      3  N   UNL     1       2.134   5.704  17.915  0.00  0.00    +0.000 NA
ATOM      4  C   UNL     1       2.342   4.400  18.307  0.00  0.00    +0.000 A 
ATOM      5  C   UNL     1       3.579   4.141  18.848  0.00  0.00    +0.000 A 
ATOM      6  S   UNL     1       4.533   5.546  18.841  0.00  0.00    +0.000 S 
ATOM      7  C   UNL     1       4.013   2.851  19.331  0.00  0.00    +0.000 C 
ATOM      8  O   UNL     1       5.077   2.632  19.900  0.00  0.00    +0.000 OA
ATOM      9  C   UNL     1       3.051   1.708  18.995  0.00  0.00    +0.000 C 
ATOM     10  C   UNL     1       1.579   2.145  19.035  0.00  0.00    +0.000 C 
ATOM     11  C   UNL     1       1.302   3.348  18.119  0.00  0.00    +0.000 C 
ATOM     12  H   UNL     1       4.173   8.189  18.228  0.00  0.00    +0.000 HD
ENDROOT
BRANCH   1  13
ATOM     13  C   UNL     1       2.128   8.542  17.888  0.00  0.00    +0.000 C 
BRANCH  13  14
ATOM     14  C   UNL     1       1.629   8.761  19.341  0.00  0.00    +0.000 C 
BRANCH  14  21
ATOM     15  C   UNL     1       0.045  12.842  18.457  0.00  0.00    +0.000 C 
ATOM     16  C   UNL     1      -0.866  11.630  18.738  0.00  0.00    +0.000 C 
ATOM     17  C   UNL     1      -2.048  11.688  17.752  0.00  0.00    +0.000 C 
ATOM     18  C   UNL     1      -1.427  11.695  20.172  0.00  0.00    +0.000 C 
ATOM     19  C   UNL     1      -0.340  11.453  21.206  0.00  0.00    +0.000 C 
ATOM     20  C   UNL     1       0.402  10.146  20.934  0.00  0.00    +0.000 C 
ATOM     21  N   UNL     1       0.963  10.073  19.574  0.00  0.00    +0.000 NA
ATOM     22  C   UNL     1      -0.087  10.298  18.554  0.00  0.00    +0.000 C 
ENDBRANCH  14  21
ENDBRANCH  13  14
ENDBRANCH   1  13
TORSDOF 3
ENDMDL
MODEL 9
REMARK VINA RESULT:      -6.9      2.307      3.578
REMARK  Name = 
REMARK  5 active torsions:
REMARK  status: ('A' for Active; 'I' for Inactive)
REMARK    1  A    between atoms: C_1  and  C_2
REMARK    2  A    between atoms: C_2  and  C_3
REMARK    3  A    between atoms: N_7  and  C_8
REMARK    4  A    between atoms: C_8  and  C_9
REMARK    5  A    between atoms: C_9  and  N_10
REMARK                            x       y       z     vdW  Elec       q    Type
REMARK                         _______ _______ _______ _____ _____    ______ ____
ROOT
ATOM      1  N   UNL     1       2.618   3.768  19.594  0.00  0.00    +0.000 N 
ATOM      2  C   UNL     1       2.348   5.097  19.515  0.00  0.00    +0.000 A 
ATOM      3  N   UNL     1       2.517   5.841  18.440  0.00  0.00    +0.000 NA
ATOM      4  C   UNL     1       2.139   7.140  18.698  0.00  0.00    +0.000 A 
ATOM      5  C   UNL     1       1.716   7.381  19.985  0.00  0.00    +0.000 A 
ATOM      6  S   UNL     1       1.753   5.950  20.898  0.00  0.00    +0.000 S 
ATOM      7  C   UNL     1       1.281   8.666  20.480  0.00  0.00    +0.000 C 
ATOM      8  O   UNL     1       0.993   8.912  21.646  0.00  0.00    +0.000 OA
ATOM      9  C   UNL     1       1.113   9.726  19.388  0.00  0.00    +0.000 C 
ATOM     10  C   UNL     1       2.156   9.591  18.268  0.00  0.00    +0.000 C 
ATOM     11  C   UNL     1       2.158   8.189  17.639  0.00  0.00    +0.000 C 
ATOM     12  H   UNL     1       2.616   3.379  20.529  0.00  0.00    +0.000 HD
ENDROOT
BRANCH   1  13
ATOM     13  C   UNL     1       3.677   3.265  18.718  0.00  0.00    +0.000 C 
BRANCH  13  14
ATOM     14  C   UNL     1       5.089   3.478  19.325  0.00  0.00    +0.000 C 
BRANCH  14  21
ATOM     15  C   UNL     1       7.183   4.891  15.642  0.00  0.00    +0.000 C 
ATOM     16  C   UNL     1       6.152   5.749  16.404  0.00  0.00    +0.000 C 
ATOM     17  C   UNL     1       5.266   6.459  15.363  0.00  0.00    +0.000 C 
ATOM     18  C   UNL     1       6.863   6.824  17.251  0.00  0.00    +0.000 C 
ATOM     19  C   UNL     1       7.608   6.206  18.422  0.00  0.00    +0.000 C 
ATOM     20  C   UNL     1       6.687   5.323  19.261  0.00  0.00    +0.000 C 
ATOM     21  N   UNL     1       6.014   4.277  18.473  0.00  0.00    +0.000 NA
ATOM     22  C   UNL     1       5.274   4.864  17.332  0.00  0.00    +0.000 C 
ENDBRANCH  14  21
ENDBRANCH  13  14
ENDBRANCH   1  13
TORSDOF 3
ENDMDL
