MODEL 1
REMARK VINA RESULT:      -7.6      0.000      0.000
REMARK  Name = 
REMARK  5 active torsions:
REMARK  status: ('A' for Active; 'I' for Inactive)
REMARK    1  A    between atoms: C_1  and  O_2
REMARK    2  A    between atoms: O_2  and  C_3
REMARK    3  A    between atoms: C_7  and  N_8
REMARK    4  A    between atoms: N_11  and  C_12
REMARK    5  A    between atoms: C_12  and  C_13
REMARK                            x       y       z     vdW  Elec       q    Type
REMARK                         _______ _______ _______ _____ _____    ______ ____
ROOT
ATOM      1  N   UNL     1       5.557   3.688  18.977  0.00  0.00    +0.000 N 
ATOM      2  C   UNL     1       6.055   4.944  18.832  0.00  0.00    +0.000 C 
ATOM      3  O   UNL     1       7.240   5.150  19.115  0.00  0.00    +0.000 OA
ATOM      4  N   UNL     1       5.351   5.966  18.299  0.00  0.00    +0.000 N 
ATOM      5  H   UNL     1       6.296   2.990  18.987  0.00  0.00    +0.000 HD
ATOM      6  H   UNL     1       5.933   6.789  18.227  0.00  0.00    +0.000 HD
ENDROOT
BRANCH   1  11
ATOM      7  C   UNL     1       2.009   3.074  19.682  0.00  0.00    +0.000 A 
ATOM      8  C   UNL     1       1.553   2.788  18.392  0.00  0.00    +0.000 A 
ATOM      9  C   UNL     1       2.453   2.647  17.334  0.00  0.00    +0.000 A 
ATOM     10  C   UNL     1       3.817   2.826  17.553  0.00  0.00    +0.000 A 
ATOM     11  C   UNL     1       4.250   3.251  18.805  0.00  0.00    +0.000 A 
ATOM     12  C   UNL     1       3.366   3.314  19.885  0.00  0.00    +0.000 A 
BRANCH   7  14
ATOM     13  C   UNL     1       1.374   2.616  21.922  0.00  0.00    +0.000 C 
ATOM     14  O   UNL     1       1.036   3.137  20.642  0.00  0.00    +0.000 OA
ENDBRANCH   7  14
ENDBRANCH   1  11
BRANCH   4  15
ATOM     15  C   UNL     1       4.051   6.086  17.663  0.00  0.00    +0.000 C 
BRANCH  15  16
ATOM     16  C   UNL     1       3.048   6.997  18.337  0.00  0.00    +0.000 A 
ATOM     17  C   UNL     1       2.549   6.782  19.631  0.00  0.00    +0.000 A 
ATOM     18  C   UNL     1       1.720   7.727  20.243  0.00  0.00    +0.000 A 
ATOM     19  C   UNL     1       1.355   8.874  19.552  0.00  0.00    +0.000 A 
ATOM     20  F   UNL     1       0.574   9.784  20.147  0.00  0.00    +0.000 F 
ATOM     21  C   UNL     1       1.801   9.096  18.256  0.00  0.00    +0.000 A 
ATOM     22  C   UNL     1       2.647   8.165  17.652  0.00  0.00    +0.000 A 
ENDBRANCH  15  16
ENDBRANCH   4  15
TORSDOF 4
ENDMDL
MODEL 2
REMARK VINA RESULT:      -7.4      2.753      4.411
REMARK  Name = 
REMARK  5 active torsions:
REMARK  status: ('A' for Active; 'I' for Inactive)
REMARK    1  A    between atoms: C_1  and  O_2
REMARK    2  A    between atoms: O_2  and  C_3
REMARK    3  A    between atoms: C_7  and  N_8
REMARK    4  A    between atoms: N_11  and  C_12
REMARK    5  A    between atoms: C_12  and  C_13
REMARK                            x       y       z     vdW  Elec       q    Type
REMARK                         _______ _______ _______ _____ _____    ______ ____
ROOT
ATOM      1  N   UNL     1       3.193   2.917  20.443  0.00  0.00    +0.000 N 
ATOM      2  C   UNL     1       4.480   2.488  20.372  0.00  0.00    +0.000 C 
ATOM      3  O   UNL     1       4.882   1.675  21.212  0.00  0.00    +0.000 OA
ATOM      4  N   UNL     1       5.322   2.823  19.371  0.00  0.00    +0.000 N 
ATOM      5  H   UNL     1       2.611   2.275  20.976  0.00  0.00    +0.000 HD
ATOM      6  H   UNL     1       6.204   2.344  19.483  0.00  0.00    +0.000 HD
ENDROOT
BRANCH   1  11
ATOM      7  C   UNL     1       2.279   6.211  19.111  0.00  0.00    +0.000 A 
ATOM      8  C   UNL     1       1.664   5.826  17.916  0.00  0.00    +0.000 A 
ATOM      9  C   UNL     1       1.420   4.479  17.643  0.00  0.00    +0.000 A 
ATOM     10  C   UNL     1       1.822   3.502  18.552  0.00  0.00    +0.000 A 
ATOM     11  C   UNL     1       2.559   3.881  19.669  0.00  0.00    +0.000 A 
ATOM     12  C   UNL     1       2.735   5.230  19.988  0.00  0.00    +0.000 A 
BRANCH   7  14
ATOM     13  C   UNL     1       2.427   8.356  18.105  0.00  0.00    +0.000 C 
ATOM     14  O   UNL     1       2.416   7.561  19.286  0.00  0.00    +0.000 OA
ENDBRANCH   7  14
ENDBRANCH   1  11
BRANCH   4  15
ATOM     15  C   UNL     1       5.182   3.550  18.122  0.00  0.00    +0.000 C 
BRANCH  15  16
ATOM     16  C   UNL     1       5.899   4.880  18.028  0.00  0.00    +0.000 A 
ATOM     17  C   UNL     1       7.086   5.174  18.716  0.00  0.00    +0.000 A 
ATOM     18  C   UNL     1       7.765   6.375  18.489  0.00  0.00    +0.000 A 
ATOM     19  C   UNL     1       7.241   7.306  17.603  0.00  0.00    +0.000 A 
ATOM     20  F   UNL     1       7.901   8.449  17.376  0.00  0.00    +0.000 F 
ATOM     21  C   UNL     1       6.048   7.061  16.936  0.00  0.00    +0.000 A 
ATOM     22  C   UNL     1       5.381   5.852  17.144  0.00  0.00    +0.000 A 
ENDBRANCH  15  16
ENDBRANCH   4  15
TORSDOF 4
ENDMDL
MODEL 3
REMARK VINA RESULT:      -7.4      2.026      4.387
REMARK  Name = 
REMARK  5 active torsions:
REMARK  status: ('A' for Active; 'I' for Inactive)
REMARK    1  A    between atoms: C_1  and  O_2
REMARK    2  A    between atoms: O_2  and  C_3
REMARK    3  A    between atoms: C_7  and  N_8
REMARK    4  A    between atoms: N_11  and  C_12
REMARK    5  A    between atoms: C_12  and  C_13
REMARK                            x       y       z     vdW  Elec       q    Type
REMARK                         _______ _______ _______ _____ _____    ______ ____
ROOT
ATOM      1  N   UNL     1       5.564   3.561  19.005  0.00  0.00    +0.000 N 
ATOM      2  C   UNL     1       4.216   3.393  18.988  0.00  0.00    +0.000 C 
ATOM      3  O   UNL     1       3.730   2.427  19.587  0.00  0.00    +0.000 OA
ATOM      4  N   UNL     1       3.363   4.281  18.435  0.00  0.00    +0.000 N 
ATOM      5  H   UNL     1       5.996   3.063  19.780  0.00  0.00    +0.000 HD
ATOM      6  H   UNL     1       2.408   3.990  18.592  0.00  0.00    +0.000 HD
ENDROOT
BRANCH   1  11
ATOM      7  C   UNL     1       7.145   5.388  16.244  0.00  0.00    +0.000 A 
ATOM      8  C   UNL     1       7.469   6.580  16.898  0.00  0.00    +0.000 A 
ATOM      9  C   UNL     1       7.304   6.702  18.279  0.00  0.00    +0.000 A 
ATOM     10  C   UNL     1       6.779   5.640  19.012  0.00  0.00    +0.000 A 
ATOM     11  C   UNL     1       6.325   4.512  18.336  0.00  0.00    +0.000 A 
ATOM     12  C   UNL     1       6.563   4.352  16.969  0.00  0.00    +0.000 A 
BRANCH   7  14
ATOM     13  C   UNL     1       6.588   4.514  14.109  0.00  0.00    +0.000 C 
ATOM     14  O   UNL     1       7.400   5.375  14.899  0.00  0.00    +0.000 OA
ENDBRANCH   7  14
ENDBRANCH   1  11
BRANCH   4  15
ATOM     15  C   UNL     1       3.505   5.601  17.848  0.00  0.00    +0.000 C 
BRANCH  15  16
ATOM     16  C   UNL     1       2.721   6.721  18.497  0.00  0.00    +0.000 A 
ATOM     17  C   UNL     1       2.273   6.688  19.827  0.00  0.00    +0.000 A 
ATOM     18  C   UNL     1       1.663   7.805  20.404  0.00  0.00    +0.000 A 
ATOM     19  C   UNL     1       1.460   8.949  19.644  0.00  0.00    +0.000 A 
ATOM     20  F   UNL     1       0.888  10.022  20.204  0.00  0.00    +0.000 F 
ATOM     21  C   UNL     1       1.855   8.999  18.314  0.00  0.00    +0.000 A 
ATOM     22  C   UNL     1       2.487   7.892  17.743  0.00  0.00    +0.000 A 
ENDBRANCH  15  16
ENDBRANCH   4  15
TORSDOF 4
ENDMDL
MODEL 4
REMARK VINA RESULT:      -7.4      2.077      4.160
REMARK  Name = 
REMARK  5 active torsions:
REMARK  status: ('A' for Active; 'I' for Inactive)
REMARK    1  A    between atoms: C_1  and  O_2
REMARK    2  A    between atoms: O_2  and  C_3
REMARK    3  A    between atoms: C_7  and  N_8
REMARK    4  A    between atoms: N_11  and  C_12
REMARK    5  A    between atoms: C_12  and  C_13
REMARK                            x       y       z     vdW  Elec       q    Type
REMARK                         _______ _______ _______ _____ _____    ______ ____
ROOT
ATOM      1  N   UNL     1       5.509   3.440  19.017  0.00  0.00    +0.000 N 
ATOM      2  C   UNL     1       4.462   2.807  19.608  0.00  0.00    +0.000 C 
ATOM      3  O   UNL     1       4.689   2.033  20.544  0.00  0.00    +0.000 OA
ATOM      4  N   UNL     1       3.172   3.053  19.296  0.00  0.00    +0.000 N 
ATOM      5  H   UNL     1       6.326   3.461  19.621  0.00  0.00    +0.000 HD
ATOM      6  H   UNL     1       2.560   2.521  19.900  0.00  0.00    +0.000 HD
ENDROOT
BRANCH   1  11
ATOM      7  C   UNL     1       6.093   6.397  16.924  0.00  0.00    +0.000 A 
ATOM      8  C   UNL     1       5.889   5.840  15.658  0.00  0.00    +0.000 A 
ATOM      9  C   UNL     1       5.406   4.537  15.523  0.00  0.00    +0.000 A 
ATOM     10  C   UNL     1       5.157   3.767  16.657  0.00  0.00    +0.000 A 
ATOM     11  C   UNL     1       5.498   4.275  17.906  0.00  0.00    +0.000 A 
ATOM     12  C   UNL     1       5.903   5.605  18.053  0.00  0.00    +0.000 A 
BRANCH   7  14
ATOM     13  C   UNL     1       7.754   7.959  17.581  0.00  0.00    +0.000 C 
ATOM     14  O   UNL     1       6.519   7.697  16.925  0.00  0.00    +0.000 OA
ENDBRANCH   7  14
ENDBRANCH   1  11
BRANCH   4  15
ATOM     15  C   UNL     1       2.494   4.011  18.441  0.00  0.00    +0.000 C 
BRANCH  15  16
ATOM     16  C   UNL     1       2.322   5.410  18.994  0.00  0.00    +0.000 A 
ATOM     17  C   UNL     1       2.531   6.575  18.242  0.00  0.00    +0.000 A 
ATOM     18  C   UNL     1       2.236   7.833  18.774  0.00  0.00    +0.000 A 
ATOM     19  C   UNL     1       1.766   7.937  20.076  0.00  0.00    +0.000 A 
ATOM     20  F   UNL     1       1.468   9.142  20.579  0.00  0.00    +0.000 F 
ATOM     21  C   UNL     1       1.585   6.805  20.859  0.00  0.00    +0.000 A 
ATOM     22  C   UNL     1       1.858   5.546  20.321  0.00  0.00    +0.000 A 
ENDBRANCH  15  16
ENDBRANCH   4  15
TORSDOF 4
ENDMDL
MODEL 5
REMARK VINA RESULT:      -7.3      2.024      4.456
REMARK  Name = 
REMARK  5 active torsions:
REMARK  status: ('A' for Active; 'I' for Inactive)
REMARK    1  A    between atoms: C_1  and  O_2
REMARK    2  A    between atoms: O_2  and  C_3
REMARK    3  A    between atoms: C_7  and  N_8
REMARK    4  A    between atoms: N_11  and  C_12
REMARK    5  A    between atoms: C_12  and  C_13
REMARK                            x       y       z     vdW  Elec       q    Type
REMARK                         _______ _______ _______ _____ _____    ______ ____
ROOT
ATOM      1  N   UNL     1       5.479   3.698  19.085  0.00  0.00    +0.000 N 
ATOM      2  C   UNL     1       4.127   3.575  19.133  0.00  0.00    +0.000 C 
ATOM      3  O   UNL     1       3.638   2.664  19.810  0.00  0.00    +0.000 OA
ATOM      4  N   UNL     1       3.279   4.456  18.563  0.00  0.00    +0.000 N 
ATOM      5  H   UNL     1       5.928   3.234  19.871  0.00  0.00    +0.000 HD
ATOM      6  H   UNL     1       2.323   4.207  18.776  0.00  0.00    +0.000 HD
ENDROOT
BRANCH   1  11
ATOM      7  C   UNL     1       6.866   5.413  16.152  0.00  0.00    +0.000 A 
ATOM      8  C   UNL     1       7.392   6.553  16.767  0.00  0.00    +0.000 A 
ATOM      9  C   UNL     1       7.421   6.664  18.158  0.00  0.00    +0.000 A 
ATOM     10  C   UNL     1       6.890   5.645  18.947  0.00  0.00    +0.000 A 
ATOM     11  C   UNL     1       6.240   4.582  18.329  0.00  0.00    +0.000 A 
ATOM     12  C   UNL     1       6.281   4.426  16.941  0.00  0.00    +0.000 A 
BRANCH   7  14
ATOM     13  C   UNL     1       6.426   4.246  14.133  0.00  0.00    +0.000 C 
ATOM     14  O   UNL     1       6.942   5.400  14.786  0.00  0.00    +0.000 OA
ENDBRANCH   7  14
ENDBRANCH   1  11
BRANCH   4  15
ATOM     15  C   UNL     1       3.436   5.733  17.889  0.00  0.00    +0.000 C 
BRANCH  15  16
ATOM     16  C   UNL     1       2.747   6.923  18.522  0.00  0.00    +0.000 A 
ATOM     17  C   UNL     1       2.431   8.100  17.827  0.00  0.00    +0.000 A 
ATOM     18  C   UNL     1       1.684   9.112  18.436  0.00  0.00    +0.000 A 
ATOM     19  C   UNL     1       1.282   8.971  19.758  0.00  0.00    +0.000 A 
ATOM     20  F   UNL     1       0.553   9.935  20.334  0.00  0.00    +0.000 F 
ATOM     21  C   UNL     1       1.612   7.835  20.484  0.00  0.00    +0.000 A 
ATOM     22  C   UNL     1       2.338   6.813  19.870  0.00  0.00    +0.000 A 
ENDBRANCH  15  16
ENDBRANCH   4  15
TORSDOF 4
ENDMDL
MODEL 6
REMARK VINA RESULT:      -7.3      2.309      4.221
REMARK  Name = 
REMARK  5 active torsions:
REMARK  status: ('A' for Active; 'I' for Inactive)
REMARK    1  A    between atoms: C_1  and  O_2
REMARK    2  A    between atoms: O_2  and  C_3
REMARK    3  A    between atoms: C_7  and  N_8
REMARK    4  A    between atoms: N_11  and  C_12
REMARK    5  A    between atoms: C_12  and  C_13
REMARK                            x       y       z     vdW  Elec       q    Type
REMARK                         _______ _______ _______ _____ _____    ______ ____
ROOT
ATOM      1  N   UNL     1       5.637   3.589  19.039  0.00  0.00    +0.000 N 
ATOM      2  C   UNL     1       4.530   2.977  19.535  0.00  0.00    +0.000 C 
ATOM      3  O   UNL     1       4.661   2.177  20.467  0.00  0.00    +0.000 OA
ATOM      4  N   UNL     1       3.275   3.270  19.133  0.00  0.00    +0.000 N 
ATOM      5  H   UNL     1       6.407   3.572  19.703  0.00  0.00    +0.000 HD
ATOM      6  H   UNL     1       2.604   2.746  19.677  0.00  0.00    +0.000 HD
ENDROOT
BRANCH   1  11
ATOM      7  C   UNL     1       5.428   4.809  15.584  0.00  0.00    +0.000 A 
ATOM      8  C   UNL     1       5.510   6.186  15.810  0.00  0.00    +0.000 A 
ATOM      9  C   UNL     1       5.792   6.684  17.083  0.00  0.00    +0.000 A 
ATOM     10  C   UNL     1       5.961   5.804  18.151  0.00  0.00    +0.000 A 
ATOM     11  C   UNL     1       5.735   4.446  17.950  0.00  0.00    +0.000 A 
ATOM     12  C   UNL     1       5.534   3.937  16.664  0.00  0.00    +0.000 A 
BRANCH   7  14
ATOM     13  C   UNL     1       6.280   3.826  13.600  0.00  0.00    +0.000 C 
ATOM     14  O   UNL     1       5.198   4.445  14.286  0.00  0.00    +0.000 OA
ENDBRANCH   7  14
ENDBRANCH   1  11
BRANCH   4  15
ATOM     15  C   UNL     1       2.693   4.267  18.252  0.00  0.00    +0.000 C 
BRANCH  15  16
ATOM     16  C   UNL     1       2.421   5.629  18.854  0.00  0.00    +0.000 A 
ATOM     17  C   UNL     1       2.459   6.825  18.122  0.00  0.00    +0.000 A 
ATOM     18  C   UNL     1       2.077   8.035  18.709  0.00  0.00    +0.000 A 
ATOM     19  C   UNL     1       1.693   8.062  20.043  0.00  0.00    +0.000 A 
ATOM     20  F   UNL     1       1.313   9.220  20.598  0.00  0.00    +0.000 F 
ATOM     21  C   UNL     1       1.682   6.902  20.804  0.00  0.00    +0.000 A 
ATOM     22  C   UNL     1       2.041   5.689  20.213  0.00  0.00    +0.000 A 
ENDBRANCH  15  16
ENDBRANCH   4  15
TORSDOF 4
ENDMDL
MODEL 7
REMARK VINA RESULT:      -7.3      2.095      4.045
REMARK  Name = 
REMARK  5 active torsions:
REMARK  status: ('A' for Active; 'I' for Inactive)
REMARK    1  A    between atoms: C_1  and  O_2
REMARK    2  A    between atoms: O_2  and  C_3
REMARK    3  A    between atoms: C_7  and  N_8
REMARK    4  A    between atoms: N_11  and  C_12
REMARK    5  A    between atoms: C_12  and  C_13
REMARK                            x       y       z     vdW  Elec       q    Type
REMARK                         _______ _______ _______ _____ _____    ______ ____
ROOT
ATOM      1  N   UNL     1       5.539   3.410  19.041  0.00  0.00    +0.000 N 
ATOM      2  C   UNL     1       4.516   2.716  19.606  0.00  0.00    +0.000 C 
ATOM      3  O   UNL     1       4.766   1.942  20.536  0.00  0.00    +0.000 OA
ATOM      4  N   UNL     1       3.220   2.901  19.275  0.00  0.00    +0.000 N 
ATOM      5  H   UNL     1       6.344   3.464  19.660  0.00  0.00    +0.000 HD
ATOM      6  H   UNL     1       2.627   2.330  19.861  0.00  0.00    +0.000 HD
ENDROOT
BRANCH   1  11
ATOM      7  C   UNL     1       6.067   6.395  16.974  0.00  0.00    +0.000 A 
ATOM      8  C   UNL     1       5.848   5.852  15.705  0.00  0.00    +0.000 A 
ATOM      9  C   UNL     1       5.374   4.546  15.562  0.00  0.00    +0.000 A 
ATOM     10  C   UNL     1       5.148   3.761  16.691  0.00  0.00    +0.000 A 
ATOM     11  C   UNL     1       5.505   4.257  17.941  0.00  0.00    +0.000 A 
ATOM     12  C   UNL     1       5.901   5.588  18.097  0.00  0.00    +0.000 A 
BRANCH   7  14
ATOM     13  C   UNL     1       7.752   7.956  17.573  0.00  0.00    +0.000 C 
ATOM     14  O   UNL     1       6.482   7.699  16.985  0.00  0.00    +0.000 OA
ENDBRANCH   7  14
ENDBRANCH   1  11
BRANCH   4  15
ATOM     15  C   UNL     1       2.509   3.835  18.420  0.00  0.00    +0.000 C 
BRANCH  15  16
ATOM     16  C   UNL     1       2.195   5.192  19.013  0.00  0.00    +0.000 A 
ATOM     17  C   UNL     1       1.729   5.380  20.323  0.00  0.00    +0.000 A 
ATOM     18  C   UNL     1       1.576   6.665  20.850  0.00  0.00    +0.000 A 
ATOM     19  C   UNL     1       1.852   7.772  20.058  0.00  0.00    +0.000 A 
ATOM     20  F   UNL     1       1.719   9.002  20.570  0.00  0.00    +0.000 F 
ATOM     21  C   UNL     1       2.277   7.619  18.746  0.00  0.00    +0.000 A 
ATOM     22  C   UNL     1       2.453   6.336  18.225  0.00  0.00    +0.000 A 
ENDBRANCH  15  16
ENDBRANCH   4  15
TORSDOF 4
ENDMDL
MODEL 8
REMARK VINA RESULT:      -7.3      2.769      4.537
REMARK  Name = 
REMARK  5 active torsions:
REMARK  status: ('A' for Active; 'I' for Inactive)
REMARK    1  A    between atoms: C_1  and  O_2
REMARK    2  A    between atoms: O_2  and  C_3
REMARK    3  A    between atoms: C_7  and  N_8
REMARK    4  A    between atoms: N_11  and  C_12
REMARK    5  A    between atoms: C_12  and  C_13
REMARK                            x       y       z     vdW  Elec       q    Type
REMARK                         _______ _______ _______ _____ _____    ______ ____
ROOT
ATOM      1  N   UNL     1       3.236   2.994  20.418  0.00  0.00    +0.000 N 
ATOM      2  C   UNL     1       4.523   2.566  20.333  0.00  0.00    +0.000 C 
ATOM      3  O   UNL     1       4.941   1.770  21.180  0.00  0.00    +0.000 OA
ATOM      4  N   UNL     1       5.346   2.886  19.312  0.00  0.00    +0.000 N 
ATOM      5  H   UNL     1       2.665   2.361  20.972  0.00  0.00    +0.000 HD
ATOM      6  H   UNL     1       6.232   2.410  19.418  0.00  0.00    +0.000 HD
ENDROOT
BRANCH   1  11
ATOM      7  C   UNL     1       2.311   6.259  19.022  0.00  0.00    +0.000 A 
ATOM      8  C   UNL     1       1.654   5.846  17.860  0.00  0.00    +0.000 A 
ATOM      9  C   UNL     1       1.387   4.495  17.634  0.00  0.00    +0.000 A 
ATOM     10  C   UNL     1       1.809   3.539  18.557  0.00  0.00    +0.000 A 
ATOM     11  C   UNL     1       2.586   3.942  19.638  0.00  0.00    +0.000 A 
ATOM     12  C   UNL     1       2.786   5.298  19.911  0.00  0.00    +0.000 A 
BRANCH   7  14
ATOM     13  C   UNL     1       2.502   8.366  17.947  0.00  0.00    +0.000 C 
ATOM     14  O   UNL     1       2.468   7.612  19.153  0.00  0.00    +0.000 OA
ENDBRANCH   7  14
ENDBRANCH   1  11
BRANCH   4  15
ATOM     15  C   UNL     1       5.183   3.590  18.053  0.00  0.00    +0.000 C 
BRANCH  15  16
ATOM     16  C   UNL     1       5.962   4.877  17.890  0.00  0.00    +0.000 A 
ATOM     17  C   UNL     1       5.528   5.955  17.103  0.00  0.00    +0.000 A 
ATOM     18  C   UNL     1       6.232   7.162  17.093  0.00  0.00    +0.000 A 
ATOM     19  C   UNL     1       7.395   7.288  17.840  0.00  0.00    +0.000 A 
ATOM     20  F   UNL     1       8.058   8.451  17.841  0.00  0.00    +0.000 F 
ATOM     21  C   UNL     1       7.871   6.227  18.598  0.00  0.00    +0.000 A 
ATOM     22  C   UNL     1       7.157   5.028  18.627  0.00  0.00    +0.000 A 
ENDBRANCH  15  16
ENDBRANCH   4  15
TORSDOF 4
ENDMDL
MODEL 9
REMARK VINA RESULT:      -7.2      0.314      1.124
REMARK  Name = 
REMARK  5 active torsions:
REMARK  status: ('A' for Active; 'I' for Inactive)
REMARK    1  A    between atoms: C_1  and  O_2
REMARK    2  A    between atoms: O_2  and  C_3
REMARK    3  A    between atoms: C_7  and  N_8
REMARK    4  A    between atoms: N_11  and  C_12
REMARK    5  A    between atoms: C_12  and  C_13
REMARK                            x       y       z     vdW  Elec       q    Type
REMARK                         _______ _______ _______ _____ _____    ______ ____
ROOT
ATOM      1  N   UNL     1       5.677   3.906  18.660  0.00  0.00    +0.000 N 
ATOM      2  C   UNL     1       6.110   5.174  18.436  0.00  0.00    +0.000 C 
ATOM      3  O   UNL     1       7.316   5.419  18.549  0.00  0.00    +0.000 OA
ATOM      4  N   UNL     1       5.308   6.167  17.996  0.00  0.00    +0.000 N 
ATOM      5  H   UNL     1       6.432   3.230  18.573  0.00  0.00    +0.000 HD
ATOM      6  H   UNL     1       5.848   7.006  17.836  0.00  0.00    +0.000 HD
ENDROOT
BRANCH   1  11
ATOM      7  C   UNL     1       2.239   3.313  19.795  0.00  0.00    +0.000 A 
ATOM      8  C   UNL     1       1.664   2.870  18.601  0.00  0.00    +0.000 A 
ATOM      9  C   UNL     1       2.456   2.624  17.478  0.00  0.00    +0.000 A 
ATOM     10  C   UNL     1       3.829   2.852  17.532  0.00  0.00    +0.000 A 
ATOM     11  C   UNL     1       4.373   3.428  18.676  0.00  0.00    +0.000 A 
ATOM     12  C   UNL     1       3.601   3.600  19.828  0.00  0.00    +0.000 A 
BRANCH   7  14
ATOM     13  C   UNL     1       1.474   2.530  21.901  0.00  0.00    +0.000 C 
ATOM     14  O   UNL     1       1.367   3.470  20.838  0.00  0.00    +0.000 OA
ENDBRANCH   7  14
ENDBRANCH   1  11
BRANCH   4  15
ATOM     15  C   UNL     1       3.929   6.240  17.546  0.00  0.00    +0.000 C 
BRANCH  15  16
ATOM     16  C   UNL     1       3.042   7.252  18.239  0.00  0.00    +0.000 A 
ATOM     17  C   UNL     1       2.574   8.424  17.627  0.00  0.00    +0.000 A 
ATOM     18  C   UNL     1       1.658   9.255  18.280  0.00  0.00    +0.000 A 
ATOM     19  C   UNL     1       1.236   8.939  19.564  0.00  0.00    +0.000 A 
ATOM     20  F   UNL     1       0.347   9.728  20.181  0.00  0.00    +0.000 F 
ATOM     21  C   UNL     1       1.711   7.807  20.211  0.00  0.00    +0.000 A 
ATOM     22  C   UNL     1       2.607   6.964  19.552  0.00  0.00    +0.000 A 
ENDBRANCH  15  16
ENDBRANCH   4  15
TORSDOF 4
ENDMDL
