MODEL 1
REMARK VINA RESULT:      -7.2      0.000      0.000
REMARK  Name = 
REMARK  4 active torsions:
REMARK  status: ('A' for Active; 'I' for Inactive)
REMARK    1  A    between atoms: C_1  and  N_2
REMARK    2  A    between atoms: N_2  and  C_3
REMARK    3  A    between atoms: C_7  and  C_8
REMARK    4  A    between atoms: C_10  and  C_11
REMARK                            x       y       z     vdW  Elec       q    Type
REMARK                         _______ _______ _______ _____ _____    ______ ____
ROOT
ATOM      1  C   UNL     1       4.172   3.868  18.976  0.00  0.00    +0.000 C 
ATOM      2  C   UNL     1       3.415   3.496  17.676  0.00  0.00    +0.000 C 
ATOM      3  C   UNL     1       1.919   3.824  17.809  0.00  0.00    +0.000 C 
ATOM      4  C   UNL     1       1.332   3.039  18.993  0.00  0.00    +0.000 C 
ATOM      5  C   UNL     1       2.040   3.432  20.308  0.00  0.00    +0.000 C 
ATOM      6  C   UNL     1       1.445   2.653  21.485  0.00  0.00    +0.000 C 
ATOM      7  C   UNL     1       1.868   4.949  20.529  0.00  0.00    +0.000 C 
ATOM      8  C   UNL     1       2.473   5.746  19.352  0.00  0.00    +0.000 C 
ATOM      9  C   UNL     1       2.295   7.250  19.586  0.00  0.00    +0.000 C 
ATOM     10  C   UNL     1       1.752   5.331  18.052  0.00  0.00    +0.000 C 
ATOM     11  C   UNL     1       3.975   5.390  19.229  0.00  0.00    +0.000 C 
ATOM     12  C   UNL     1       3.545   3.114  20.174  0.00  0.00    +0.000 C 
ENDROOT
BRANCH   1  14
ATOM     13  C   UNL     1       6.399   4.623  18.193  0.00  0.00    +0.000 C 
ATOM     14  N   UNL     1       5.621   3.608  18.892  0.00  0.00    +0.000 NA
ATOM     15  H   UNL     1       6.006   3.482  19.826  0.00  0.00    +0.000 HD
ENDBRANCH   1  14
TORSDOF 1
ENDMDL
MODEL 2
REMARK VINA RESULT:      -6.6      2.457      4.218
REMARK  Name = 
REMARK  4 active torsions:
REMARK  status: ('A' for Active; 'I' for Inactive)
REMARK    1  A    between atoms: C_1  and  N_2
REMARK    2  A    between atoms: N_2  and  C_3
REMARK    3  A    between atoms: C_7  and  C_8
REMARK    4  A    between atoms: C_10  and  C_11
REMARK                            x       y       z     vdW  Elec       q    Type
REMARK                         _______ _______ _______ _____ _____    ______ ____
ROOT
ATOM      1  C   UNL     1       5.833   4.404  16.051  0.00  0.00    +0.000 C 
ATOM      2  C   UNL     1       5.451   5.782  15.453  0.00  0.00    +0.000 C 
ATOM      3  C   UNL     1       5.107   6.780  16.571  0.00  0.00    +0.000 C 
ATOM      4  C   UNL     1       3.933   6.229  17.396  0.00  0.00    +0.000 C 
ATOM      5  C   UNL     1       4.310   4.880  18.043  0.00  0.00    +0.000 C 
ATOM      6  C   UNL     1       3.140   4.341  18.871  0.00  0.00    +0.000 C 
ATOM      7  C   UNL     1       5.549   5.088  18.940  0.00  0.00    +0.000 C 
ATOM      8  C   UNL     1       6.740   5.623  18.113  0.00  0.00    +0.000 C 
ATOM      9  C   UNL     1       7.962   5.824  19.016  0.00  0.00    +0.000 C 
ATOM     10  C   UNL     1       6.334   6.968  17.475  0.00  0.00    +0.000 C 
ATOM     11  C   UNL     1       7.059   4.608  16.986  0.00  0.00    +0.000 C 
ATOM     12  C   UNL     1       4.668   3.877  16.923  0.00  0.00    +0.000 C 
ENDROOT
BRANCH   1  14
ATOM     13  C   UNL     1       6.305   3.931  13.664  0.00  0.00    +0.000 C 
ATOM     14  N   UNL     1       6.209   3.415  15.024  0.00  0.00    +0.000 NA
ATOM     15  H   UNL     1       7.091   2.973  15.274  0.00  0.00    +0.000 HD
ENDBRANCH   1  14
TORSDOF 1
ENDMDL
MODEL 3
REMARK VINA RESULT:      -6.6      2.419      4.876
REMARK  Name = 
REMARK  4 active torsions:
REMARK  status: ('A' for Active; 'I' for Inactive)
REMARK    1  A    between atoms: C_1  and  N_2
REMARK    2  A    between atoms: N_2  and  C_3
REMARK    3  A    between atoms: C_7  and  C_8
REMARK    4  A    between atoms: C_10  and  C_11
REMARK                            x       y       z     vdW  Elec       q    Type
REMARK                         _______ _______ _______ _____ _____    ______ ____
ROOT
ATOM      1  C   UNL     1       4.370   4.474  17.891  0.00  0.00    +0.000 C 
ATOM      2  C   UNL     1       3.801   5.861  17.499  0.00  0.00    +0.000 C 
ATOM      3  C   UNL     1       4.863   6.691  16.759  0.00  0.00    +0.000 C 
ATOM      4  C   UNL     1       6.088   6.871  17.669  0.00  0.00    +0.000 C 
ATOM      5  C   UNL     1       6.701   5.502  18.031  0.00  0.00    +0.000 C 
ATOM      6  C   UNL     1       7.927   5.688  18.930  0.00  0.00    +0.000 C 
ATOM      7  C   UNL     1       7.099   4.776  16.728  0.00  0.00    +0.000 C 
ATOM      8  C   UNL     1       5.867   4.574  15.816  0.00  0.00    +0.000 C 
ATOM      9  C   UNL     1       6.277   3.853  14.528  0.00  0.00    +0.000 C 
ATOM     10  C   UNL     1       5.273   5.957  15.475  0.00  0.00    +0.000 C 
ATOM     11  C   UNL     1       4.808   3.747  16.587  0.00  0.00    +0.000 C 
ATOM     12  C   UNL     1       5.634   4.660  18.765  0.00  0.00    +0.000 C 
ENDROOT
BRANCH   1  14
ATOM     13  C   UNL     1       3.216   2.284  18.012  0.00  0.00    +0.000 C 
ATOM     14  N   UNL     1       3.381   3.618  18.573  0.00  0.00    +0.000 NA
ATOM     15  H   UNL     1       3.616   3.536  19.560  0.00  0.00    +0.000 HD
ENDBRANCH   1  14
TORSDOF 1
ENDMDL
MODEL 4
REMARK VINA RESULT:      -6.4      2.324      4.606
REMARK  Name = 
REMARK  4 active torsions:
REMARK  status: ('A' for Active; 'I' for Inactive)
REMARK    1  A    between atoms: C_1  and  N_2
REMARK    2  A    between atoms: N_2  and  C_3
REMARK    3  A    between atoms: C_7  and  C_8
REMARK    4  A    between atoms: C_10  and  C_11
REMARK                            x       y       z     vdW  Elec       q    Type
REMARK                         _______ _______ _______ _____ _____    ______ ____
ROOT
ATOM      1  C   UNL     1       6.698   5.013  17.776  0.00  0.00    +0.000 C 
ATOM      2  C   UNL     1       6.360   6.520  17.650  0.00  0.00    +0.000 C 
ATOM      3  C   UNL     1       5.103   6.721  16.786  0.00  0.00    +0.000 C 
ATOM      4  C   UNL     1       5.348   6.125  15.391  0.00  0.00    +0.000 C 
ATOM      5  C   UNL     1       5.637   4.613  15.490  0.00  0.00    +0.000 C 
ATOM      6  C   UNL     1       5.870   4.023  14.096  0.00  0.00    +0.000 C 
ATOM      7  C   UNL     1       4.436   3.921  16.169  0.00  0.00    +0.000 C 
ATOM      8  C   UNL     1       4.196   4.502  17.581  0.00  0.00    +0.000 C 
ATOM      9  C   UNL     1       3.001   3.806  18.242  0.00  0.00    +0.000 C 
ATOM     10  C   UNL     1       3.915   6.014  17.452  0.00  0.00    +0.000 C 
ATOM     11  C   UNL     1       5.478   4.299  18.427  0.00  0.00    +0.000 C 
ATOM     12  C   UNL     1       6.892   4.405  16.366  0.00  0.00    +0.000 C 
ENDROOT
BRANCH   1  14
ATOM     13  C   UNL     1       8.108   5.731  19.684  0.00  0.00    +0.000 C 
ATOM     14  N   UNL     1       7.876   4.757  18.626  0.00  0.00    +0.000 NA
ATOM     15  H   UNL     1       7.810   3.829  19.039  0.00  0.00    +0.000 HD
ENDBRANCH   1  14
TORSDOF 1
ENDMDL
MODEL 5
REMARK VINA RESULT:      -6.2      1.804      4.030
REMARK  Name = 
REMARK  4 active torsions:
REMARK  status: ('A' for Active; 'I' for Inactive)
REMARK    1  A    between atoms: C_1  and  N_2
REMARK    2  A    between atoms: N_2  and  C_3
REMARK    3  A    between atoms: C_7  and  C_8
REMARK    4  A    between atoms: C_10  and  C_11
REMARK                            x       y       z     vdW  Elec       q    Type
REMARK                         _______ _______ _______ _____ _____    ______ ____
ROOT
ATOM      1  C   UNL     1       3.193   3.577  17.761  0.00  0.00    +0.000 C 
ATOM      2  C   UNL     1       3.985   3.356  19.075  0.00  0.00    +0.000 C 
ATOM      3  C   UNL     1       5.010   4.484  19.284  0.00  0.00    +0.000 C 
ATOM      4  C   UNL     1       5.979   4.513  18.092  0.00  0.00    +0.000 C 
ATOM      5  C   UNL     1       5.215   4.782  16.778  0.00  0.00    +0.000 C 
ATOM      6  C   UNL     1       6.188   4.820  15.596  0.00  0.00    +0.000 C 
ATOM      7  C   UNL     1       4.473   6.129  16.903  0.00  0.00    +0.000 C 
ATOM      8  C   UNL     1       3.482   6.100  18.088  0.00  0.00    +0.000 C 
ATOM      9  C   UNL     1       2.752   7.443  18.198  0.00  0.00    +0.000 C 
ATOM     10  C   UNL     1       4.270   5.825  19.385  0.00  0.00    +0.000 C 
ATOM     11  C   UNL     1       2.469   4.950  17.861  0.00  0.00    +0.000 C 
ATOM     12  C   UNL     1       4.178   3.657  16.570  0.00  0.00    +0.000 C 
ENDROOT
BRANCH   1  14
ATOM     13  C   UNL     1       1.252   2.306  18.636  0.00  0.00    +0.000 C 
ATOM     14  N   UNL     1       2.168   2.543  17.527  0.00  0.00    +0.000 NA
ATOM     15  H   UNL     1       1.629   2.771  16.695  0.00  0.00    +0.000 HD
ENDBRANCH   1  14
TORSDOF 1
ENDMDL
MODEL 6
REMARK VINA RESULT:      -6.2      2.014      3.896
REMARK  Name = 
REMARK  4 active torsions:
REMARK  status: ('A' for Active; 'I' for Inactive)
REMARK    1  A    between atoms: C_1  and  N_2
REMARK    2  A    between atoms: N_2  and  C_3
REMARK    3  A    between atoms: C_7  and  C_8
REMARK    4  A    between atoms: C_10  and  C_11
REMARK                            x       y       z     vdW  Elec       q    Type
REMARK                         _______ _______ _______ _____ _____    ______ ____
ROOT
ATOM      1  C   UNL     1       5.488   4.849  16.804  0.00  0.00    +0.000 C 
ATOM      2  C   UNL     1       6.213   4.649  18.159  0.00  0.00    +0.000 C 
ATOM      3  C   UNL     1       5.196   4.563  19.309  0.00  0.00    +0.000 C 
ATOM      4  C   UNL     1       4.368   5.858  19.349  0.00  0.00    +0.000 C 
ATOM      5  C   UNL     1       3.598   6.050  18.025  0.00  0.00    +0.000 C 
ATOM      6  C   UNL     1       2.767   7.336  18.076  0.00  0.00    +0.000 C 
ATOM      7  C   UNL     1       2.679   4.830  17.804  0.00  0.00    +0.000 C 
ATOM      8  C   UNL     1       3.507   3.526  17.743  0.00  0.00    +0.000 C 
ATOM      9  C   UNL     1       2.582   2.324  17.522  0.00  0.00    +0.000 C 
ATOM     10  C   UNL     1       4.269   3.362  19.074  0.00  0.00    +0.000 C 
ATOM     11  C   UNL     1       4.532   3.641  16.587  0.00  0.00    +0.000 C 
ATOM     12  C   UNL     1       4.616   6.126  16.867  0.00  0.00    +0.000 C 
ENDROOT
BRANCH   1  14
ATOM     13  C   UNL     1       5.991   4.162  14.476  0.00  0.00    +0.000 C 
ATOM     14  N   UNL     1       6.415   4.902  15.658  0.00  0.00    +0.000 NA
ATOM     15  H   UNL     1       6.591   5.870  15.398  0.00  0.00    +0.000 HD
ENDBRANCH   1  14
TORSDOF 1
ENDMDL
MODEL 7
REMARK VINA RESULT:      -6.2      1.166      3.369
REMARK  Name = 
REMARK  4 active torsions:
REMARK  status: ('A' for Active; 'I' for Inactive)
REMARK    1  A    between atoms: C_1  and  N_2
REMARK    2  A    between atoms: N_2  and  C_3
REMARK    3  A    between atoms: C_7  and  C_8
REMARK    4  A    between atoms: C_10  and  C_11
REMARK                            x       y       z     vdW  Elec       q    Type
REMARK                         _______ _______ _______ _____ _____    ______ ____
ROOT
ATOM      1  C   UNL     1       3.055   3.458  19.892  0.00  0.00    +0.000 C 
ATOM      2  C   UNL     1       2.210   2.925  18.707  0.00  0.00    +0.000 C 
ATOM      3  C   UNL     1       2.365   3.838  17.479  0.00  0.00    +0.000 C 
ATOM      4  C   UNL     1       1.907   5.259  17.845  0.00  0.00    +0.000 C 
ATOM      5  C   UNL     1       2.769   5.828  18.991  0.00  0.00    +0.000 C 
ATOM      6  C   UNL     1       2.314   7.248  19.344  0.00  0.00    +0.000 C 
ATOM      7  C   UNL     1       4.247   5.836  18.545  0.00  0.00    +0.000 C 
ATOM      8  C   UNL     1       4.720   4.408  18.194  0.00  0.00    +0.000 C 
ATOM      9  C   UNL     1       6.188   4.432  17.753  0.00  0.00    +0.000 C 
ATOM     10  C   UNL     1       3.839   3.862  17.051  0.00  0.00    +0.000 C 
ATOM     11  C   UNL     1       4.543   3.505  19.441  0.00  0.00    +0.000 C 
ATOM     12  C   UNL     1       2.625   4.908  20.223  0.00  0.00    +0.000 C 
ENDROOT
BRANCH   1  14
ATOM     13  C   UNL     1       1.684   2.594  21.768  0.00  0.00    +0.000 C 
ATOM     14  N   UNL     1       2.974   2.600  21.089  0.00  0.00    +0.000 NA
ATOM     15  H   UNL     1       3.225   1.644  20.848  0.00  0.00    +0.000 HD
ENDBRANCH   1  14
TORSDOF 1
ENDMDL
MODEL 8
REMARK VINA RESULT:      -6.2      1.416      2.215
REMARK  Name = 
REMARK  4 active torsions:
REMARK  status: ('A' for Active; 'I' for Inactive)
REMARK    1  A    between atoms: C_1  and  N_2
REMARK    2  A    between atoms: N_2  and  C_3
REMARK    3  A    between atoms: C_7  and  C_8
REMARK    4  A    between atoms: C_10  and  C_11
REMARK                            x       y       z     vdW  Elec       q    Type
REMARK                         _______ _______ _______ _____ _____    ______ ____
ROOT
ATOM      1  C   UNL     1       4.159   2.502  19.341  0.00  0.00    +0.000 C 
ATOM      2  C   UNL     1       3.510   1.716  18.173  0.00  0.00    +0.000 C 
ATOM      3  C   UNL     1       2.458   2.581  17.459  0.00  0.00    +0.000 C 
ATOM      4  C   UNL     1       1.377   2.999  18.468  0.00  0.00    +0.000 C 
ATOM      5  C   UNL     1       1.995   3.826  19.615  0.00  0.00    +0.000 C 
ATOM      6  C   UNL     1       0.911   4.247  20.612  0.00  0.00    +0.000 C 
ATOM      7  C   UNL     1       2.681   5.071  19.014  0.00  0.00    +0.000 C 
ATOM      8  C   UNL     1       3.783   4.659  18.012  0.00  0.00    +0.000 C 
ATOM      9  C   UNL     1       4.455   5.905  17.424  0.00  0.00    +0.000 C 
ATOM     10  C   UNL     1       3.139   3.830  16.881  0.00  0.00    +0.000 C 
ATOM     11  C   UNL     1       4.823   3.780  18.751  0.00  0.00    +0.000 C 
ATOM     12  C   UNL     1       3.061   2.965  20.328  0.00  0.00    +0.000 C 
ENDROOT
BRANCH   1  14
ATOM     13  C   UNL     1       4.866   1.304  21.392  0.00  0.00    +0.000 C 
ATOM     14  N   UNL     1       5.205   1.733  20.041  0.00  0.00    +0.000 NA
ATOM     15  H   UNL     1       5.464   0.918  19.489  0.00  0.00    +0.000 HD
ENDBRANCH   1  14
TORSDOF 1
ENDMDL
MODEL 9
REMARK VINA RESULT:      -6.1      1.389      3.355
REMARK  Name = 
REMARK  4 active torsions:
REMARK  status: ('A' for Active; 'I' for Inactive)
REMARK    1  A    between atoms: C_1  and  N_2
REMARK    2  A    between atoms: N_2  and  C_3
REMARK    3  A    between atoms: C_7  and  C_8
REMARK    4  A    between atoms: C_10  and  C_11
REMARK                            x       y       z     vdW  Elec       q    Type
REMARK                         _______ _______ _______ _____ _____    ______ ____
ROOT
ATOM      1  C   UNL     1       4.577   3.999  17.458  0.00  0.00    +0.000 C 
ATOM      2  C   UNL     1       5.177   3.961  18.887  0.00  0.00    +0.000 C 
ATOM      3  C   UNL     1       4.140   4.432  19.921  0.00  0.00    +0.000 C 
ATOM      4  C   UNL     1       3.701   5.865  19.580  0.00  0.00    +0.000 C 
ATOM      5  C   UNL     1       3.055   5.916  18.179  0.00  0.00    +0.000 C 
ATOM      6  C   UNL     1       2.611   7.344  17.849  0.00  0.00    +0.000 C 
ATOM      7  C   UNL     1       1.842   4.961  18.157  0.00  0.00    +0.000 C 
ATOM      8  C   UNL     1       2.279   3.514  18.480  0.00  0.00    +0.000 C 
ATOM      9  C   UNL     1       1.066   2.578  18.455  0.00  0.00    +0.000 C 
ATOM     10  C   UNL     1       2.926   3.495  19.882  0.00  0.00    +0.000 C 
ATOM     11  C   UNL     1       3.331   3.067  17.435  0.00  0.00    +0.000 C 
ATOM     12  C   UNL     1       4.089   5.433  17.139  0.00  0.00    +0.000 C 
ENDROOT
BRANCH   1  14
ATOM     13  C   UNL     1       6.673   4.377  16.190  0.00  0.00    +0.000 C 
ATOM     14  N   UNL     1       5.517   3.522  16.427  0.00  0.00    +0.000 NA
ATOM     15  H   UNL     1       5.840   2.585  16.659  0.00  0.00    +0.000 HD
ENDBRANCH   1  14
TORSDOF 1
ENDMDL
