MODEL 1
REMARK VINA RESULT:      -8.2      0.000      0.000
REMARK  Name = 
REMARK  7 active torsions:
REMARK  status: ('A' for Active; 'I' for Inactive)
REMARK    1  A    between atoms: C_1  and  O_2
REMARK    2  A    between atoms: O_2  and  C_3
REMARK    3  A    between atoms: C_6  and  N_7
REMARK    4  A    between atoms: C_11  and  C_12
REMARK    5  A    between atoms: C_12  and  N_13
REMARK    6  A    between atoms: C_20  and  C_21
REMARK    7  A    between atoms: C_21  and  C_22
REMARK                            x       y       z     vdW  Elec       q    Type
REMARK                         _______ _______ _______ _____ _____    ______ ____
ROOT
ATOM      1  N   UNL     1      -0.686  10.580  21.637  0.00  0.00    +0.000 NA
ATOM      2  C   UNL     1      -0.439  10.445  20.178  0.00  0.00    +0.000 C 
ATOM      3  C   UNL     1       0.848   9.760  19.643  0.00  0.00    +0.000 C 
ATOM      4  N   UNL     1       1.222   8.591  20.427  0.00  0.00    +0.000 N 
ATOM      5  C   UNL     1       1.956   7.579  19.850  0.00  0.00    +0.000 A 
ATOM      6  N   UNL     1       2.482   7.788  18.587  0.00  0.00    +0.000 NA
ATOM      7  C   UNL     1       3.036   6.722  17.970  0.00  0.00    +0.000 A 
ATOM      8  C   UNL     1       3.080   5.443  18.482  0.00  0.00    +0.000 A 
ATOM      9  C   UNL     1       2.590   5.373  19.766  0.00  0.00    +0.000 A 
ATOM     10  N   UNL     1       2.063   6.410  20.450  0.00  0.00    +0.000 NA
ATOM     11  C   UNL     1       1.159   8.694  21.884  0.00  0.00    +0.000 C 
ATOM     12  C   UNL     1      -0.107   9.452  22.396  0.00  0.00    +0.000 C 
ENDROOT
BRANCH   1  13
ATOM     13  C   UNL     1      -0.278  11.923  22.072  0.00  0.00    +0.000 C 
BRANCH  13  19
ATOM     14  C   UNL     1      -0.855  14.192  22.948  0.00  0.00    +0.000 A 
ATOM     15  C   UNL     1      -1.686  15.087  23.634  0.00  0.00    +0.000 A 
ATOM     16  C   UNL     1      -2.969  14.692  24.071  0.00  0.00    +0.000 A 
ATOM     17  C   UNL     1      -3.447  13.397  23.784  0.00  0.00    +0.000 A 
ATOM     18  C   UNL     1      -2.591  12.478  23.123  0.00  0.00    +0.000 A 
ATOM     19  C   UNL     1      -1.272  12.853  22.745  0.00  0.00    +0.000 A 
BRANCH  17  20
ATOM     20  N   UNL     1      -4.795  13.017  24.174  0.00  0.00    +0.000 N 
ATOM     21  O   UNL     1      -4.942  11.942  24.787  0.00  0.00    +0.000 OA
ATOM     22  O   UNL     1      -5.723  13.784  23.879  0.00  0.00    +0.000 OA
ENDBRANCH  17  20
BRANCH  14  24
ATOM     23  C   UNL     1       0.894  15.774  22.350  0.00  0.00    +0.000 C 
ATOM     24  O   UNL     1       0.479  14.499  22.841  0.00  0.00    +0.000 OA
ENDBRANCH  14  24
ENDBRANCH  13  19
ENDBRANCH   1  13
BRANCH   8  25
ATOM     25  C   UNL     1       3.554   4.240  17.739  0.00  0.00    +0.000 C 
BRANCH  25  26
ATOM     26  C   UNL     1       4.866   4.393  17.005  0.00  0.00    +0.000 A 
ATOM     27  C   UNL     1       6.075   4.515  17.712  0.00  0.00    +0.000 A 
ATOM     28  C   UNL     1       7.289   4.621  17.030  0.00  0.00    +0.000 A 
ATOM     29  C   UNL     1       7.313   4.601  15.638  0.00  0.00    +0.000 A 
ATOM     30  C   UNL     1       6.123   4.478  14.925  0.00  0.00    +0.000 A 
ATOM     31  C   UNL     1       4.907   4.378  15.602  0.00  0.00    +0.000 A 
ENDBRANCH  25  26
ENDBRANCH   8  25
TORSDOF 6
ENDMDL
MODEL 2
REMARK VINA RESULT:      -7.9      4.323     11.720
REMARK  Name = 
REMARK  7 active torsions:
REMARK  status: ('A' for Active; 'I' for Inactive)
REMARK    1  A    between atoms: C_1  and  O_2
REMARK    2  A    between atoms: O_2  and  C_3
REMARK    3  A    between atoms: C_6  and  N_7
REMARK    4  A    between atoms: C_11  and  C_12
REMARK    5  A    between atoms: C_12  and  N_13
REMARK    6  A    between atoms: C_20  and  C_21
REMARK    7  A    between atoms: C_21  and  C_22
REMARK                            x       y       z     vdW  Elec       q    Type
REMARK                         _______ _______ _______ _____ _____    ______ ____
ROOT
ATOM      1  N   UNL     1       2.598   7.608  19.081  0.00  0.00    +0.000 NA
ATOM      2  C   UNL     1       2.156   8.915  18.528  0.00  0.00    +0.000 C 
ATOM      3  C   UNL     1       0.799   9.544  18.946  0.00  0.00    +0.000 C 
ATOM      4  N   UNL     1       0.515   9.363  20.362  0.00  0.00    +0.000 N 
ATOM      5  C   UNL     1      -0.305  10.252  21.021  0.00  0.00    +0.000 A 
ATOM      6  N   UNL     1      -0.992  11.190  20.271  0.00  0.00    +0.000 NA
ATOM      7  C   UNL     1      -1.640  12.162  20.950  0.00  0.00    +0.000 A 
ATOM      8  C   UNL     1      -1.635  12.311  22.320  0.00  0.00    +0.000 A 
ATOM      9  C   UNL     1      -0.979  11.284  22.959  0.00  0.00    +0.000 A 
ATOM     10  N   UNL     1      -0.349  10.264  22.338  0.00  0.00    +0.000 NA
ATOM     11  C   UNL     1       0.774   8.050  20.951  0.00  0.00    +0.000 C 
ATOM     12  C   UNL     1       2.108   7.405  20.460  0.00  0.00    +0.000 C 
ENDROOT
BRANCH   1  13
ATOM     13  C   UNL     1       2.273   6.545  18.120  0.00  0.00    +0.000 C 
BRANCH  13  19
ATOM     14  C   UNL     1       2.891   4.227  17.418  0.00  0.00    +0.000 A 
ATOM     15  C   UNL     1       3.820   3.233  17.088  0.00  0.00    +0.000 A 
ATOM     16  C   UNL     1       5.190   3.543  16.949  0.00  0.00    +0.000 A 
ATOM     17  C   UNL     1       5.635   4.871  17.101  0.00  0.00    +0.000 A 
ATOM     18  C   UNL     1       4.700   5.872  17.473  0.00  0.00    +0.000 A 
ATOM     19  C   UNL     1       3.330   5.547  17.683  0.00  0.00    +0.000 A 
BRANCH  17  20
ATOM     20  N   UNL     1       7.036   5.198  16.888  0.00  0.00    +0.000 N 
ATOM     21  O   UNL     1       7.891   4.491  17.454  0.00  0.00    +0.000 OA
ATOM     22  O   UNL     1       7.302   6.160  16.152  0.00  0.00    +0.000 OA
ENDBRANCH  17  20
BRANCH  14  24
ATOM     23  C   UNL     1       1.521   2.725  18.756  0.00  0.00    +0.000 C 
ATOM     24  O   UNL     1       1.653   3.834  17.865  0.00  0.00    +0.000 OA
ENDBRANCH  14  24
ENDBRANCH  13  19
ENDBRANCH   1  13
BRANCH   8  25
ATOM     25  C   UNL     1      -2.222  13.467  23.056  0.00  0.00    +0.000 C 
BRANCH  25  26
ATOM     26  C   UNL     1      -3.689  13.353  23.402  0.00  0.00    +0.000 A 
ATOM     27  C   UNL     1      -4.651  14.113  22.714  0.00  0.00    +0.000 A 
ATOM     28  C   UNL     1      -6.009  13.978  23.014  0.00  0.00    +0.000 A 
ATOM     29  C   UNL     1      -6.423  13.083  23.997  0.00  0.00    +0.000 A 
ATOM     30  C   UNL     1      -5.480  12.323  24.685  0.00  0.00    +0.000 A 
ATOM     31  C   UNL     1      -4.122  12.457  24.393  0.00  0.00    +0.000 A 
ENDBRANCH  25  26
ENDBRANCH   8  25
TORSDOF 6
ENDMDL
MODEL 3
REMARK VINA RESULT:      -7.8      4.964     11.145
REMARK  Name = 
REMARK  7 active torsions:
REMARK  status: ('A' for Active; 'I' for Inactive)
REMARK    1  A    between atoms: C_1  and  O_2
REMARK    2  A    between atoms: O_2  and  C_3
REMARK    3  A    between atoms: C_6  and  N_7
REMARK    4  A    between atoms: C_11  and  C_12
REMARK    5  A    between atoms: C_12  and  N_13
REMARK    6  A    between atoms: C_20  and  C_21
REMARK    7  A    between atoms: C_21  and  C_22
REMARK                            x       y       z     vdW  Elec       q    Type
REMARK                         _______ _______ _______ _____ _____    ______ ____
ROOT
ATOM      1  N   UNL     1       2.412   7.576  18.930  0.00  0.00    +0.000 NA
ATOM      2  C   UNL     1       2.344   8.638  17.893  0.00  0.00    +0.000 C 
ATOM      3  C   UNL     1       1.216   9.706  17.914  0.00  0.00    +0.000 C 
ATOM      4  N   UNL     1       0.905  10.159  19.262  0.00  0.00    +0.000 N 
ATOM      5  C   UNL     1       0.367  11.411  19.462  0.00  0.00    +0.000 A 
ATOM      6  N   UNL     1      -0.040  12.135  18.356  0.00  0.00    +0.000 NA
ATOM      7  C   UNL     1      -0.389  13.424  18.561  0.00  0.00    +0.000 A 
ATOM      8  C   UNL     1      -0.332  14.078  19.772  0.00  0.00    +0.000 A 
ATOM      9  C   UNL     1       0.021  13.242  20.807  0.00  0.00    +0.000 A 
ATOM     10  N   UNL     1       0.340  11.937  20.671  0.00  0.00    +0.000 NA
ATOM     11  C   UNL     1       0.797   9.152  20.317  0.00  0.00    +0.000 C 
ATOM     12  C   UNL     1       1.897   8.048  20.231  0.00  0.00    +0.000 C 
ENDROOT
BRANCH   1  13
ATOM     13  C   UNL     1       1.799   6.349  18.402  0.00  0.00    +0.000 C 
BRANCH  13  19
ATOM     14  C   UNL     1       2.145   3.874  18.435  0.00  0.00    +0.000 A 
ATOM     15  C   UNL     1       2.913   2.722  18.224  0.00  0.00    +0.000 A 
ATOM     16  C   UNL     1       4.166   2.797  17.579  0.00  0.00    +0.000 A 
ATOM     17  C   UNL     1       4.643   4.034  17.101  0.00  0.00    +0.000 A 
ATOM     18  C   UNL     1       3.883   5.207  17.347  0.00  0.00    +0.000 A 
ATOM     19  C   UNL     1       2.654   5.142  18.060  0.00  0.00    +0.000 A 
BRANCH  17  20
ATOM     20  N   UNL     1       5.902   4.097  16.375  0.00  0.00    +0.000 N 
ATOM     21  O   UNL     1       6.925   4.413  17.012  0.00  0.00    +0.000 OA
ATOM     22  O   UNL     1       5.888   3.829  15.165  0.00  0.00    +0.000 OA
ENDBRANCH  17  20
BRANCH  14  24
ATOM     23  C   UNL     1       1.172   2.898  20.441  0.00  0.00    +0.000 C 
ATOM     24  O   UNL     1       1.116   3.810  19.342  0.00  0.00    +0.000 OA
ENDBRANCH  14  24
ENDBRANCH  13  19
ENDBRANCH   1  13
BRANCH   8  25
ATOM     25  C   UNL     1      -0.571  15.537  19.969  0.00  0.00    +0.000 C 
BRANCH  25  26
ATOM     26  C   UNL     1       0.043  16.451  18.933  0.00  0.00    +0.000 A 
ATOM     27  C   UNL     1       1.435  16.485  18.740  0.00  0.00    +0.000 A 
ATOM     28  C   UNL     1       1.995  17.306  17.758  0.00  0.00    +0.000 A 
ATOM     29  C   UNL     1       1.176  18.097  16.956  0.00  0.00    +0.000 A 
ATOM     30  C   UNL     1      -0.205  18.071  17.136  0.00  0.00    +0.000 A 
ATOM     31  C   UNL     1      -0.769  17.257  18.119  0.00  0.00    +0.000 A 
ENDBRANCH  25  26
ENDBRANCH   8  25
TORSDOF 6
ENDMDL
MODEL 4
REMARK VINA RESULT:      -7.8      3.120      4.610
REMARK  Name = 
REMARK  7 active torsions:
REMARK  status: ('A' for Active; 'I' for Inactive)
REMARK    1  A    between atoms: C_1  and  O_2
REMARK    2  A    between atoms: O_2  and  C_3
REMARK    3  A    between atoms: C_6  and  N_7
REMARK    4  A    between atoms: C_11  and  C_12
REMARK    5  A    between atoms: C_12  and  N_13
REMARK    6  A    between atoms: C_20  and  C_21
REMARK    7  A    between atoms: C_21  and  C_22
REMARK                            x       y       z     vdW  Elec       q    Type
REMARK                         _______ _______ _______ _____ _____    ______ ____
ROOT
ATOM      1  N   UNL     1       1.100   9.583  20.202  0.00  0.00    +0.000 NA
ATOM      2  C   UNL     1       1.748   8.364  20.751  0.00  0.00    +0.000 C 
ATOM      3  C   UNL     1       2.114   7.168  19.830  0.00  0.00    +0.000 C 
ATOM      4  N   UNL     1       2.637   7.600  18.541  0.00  0.00    +0.000 N 
ATOM      5  C   UNL     1       3.483   6.778  17.830  0.00  0.00    +0.000 A 
ATOM      6  N   UNL     1       3.664   5.480  18.273  0.00  0.00    +0.000 NA
ATOM      7  C   UNL     1       4.634   4.757  17.673  0.00  0.00    +0.000 A 
ATOM      8  C   UNL     1       5.476   5.223  16.686  0.00  0.00    +0.000 A 
ATOM      9  C   UNL     1       5.157   6.499  16.281  0.00  0.00    +0.000 A 
ATOM     10  N   UNL     1       4.174   7.256  16.814  0.00  0.00    +0.000 NA
ATOM     11  C   UNL     1       1.955   8.697  17.857  0.00  0.00    +0.000 C 
ATOM     12  C   UNL     1       1.530   9.854  18.815  0.00  0.00    +0.000 C 
ENDROOT
BRANCH   1  13
ATOM     13  C   UNL     1      -0.350   9.497  20.420  0.00  0.00    +0.000 C 
BRANCH  13  19
ATOM     14  C   UNL     1      -1.652  11.627  20.294  0.00  0.00    +0.000 A 
ATOM     15  C   UNL     1      -2.587  12.481  19.695  0.00  0.00    +0.000 A 
ATOM     16  C   UNL     1      -3.140  12.174  18.433  0.00  0.00    +0.000 A 
ATOM     17  C   UNL     1      -2.725  11.020  17.739  0.00  0.00    +0.000 A 
ATOM     18  C   UNL     1      -1.806  10.136  18.362  0.00  0.00    +0.000 A 
ATOM     19  C   UNL     1      -1.302  10.407  19.665  0.00  0.00    +0.000 A 
BRANCH  17  20
ATOM     20  N   UNL     1      -3.244  10.744  16.409  0.00  0.00    +0.000 N 
ATOM     21  O   UNL     1      -4.376  11.181  16.125  0.00  0.00    +0.000 OA
ATOM     22  O   UNL     1      -2.531  10.093  15.631  0.00  0.00    +0.000 OA
ENDBRANCH  17  20
BRANCH  14  24
ATOM     23  C   UNL     1      -2.414  12.269  22.514  0.00  0.00    +0.000 C 
ATOM     24  O   UNL     1      -1.400  11.783  21.635  0.00  0.00    +0.000 OA
ENDBRANCH  14  24
ENDBRANCH  13  19
ENDBRANCH   1  13
BRANCH   8  25
ATOM     25  C   UNL     1       6.641   4.475  16.132  0.00  0.00    +0.000 C 
BRANCH  25  26
ATOM     26  C   UNL     1       6.737   4.428  14.624  0.00  0.00    +0.000 A 
ATOM     27  C   UNL     1       7.653   5.243  13.937  0.00  0.00    +0.000 A 
ATOM     28  C   UNL     1       7.763   5.170  12.546  0.00  0.00    +0.000 A 
ATOM     29  C   UNL     1       6.967   4.283  11.827  0.00  0.00    +0.000 A 
ATOM     30  C   UNL     1       6.057   3.468  12.496  0.00  0.00    +0.000 A 
ATOM     31  C   UNL     1       5.939   3.541  13.884  0.00  0.00    +0.000 A 
ENDBRANCH  25  26
ENDBRANCH   8  25
TORSDOF 6
ENDMDL
MODEL 5
REMARK VINA RESULT:      -7.7      2.133      3.646
REMARK  Name = 
REMARK  7 active torsions:
REMARK  status: ('A' for Active; 'I' for Inactive)
REMARK    1  A    between atoms: C_1  and  O_2
REMARK    2  A    between atoms: O_2  and  C_3
REMARK    3  A    between atoms: C_6  and  N_7
REMARK    4  A    between atoms: C_11  and  C_12
REMARK    5  A    between atoms: C_12  and  N_13
REMARK    6  A    between atoms: C_20  and  C_21
REMARK    7  A    between atoms: C_21  and  C_22
REMARK                            x       y       z     vdW  Elec       q    Type
REMARK                         _______ _______ _______ _____ _____    ______ ____
ROOT
ATOM      1  N   UNL     1      -0.661  12.582  20.737  0.00  0.00    +0.000 NA
ATOM      2  C   UNL     1       0.097  11.623  21.581  0.00  0.00    +0.000 C 
ATOM      3  C   UNL     1       0.305  10.151  21.131  0.00  0.00    +0.000 C 
ATOM      4  N   UNL     1       0.570  10.038  19.704  0.00  0.00    +0.000 N 
ATOM      5  C   UNL     1       1.282   8.964  19.217  0.00  0.00    +0.000 A 
ATOM      6  N   UNL     1       1.564   7.919  20.079  0.00  0.00    +0.000 NA
ATOM      7  C   UNL     1       2.416   6.970  19.634  0.00  0.00    +0.000 A 
ATOM      8  C   UNL     1       3.051   6.985  18.410  0.00  0.00    +0.000 A 
ATOM      9  C   UNL     1       2.641   8.032  17.617  0.00  0.00    +0.000 A 
ATOM     10  N   UNL     1       1.762   8.987  17.990  0.00  0.00    +0.000 NA
ATOM     11  C   UNL     1      -0.246  10.835  18.790  0.00  0.00    +0.000 C 
ATOM     12  C   UNL     1      -0.503  12.289  19.298  0.00  0.00    +0.000 C 
ENDROOT
BRANCH   1  13
ATOM     13  C   UNL     1      -2.044  12.665  21.228  0.00  0.00    +0.000 C 
BRANCH  13  19
ATOM     14  C   UNL     1      -3.582  12.962  23.176  0.00  0.00    +0.000 A 
ATOM     15  C   UNL     1      -3.972  13.579  24.371  0.00  0.00    +0.000 A 
ATOM     16  C   UNL     1      -3.123  14.505  25.016  0.00  0.00    +0.000 A 
ATOM     17  C   UNL     1      -1.850  14.789  24.484  0.00  0.00    +0.000 A 
ATOM     18  C   UNL     1      -1.470  14.192  23.253  0.00  0.00    +0.000 A 
ATOM     19  C   UNL     1      -2.353  13.314  22.565  0.00  0.00    +0.000 A 
BRANCH  17  20
ATOM     20  N   UNL     1      -0.951  15.688  25.188  0.00  0.00    +0.000 N 
ATOM     21  O   UNL     1      -1.234  15.992  26.362  0.00  0.00    +0.000 OA
ATOM     22  O   UNL     1       0.050  16.101  24.583  0.00  0.00    +0.000 OA
ENDBRANCH  17  20
BRANCH  14  24
ATOM     23  C   UNL     1      -5.815  12.966  22.209  0.00  0.00    +0.000 C 
ATOM     24  O   UNL     1      -4.548  12.343  22.422  0.00  0.00    +0.000 OA
ENDBRANCH  14  24
ENDBRANCH  13  19
ENDBRANCH   1  13
BRANCH   8  25
ATOM     25  C   UNL     1       4.104   6.021  17.982  0.00  0.00    +0.000 C 
BRANCH  25  26
ATOM     26  C   UNL     1       3.785   4.558  18.194  0.00  0.00    +0.000 A 
ATOM     27  C   UNL     1       2.816   3.912  17.406  0.00  0.00    +0.000 A 
ATOM     28  C   UNL     1       2.549   2.553  17.583  0.00  0.00    +0.000 A 
ATOM     29  C   UNL     1       3.247   1.822  18.541  0.00  0.00    +0.000 A 
ATOM     30  C   UNL     1       4.210   2.449  19.327  0.00  0.00    +0.000 A 
ATOM     31  C   UNL     1       4.477   3.809  19.159  0.00  0.00    +0.000 A 
ENDBRANCH  25  26
ENDBRANCH   8  25
TORSDOF 6
ENDMDL
MODEL 6
REMARK VINA RESULT:      -7.7      1.800      2.422
REMARK  Name = 
REMARK  7 active torsions:
REMARK  status: ('A' for Active; 'I' for Inactive)
REMARK    1  A    between atoms: C_1  and  O_2
REMARK    2  A    between atoms: O_2  and  C_3
REMARK    3  A    between atoms: C_6  and  N_7
REMARK    4  A    between atoms: C_11  and  C_12
REMARK    5  A    between atoms: C_12  and  N_13
REMARK    6  A    between atoms: C_20  and  C_21
REMARK    7  A    between atoms: C_21  and  C_22
REMARK                            x       y       z     vdW  Elec       q    Type
REMARK                         _______ _______ _______ _____ _____    ______ ____
ROOT
ATOM      1  N   UNL     1      -1.405  11.108  22.488  0.00  0.00    +0.000 NA
ATOM      2  C   UNL     1      -1.300  11.150  21.007  0.00  0.00    +0.000 C 
ATOM      3  C   UNL     1       0.008  10.726  20.284  0.00  0.00    +0.000 C 
ATOM      4  N   UNL     1       0.629   9.561  20.899  0.00  0.00    +0.000 N 
ATOM      5  C   UNL     1       1.436   8.734  20.149  0.00  0.00    +0.000 A 
ATOM      6  N   UNL     1       1.788   9.139  18.874  0.00  0.00    +0.000 NA
ATOM      7  C   UNL     1       2.421   8.235  18.096  0.00  0.00    +0.000 A 
ATOM      8  C   UNL     1       2.705   6.936  18.460  0.00  0.00    +0.000 A 
ATOM      9  C   UNL     1       2.371   6.670  19.769  0.00  0.00    +0.000 A 
ATOM     10  N   UNL     1       1.775   7.545  20.607  0.00  0.00    +0.000 NA
ATOM     11  C   UNL     1       0.709   9.516  22.358  0.00  0.00    +0.000 C 
ATOM     12  C   UNL     1      -0.591  10.018  23.063  0.00  0.00    +0.000 C 
ENDROOT
BRANCH   1  13
ATOM     13  C   UNL     1      -1.153  12.451  23.027  0.00  0.00    +0.000 C 
BRANCH  13  19
ATOM     14  C   UNL     1      -1.983  14.697  23.747  0.00  0.00    +0.000 A 
ATOM     15  C   UNL     1      -2.982  15.568  24.198  0.00  0.00    +0.000 A 
ATOM     16  C   UNL     1      -4.328  15.147  24.272  0.00  0.00    +0.000 A 
ATOM     17  C   UNL     1      -4.689  13.851  23.852  0.00  0.00    +0.000 A 
ATOM     18  C   UNL     1      -3.671  12.956  23.431  0.00  0.00    +0.000 A 
ATOM     19  C   UNL     1      -2.306  13.356  23.423  0.00  0.00    +0.000 A 
BRANCH  17  20
ATOM     20  N   UNL     1      -6.085  13.445  23.864  0.00  0.00    +0.000 N 
ATOM     21  O   UNL     1      -6.340  12.237  23.703  0.00  0.00    +0.000 OA
ATOM     22  O   UNL     1      -6.943  14.323  24.038  0.00  0.00    +0.000 OA
ENDBRANCH  17  20
BRANCH  14  24
ATOM     23  C   UNL     1      -0.096  16.202  23.438  0.00  0.00    +0.000 C 
ATOM     24  O   UNL     1      -0.674  15.024  24.002  0.00  0.00    +0.000 OA
ENDBRANCH  14  24
ENDBRANCH  13  19
ENDBRANCH   1  13
BRANCH   8  25
ATOM     25  C   UNL     1       3.265   5.896  17.551  0.00  0.00    +0.000 C 
BRANCH  25  26
ATOM     26  C   UNL     1       3.100   4.463  18.005  0.00  0.00    +0.000 A 
ATOM     27  C   UNL     1       1.884   3.785  17.814  0.00  0.00    +0.000 A 
ATOM     28  C   UNL     1       1.747   2.451  18.204  0.00  0.00    +0.000 A 
ATOM     29  C   UNL     1       2.819   1.778  18.784  0.00  0.00    +0.000 A 
ATOM     30  C   UNL     1       4.030   2.438  18.978  0.00  0.00    +0.000 A 
ATOM     31  C   UNL     1       4.171   3.773  18.595  0.00  0.00    +0.000 A 
ENDBRANCH  25  26
ENDBRANCH   8  25
TORSDOF 6
ENDMDL
MODEL 7
REMARK VINA RESULT:      -7.7      4.930     11.082
REMARK  Name = 
REMARK  7 active torsions:
REMARK  status: ('A' for Active; 'I' for Inactive)
REMARK    1  A    between atoms: C_1  and  O_2
REMARK    2  A    between atoms: O_2  and  C_3
REMARK    3  A    between atoms: C_6  and  N_7
REMARK    4  A    between atoms: C_11  and  C_12
REMARK    5  A    between atoms: C_12  and  N_13
REMARK    6  A    between atoms: C_20  and  C_21
REMARK    7  A    between atoms: C_21  and  C_22
REMARK                            x       y       z     vdW  Elec       q    Type
REMARK                         _______ _______ _______ _____ _____    ______ ____
ROOT
ATOM      1  N   UNL     1       2.260   7.558  19.253  0.00  0.00    +0.000 NA
ATOM      2  C   UNL     1       2.235   8.569  18.164  0.00  0.00    +0.000 C 
ATOM      3  C   UNL     1       1.124   9.653  18.102  0.00  0.00    +0.000 C 
ATOM      4  N   UNL     1       0.787  10.177  19.418  0.00  0.00    +0.000 N 
ATOM      5  C   UNL     1       0.264  11.446  19.542  0.00  0.00    +0.000 A 
ATOM      6  N   UNL     1      -0.104  12.120  18.391  0.00  0.00    +0.000 NA
ATOM      7  C   UNL     1      -0.437  13.422  18.523  0.00  0.00    +0.000 A 
ATOM      8  C   UNL     1      -0.400  14.134  19.702  0.00  0.00    +0.000 A 
ATOM      9  C   UNL     1      -0.086  13.346  20.785  0.00  0.00    +0.000 A 
ATOM     10  N   UNL     1       0.215  12.031  20.723  0.00  0.00    +0.000 NA
ATOM     11  C   UNL     1       0.636   9.226  20.518  0.00  0.00    +0.000 C 
ATOM     12  C   UNL     1       1.720   8.102  20.516  0.00  0.00    +0.000 C 
ENDROOT
BRANCH   1  13
ATOM     13  C   UNL     1       1.641   6.316  18.771  0.00  0.00    +0.000 C 
BRANCH  13  19
ATOM     14  C   UNL     1       2.026   3.868  18.446  0.00  0.00    +0.000 A 
ATOM     15  C   UNL     1       2.799   2.773  18.042  0.00  0.00    +0.000 A 
ATOM     16  C   UNL     1       4.018   2.963  17.354  0.00  0.00    +0.000 A 
ATOM     17  C   UNL     1       4.451   4.264  17.028  0.00  0.00    +0.000 A 
ATOM     18  C   UNL     1       3.686   5.375  17.470  0.00  0.00    +0.000 A 
ATOM     19  C   UNL     1       2.495   5.186  18.226  0.00  0.00    +0.000 A 
BRANCH  17  20
ATOM     20  N   UNL     1       5.669   4.453  16.258  0.00  0.00    +0.000 N 
ATOM     21  O   UNL     1       6.053   3.513  15.536  0.00  0.00    +0.000 OA
ATOM     22  O   UNL     1       6.258   5.540  16.360  0.00  0.00    +0.000 OA
ENDBRANCH  17  20
BRANCH  14  24
ATOM     23  C   UNL     1       1.328   2.929  20.580  0.00  0.00    +0.000 C 
ATOM     24  O   UNL     1       1.046   3.658  19.384  0.00  0.00    +0.000 OA
ENDBRANCH  14  24
ENDBRANCH  13  19
ENDBRANCH   1  13
BRANCH   8  25
ATOM     25  C   UNL     1      -0.620  15.604  19.820  0.00  0.00    +0.000 C 
BRANCH  25  26
ATOM     26  C   UNL     1       0.048  16.458  18.766  0.00  0.00    +0.000 A 
ATOM     27  C   UNL     1      -0.711  17.312  17.946  0.00  0.00    +0.000 A 
ATOM     28  C   UNL     1      -0.086  18.125  16.997  0.00  0.00    +0.000 A 
ATOM     29  C   UNL     1       1.299  18.100  16.858  0.00  0.00    +0.000 A 
ATOM     30  C   UNL     1       2.063  17.259  17.665  0.00  0.00    +0.000 A 
ATOM     31  C   UNL     1       1.443  16.441  18.610  0.00  0.00    +0.000 A 
ENDBRANCH  25  26
ENDBRANCH   8  25
TORSDOF 6
ENDMDL
MODEL 8
REMARK VINA RESULT:      -7.7      1.224      1.591
REMARK  Name = 
REMARK  7 active torsions:
REMARK  status: ('A' for Active; 'I' for Inactive)
REMARK    1  A    between atoms: C_1  and  O_2
REMARK    2  A    between atoms: O_2  and  C_3
REMARK    3  A    between atoms: C_6  and  N_7
REMARK    4  A    between atoms: C_11  and  C_12
REMARK    5  A    between atoms: C_12  and  N_13
REMARK    6  A    between atoms: C_20  and  C_21
REMARK    7  A    between atoms: C_21  and  C_22
REMARK                            x       y       z     vdW  Elec       q    Type
REMARK                         _______ _______ _______ _____ _____    ______ ____
ROOT
ATOM      1  N   UNL     1      -1.000  10.646  19.616  0.00  0.00    +0.000 NA
ATOM      2  C   UNL     1      -0.401  10.302  18.301  0.00  0.00    +0.000 C 
ATOM      3  C   UNL     1       1.039   9.725  18.202  0.00  0.00    +0.000 C 
ATOM      4  N   UNL     1       1.328   8.772  19.264  0.00  0.00    +0.000 N 
ATOM      5  C   UNL     1       2.276   7.791  19.070  0.00  0.00    +0.000 A 
ATOM      6  N   UNL     1       3.064   7.854  17.935  0.00  0.00    +0.000 NA
ATOM      7  C   UNL     1       3.852   6.788  17.675  0.00  0.00    +0.000 A 
ATOM      8  C   UNL     1       3.899   5.635  18.428  0.00  0.00    +0.000 A 
ATOM      9  C   UNL     1       3.127   5.715  19.564  0.00  0.00    +0.000 A 
ATOM     10  N   UNL     1       2.351   6.768  19.899  0.00  0.00    +0.000 NA
ATOM     11  C   UNL     1       0.910   9.110  20.623  0.00  0.00    +0.000 C 
ATOM     12  C   UNL     1      -0.510   9.757  20.689  0.00  0.00    +0.000 C 
ENDROOT
BRANCH   1  13
ATOM     13  C   UNL     1      -0.843  12.087  19.854  0.00  0.00    +0.000 C 
BRANCH  13  19
ATOM     14  C   UNL     1      -0.479  13.428  21.932  0.00  0.00    +0.000 A 
ATOM     15  C   UNL     1      -0.903  13.979  23.148  0.00  0.00    +0.000 A 
ATOM     16  C   UNL     1      -2.257  13.905  23.541  0.00  0.00    +0.000 A 
ATOM     17  C   UNL     1      -3.210  13.310  22.691  0.00  0.00    +0.000 A 
ATOM     18  C   UNL     1      -2.774  12.719  21.476  0.00  0.00    +0.000 A 
ATOM     19  C   UNL     1      -1.399  12.730  21.112  0.00  0.00    +0.000 A 
BRANCH  17  20
ATOM     20  N   UNL     1      -4.614  13.298  23.067  0.00  0.00    +0.000 N 
ATOM     21  O   UNL     1      -5.290  12.298  22.760  0.00  0.00    +0.000 OA
ATOM     22  O   UNL     1      -5.060  14.281  23.677  0.00  0.00    +0.000 OA
ENDBRANCH  17  20
BRANCH  14  24
ATOM     23  C   UNL     1       1.720  14.310  21.377  0.00  0.00    +0.000 C 
ATOM     24  O   UNL     1       0.866  13.226  21.746  0.00  0.00    +0.000 OA
ENDBRANCH  14  24
ENDBRANCH  13  19
ENDBRANCH   1  13
BRANCH   8  25
ATOM     25  C   UNL     1       4.653   4.403  18.058  0.00  0.00    +0.000 C 
BRANCH  25  26
ATOM     26  C   UNL     1       5.457   4.480  16.780  0.00  0.00    +0.000 A 
ATOM     27  C   UNL     1       4.871   4.164  15.542  0.00  0.00    +0.000 A 
ATOM     28  C   UNL     1       5.608   4.270  14.360  0.00  0.00    +0.000 A 
ATOM     29  C   UNL     1       6.933   4.697  14.398  0.00  0.00    +0.000 A 
ATOM     30  C   UNL     1       7.525   5.015  15.618  0.00  0.00    +0.000 A 
ATOM     31  C   UNL     1       6.795   4.905  16.802  0.00  0.00    +0.000 A 
ENDBRANCH  25  26
ENDBRANCH   8  25
TORSDOF 6
ENDMDL
MODEL 9
REMARK VINA RESULT:      -7.6      4.377     11.149
REMARK  Name = 
REMARK  7 active torsions:
REMARK  status: ('A' for Active; 'I' for Inactive)
REMARK    1  A    between atoms: C_1  and  O_2
REMARK    2  A    between atoms: O_2  and  C_3
REMARK    3  A    between atoms: C_6  and  N_7
REMARK    4  A    between atoms: C_11  and  C_12
REMARK    5  A    between atoms: C_12  and  N_13
REMARK    6  A    between atoms: C_20  and  C_21
REMARK    7  A    between atoms: C_21  and  C_22
REMARK                            x       y       z     vdW  Elec       q    Type
REMARK                         _______ _______ _______ _____ _____    ______ ____
ROOT
ATOM      1  N   UNL     1       2.508   8.201  18.561  0.00  0.00    +0.000 NA
ATOM      2  C   UNL     1       1.926   9.498  18.129  0.00  0.00    +0.000 C 
ATOM      3  C   UNL     1       0.565   9.992  18.691  0.00  0.00    +0.000 C 
ATOM      4  N   UNL     1       0.414   9.707  20.111  0.00  0.00    +0.000 N 
ATOM      5  C   UNL     1      -0.413  10.489  20.887  0.00  0.00    +0.000 A 
ATOM      6  N   UNL     1      -1.228  11.411  20.255  0.00  0.00    +0.000 NA
ATOM      7  C   UNL     1      -1.887  12.288  21.043  0.00  0.00    +0.000 A 
ATOM      8  C   UNL     1      -1.780  12.357  22.415  0.00  0.00    +0.000 A 
ATOM      9  C   UNL     1      -0.998  11.351  22.935  0.00  0.00    +0.000 A 
ATOM     10  N   UNL     1      -0.348  10.422  22.202  0.00  0.00    +0.000 NA
ATOM     11  C   UNL     1       0.818   8.387  20.593  0.00  0.00    +0.000 C 
ATOM     12  C   UNL     1       2.151   7.880  19.958  0.00  0.00    +0.000 C 
ENDROOT
BRANCH   1  13
ATOM     13  C   UNL     1       2.185   7.173  17.563  0.00  0.00    +0.000 C 
BRANCH  13  19
ATOM     14  C   UNL     1       3.904   5.362  17.444  0.00  0.00    +0.000 A 
ATOM     15  C   UNL     1       4.315   4.027  17.549  0.00  0.00    +0.000 A 
ATOM     16  C   UNL     1       3.443   3.041  18.059  0.00  0.00    +0.000 A 
ATOM     17  C   UNL     1       2.156   3.398  18.508  0.00  0.00    +0.000 A 
ATOM     18  C   UNL     1       1.726   4.743  18.367  0.00  0.00    +0.000 A 
ATOM     19  C   UNL     1       2.579   5.724  17.788  0.00  0.00    +0.000 A 
BRANCH  17  20
ATOM     20  N   UNL     1       1.286   2.392  19.098  0.00  0.00    +0.000 N 
ATOM     21  O   UNL     1       1.570   1.973  20.236  0.00  0.00    +0.000 OA
ATOM     22  O   UNL     1       0.309   2.010  18.437  0.00  0.00    +0.000 OA
ENDBRANCH  17  20
BRANCH  14  24
ATOM     23  C   UNL     1       5.421   5.691  15.570  0.00  0.00    +0.000 C 
ATOM     24  O   UNL     1       4.641   6.205  16.650  0.00  0.00    +0.000 OA
ENDBRANCH  14  24
ENDBRANCH  13  19
ENDBRANCH   1  13
BRANCH   8  25
ATOM     25  C   UNL     1      -2.388  13.419  23.268  0.00  0.00    +0.000 C 
BRANCH  25  26
ATOM     26  C   UNL     1      -3.871  13.282  23.534  0.00  0.00    +0.000 A 
ATOM     27  C   UNL     1      -4.809  13.965  22.741  0.00  0.00    +0.000 A 
ATOM     28  C   UNL     1      -6.178  13.809  22.969  0.00  0.00    +0.000 A 
ATOM     29  C   UNL     1      -6.627  12.968  23.984  0.00  0.00    +0.000 A 
ATOM     30  C   UNL     1      -5.708  12.284  24.775  0.00  0.00    +0.000 A 
ATOM     31  C   UNL     1      -4.339  12.441  24.556  0.00  0.00    +0.000 A 
ENDBRANCH  25  26
ENDBRANCH   8  25
TORSDOF 6
ENDMDL
