MODEL 1
REMARK VINA RESULT:      -8.3      0.000      0.000
REMARK  Name = 
REMARK  9 active torsions:
REMARK  status: ('A' for Active; 'I' for Inactive)
REMARK    1  A    between atoms: C_1  and  C_2
REMARK    2  A    between atoms: C_2  and  C_3
REMARK    3  A    between atoms: C_2  and  C_4
REMARK    4  A    between atoms: C_4  and  C_5
REMARK    5  A    between atoms: C_5  and  N_6
REMARK    6  A    between atoms: C_7  and  C_9
REMARK    7  A    between atoms: C_9  and  N_10
REMARK    8  A    between atoms: C_17  and  C_18
REMARK    9  A    between atoms: N_20  and  C_21
REMARK                            x       y       z     vdW  Elec       q    Type
REMARK                         _______ _______ _______ _____ _____    ______ ____
ROOT
ATOM      1  N   UNL     1       2.846   3.725  18.708  0.00  0.00    +0.000 N 
ATOM      2  C   UNL     1       2.671   2.427  19.291  0.00  0.00    +0.000 C 
ATOM      3  O   UNL     1       3.093   1.462  18.665  0.00  0.00    +0.000 OA
ATOM      4  C   UNL     1       2.026   2.293  20.652  0.00  0.00    +0.000 C 
ATOM      5  C   UNL     1       1.451   3.550  21.294  0.00  0.00    +0.000 C 
ATOM      6  N   UNL     1       1.735   4.773  20.593  0.00  0.00    +0.000 N 
ATOM      7  N   UNL     1       1.356   5.968  21.069  0.00  0.00    +0.000 NA
ATOM      8  C   UNL     1       1.716   6.819  20.093  0.00  0.00    +0.000 A 
ATOM      9  C   UNL     1       2.342   6.142  19.011  0.00  0.00    +0.000 A 
ATOM     10  C   UNL     1       2.354   4.822  19.382  0.00  0.00    +0.000 A 
ENDROOT
BRANCH   8  11
ATOM     11  C   UNL     1       1.467   8.267  20.085  0.00  0.00    +0.000 A 
ATOM     12  C   UNL     1       1.787   9.124  19.047  0.00  0.00    +0.000 A 
ATOM     13  N   UNL     1       1.325  10.370  19.362  0.00  0.00    +0.000 N 
ATOM     14  C   UNL     1       1.461  11.534  18.514  0.00  0.00    +0.000 C 
ATOM     15  C   UNL     1       0.681  10.347  20.579  0.00  0.00    +0.000 A 
ATOM     16  C   UNL     1      -0.009  11.362  21.259  0.00  0.00    +0.000 A 
ATOM     17  C   UNL     1      -0.582  11.055  22.494  0.00  0.00    +0.000 A 
ATOM     18  C   UNL     1      -0.433   9.790  23.052  0.00  0.00    +0.000 A 
ATOM     19  C   UNL     1       0.262   8.784  22.367  0.00  0.00    +0.000 A 
ATOM     20  C   UNL     1       0.807   9.046  21.089  0.00  0.00    +0.000 A 
ENDBRANCH   8  11
BRANCH   1  21
ATOM     21  C   UNL     1       3.530   3.824  17.403  0.00  0.00    +0.000 C 
BRANCH  21  23
ATOM     22  N   UNL     1       5.684   4.514  16.461  0.00  0.00    +0.000 N 
ATOM     23  C   UNL     1       5.020   4.066  17.587  0.00  0.00    +0.000 C 
ATOM     24  O   UNL     1       5.571   3.897  18.671  0.00  0.00    +0.000 OA
ATOM     25  H   UNL     1       5.161   4.696  15.609  0.00  0.00    +0.000 HD
BRANCH  22  26
ATOM     26  C   UNL     1       7.114   4.757  16.450  0.00  0.00    +0.000 C 
BRANCH  26  27
ATOM     27  C   UNL     1       7.457   6.248  16.428  0.00  0.00    +0.000 C 
BRANCH  27  29
ATOM     28  C   UNL     1       7.986   6.200  18.923  0.00  0.00    +0.000 C 
ATOM     29  C   UNL     1       7.310   6.966  17.786  0.00  0.00    +0.000 C 
ATOM     30  C   UNL     1       7.893   8.379  17.702  0.00  0.00    +0.000 C 
ENDBRANCH  27  29
ENDBRANCH  26  27
ENDBRANCH  22  26
ENDBRANCH  21  23
ENDBRANCH   1  21
TORSDOF 6
ENDMDL
MODEL 2
REMARK VINA RESULT:      -8.2      4.296      9.072
REMARK  Name = 
REMARK  9 active torsions:
REMARK  status: ('A' for Active; 'I' for Inactive)
REMARK    1  A    between atoms: C_1  and  C_2
REMARK    2  A    between atoms: C_2  and  C_3
REMARK    3  A    between atoms: C_2  and  C_4
REMARK    4  A    between atoms: C_4  and  C_5
REMARK    5  A    between atoms: C_5  and  N_6
REMARK    6  A    between atoms: C_7  and  C_9
REMARK    7  A    between atoms: C_9  and  N_10
REMARK    8  A    between atoms: C_17  and  C_18
REMARK    9  A    between atoms: N_20  and  C_21
REMARK                            x       y       z     vdW  Elec       q    Type
REMARK                         _______ _______ _______ _____ _____    ______ ____
ROOT
ATOM      1  N   UNL     1      -0.080  10.673  19.723  0.00  0.00    +0.000 N 
ATOM      2  C   UNL     1      -0.526  11.139  21.003  0.00  0.00    +0.000 C 
ATOM      3  O   UNL     1      -1.220  12.148  21.030  0.00  0.00    +0.000 OA
ATOM      4  C   UNL     1      -0.171  10.365  22.252  0.00  0.00    +0.000 C 
ATOM      5  C   UNL     1       0.779   9.180  22.110  0.00  0.00    +0.000 C 
ATOM      6  N   UNL     1       1.110   8.828  20.756  0.00  0.00    +0.000 N 
ATOM      7  N   UNL     1       1.879   7.768  20.466  0.00  0.00    +0.000 NA
ATOM      8  C   UNL     1       2.025   7.846  19.133  0.00  0.00    +0.000 A 
ATOM      9  C   UNL     1       1.322   8.957  18.592  0.00  0.00    +0.000 A 
ATOM     10  C   UNL     1       0.725   9.556  19.671  0.00  0.00    +0.000 A 
ENDROOT
BRANCH   8  11
ATOM     11  C   UNL     1       2.841   6.946  18.307  0.00  0.00    +0.000 A 
ATOM     12  C   UNL     1       3.997   7.308  17.638  0.00  0.00    +0.000 A 
ATOM     13  N   UNL     1       4.523   6.190  17.056  0.00  0.00    +0.000 N 
ATOM     14  C   UNL     1       5.742   6.167  16.277  0.00  0.00    +0.000 C 
ATOM     15  C   UNL     1       3.750   5.090  17.350  0.00  0.00    +0.000 A 
ATOM     16  C   UNL     1       3.943   3.735  17.036  0.00  0.00    +0.000 A 
ATOM     17  C   UNL     1       2.989   2.816  17.474  0.00  0.00    +0.000 A 
ATOM     18  C   UNL     1       1.858   3.239  18.164  0.00  0.00    +0.000 A 
ATOM     19  C   UNL     1       1.672   4.594  18.469  0.00  0.00    +0.000 A 
ATOM     20  C   UNL     1       2.646   5.544  18.088  0.00  0.00    +0.000 A 
ENDBRANCH   8  11
BRANCH   1  21
ATOM     21  C   UNL     1      -0.491  11.423  18.519  0.00  0.00    +0.000 C 
BRANCH  21  23
ATOM     22  N   UNL     1      -2.938  11.345  18.419  0.00  0.00    +0.000 N 
ATOM     23  C   UNL     1      -1.757  10.833  17.916  0.00  0.00    +0.000 C 
ATOM     24  O   UNL     1      -1.713   9.985  17.029  0.00  0.00    +0.000 OA
ATOM     25  H   UNL     1      -2.908  12.092  19.107  0.00  0.00    +0.000 HD
BRANCH  22  26
ATOM     26  C   UNL     1      -4.236  10.867  17.984  0.00  0.00    +0.000 C 
BRANCH  26  27
ATOM     27  C   UNL     1      -5.082  11.967  17.338  0.00  0.00    +0.000 C 
BRANCH  27  29
ATOM     28  C   UNL     1      -6.897  11.194  18.956  0.00  0.00    +0.000 C 
ATOM     29  C   UNL     1      -6.596  11.867  17.616  0.00  0.00    +0.000 C 
ATOM     30  C   UNL     1      -7.231  13.260  17.588  0.00  0.00    +0.000 C 
ENDBRANCH  27  29
ENDBRANCH  26  27
ENDBRANCH  22  26
ENDBRANCH  21  23
ENDBRANCH   1  21
TORSDOF 6
ENDMDL
MODEL 3
REMARK VINA RESULT:      -8.2      0.863      1.152
REMARK  Name = 
REMARK  9 active torsions:
REMARK  status: ('A' for Active; 'I' for Inactive)
REMARK    1  A    between atoms: C_1  and  C_2
REMARK    2  A    between atoms: C_2  and  C_3
REMARK    3  A    between atoms: C_2  and  C_4
REMARK    4  A    between atoms: C_4  and  C_5
REMARK    5  A    between atoms: C_5  and  N_6
REMARK    6  A    between atoms: C_7  and  C_9
REMARK    7  A    between atoms: C_9  and  N_10
REMARK    8  A    between atoms: C_17  and  C_18
REMARK    9  A    between atoms: N_20  and  C_21
REMARK                            x       y       z     vdW  Elec       q    Type
REMARK                         _______ _______ _______ _____ _____    ______ ____
ROOT
ATOM      1  N   UNL     1       2.933   3.942  18.396  0.00  0.00    +0.000 N 
ATOM      2  C   UNL     1       3.083   2.674  19.047  0.00  0.00    +0.000 C 
ATOM      3  O   UNL     1       3.417   1.718  18.359  0.00  0.00    +0.000 OA
ATOM      4  C   UNL     1       2.874   2.565  20.541  0.00  0.00    +0.000 C 
ATOM      5  C   UNL     1       2.366   3.798  21.281  0.00  0.00    +0.000 C 
ATOM      6  N   UNL     1       2.295   4.994  20.487  0.00  0.00    +0.000 N 
ATOM      7  N   UNL     1       1.933   6.174  21.013  0.00  0.00    +0.000 NA
ATOM      8  C   UNL     1       1.898   6.991  19.946  0.00  0.00    +0.000 A 
ATOM      9  C   UNL     1       2.262   6.311  18.752  0.00  0.00    +0.000 A 
ATOM     10  C   UNL     1       2.532   5.026  19.146  0.00  0.00    +0.000 A 
ENDROOT
BRANCH   8  11
ATOM     11  C   UNL     1       1.493   8.403  19.963  0.00  0.00    +0.000 A 
ATOM     12  C   UNL     1       1.617   9.279  18.899  0.00  0.00    +0.000 A 
ATOM     13  N   UNL     1       1.053  10.471  19.257  0.00  0.00    +0.000 N 
ATOM     14  C   UNL     1       0.979  11.634  18.401  0.00  0.00    +0.000 C 
ATOM     15  C   UNL     1       0.535  10.390  20.530  0.00  0.00    +0.000 A 
ATOM     16  C   UNL     1      -0.195  11.331  21.274  0.00  0.00    +0.000 A 
ATOM     17  C   UNL     1      -0.611  10.975  22.558  0.00  0.00    +0.000 A 
ATOM     18  C   UNL     1      -0.272   9.740  23.098  0.00  0.00    +0.000 A 
ATOM     19  C   UNL     1       0.461   8.809  22.349  0.00  0.00    +0.000 A 
ATOM     20  C   UNL     1       0.850   9.116  21.026  0.00  0.00    +0.000 A 
ENDBRANCH   8  11
BRANCH   1  21
ATOM     21  C   UNL     1       3.199   4.025  16.946  0.00  0.00    +0.000 C 
BRANCH  21  23
ATOM     22  N   UNL     1       5.620   3.902  16.586  0.00  0.00    +0.000 N 
ATOM     23  C   UNL     1       4.518   4.731  16.674  0.00  0.00    +0.000 C 
ATOM     24  O   UNL     1       4.576   5.948  16.519  0.00  0.00    +0.000 OA
ATOM     25  H   UNL     1       5.498   2.896  16.660  0.00  0.00    +0.000 HD
BRANCH  22  26
ATOM     26  C   UNL     1       6.960   4.414  16.370  0.00  0.00    +0.000 C 
BRANCH  26  27
ATOM     27  C   UNL     1       7.797   4.428  17.652  0.00  0.00    +0.000 C 
BRANCH  27  29
ATOM     28  C   UNL     1       7.497   6.961  17.580  0.00  0.00    +0.000 C 
ATOM     29  C   UNL     1       7.708   5.734  18.468  0.00  0.00    +0.000 C 
ATOM     30  C   UNL     1       6.572   5.641  19.491  0.00  0.00    +0.000 C 
ENDBRANCH  27  29
ENDBRANCH  26  27
ENDBRANCH  22  26
ENDBRANCH  21  23
ENDBRANCH   1  21
TORSDOF 6
ENDMDL
MODEL 4
REMARK VINA RESULT:      -8.1      1.807      2.573
REMARK  Name = 
REMARK  9 active torsions:
REMARK  status: ('A' for Active; 'I' for Inactive)
REMARK    1  A    between atoms: C_1  and  C_2
REMARK    2  A    between atoms: C_2  and  C_3
REMARK    3  A    between atoms: C_2  and  C_4
REMARK    4  A    between atoms: C_4  and  C_5
REMARK    5  A    between atoms: C_5  and  N_6
REMARK    6  A    between atoms: C_7  and  C_9
REMARK    7  A    between atoms: C_9  and  N_10
REMARK    8  A    between atoms: C_17  and  C_18
REMARK    9  A    between atoms: N_20  and  C_21
REMARK                            x       y       z     vdW  Elec       q    Type
REMARK                         _______ _______ _______ _____ _____    ______ ____
ROOT
ATOM      1  N   UNL     1       3.922   4.351  19.443  0.00  0.00    +0.000 N 
ATOM      2  C   UNL     1       3.732   2.990  19.850  0.00  0.00    +0.000 C 
ATOM      3  O   UNL     1       4.538   2.159  19.448  0.00  0.00    +0.000 OA
ATOM      4  C   UNL     1       2.594   2.633  20.779  0.00  0.00    +0.000 C 
ATOM      5  C   UNL     1       1.596   3.730  21.136  0.00  0.00    +0.000 C 
ATOM      6  N   UNL     1       1.947   5.044  20.669  0.00  0.00    +0.000 N 
ATOM      7  N   UNL     1       1.205   6.122  20.962  0.00  0.00    +0.000 NA
ATOM      8  C   UNL     1       1.804   7.108  20.271  0.00  0.00    +0.000 A 
ATOM      9  C   UNL     1       2.941   6.634  19.560  0.00  0.00    +0.000 A 
ATOM     10  C   UNL     1       3.012   5.298  19.859  0.00  0.00    +0.000 A 
ENDROOT
BRANCH   8  11
ATOM     11  C   UNL     1       1.346   8.501  20.196  0.00  0.00    +0.000 A 
ATOM     12  C   UNL     1       1.461   9.317  19.084  0.00  0.00    +0.000 A 
ATOM     13  N   UNL     1       0.845  10.505  19.360  0.00  0.00    +0.000 N 
ATOM     14  C   UNL     1       0.746  11.612  18.434  0.00  0.00    +0.000 C 
ATOM     15  C   UNL     1       0.301  10.479  20.624  0.00  0.00    +0.000 A 
ATOM     16  C   UNL     1      -0.480  11.432  21.296  0.00  0.00    +0.000 A 
ATOM     17  C   UNL     1      -0.911  11.137  22.590  0.00  0.00    +0.000 A 
ATOM     18  C   UNL     1      -0.538   9.949  23.209  0.00  0.00    +0.000 A 
ATOM     19  C   UNL     1       0.246   9.005  22.533  0.00  0.00    +0.000 A 
ATOM     20  C   UNL     1       0.653   9.249  21.201  0.00  0.00    +0.000 A 
ENDBRANCH   8  11
BRANCH   1  21
ATOM     21  C   UNL     1       5.076   4.673  18.579  0.00  0.00    +0.000 C 
BRANCH  21  23
ATOM     22  N   UNL     1       5.695   4.886  16.218  0.00  0.00    +0.000 N 
ATOM     23  C   UNL     1       4.738   4.448  17.113  0.00  0.00    +0.000 C 
ATOM     24  O   UNL     1       3.698   3.892  16.770  0.00  0.00    +0.000 OA
ATOM     25  H   UNL     1       6.564   5.282  16.566  0.00  0.00    +0.000 HD
BRANCH  22  26
ATOM     26  C   UNL     1       5.516   4.786  14.782  0.00  0.00    +0.000 C 
BRANCH  26  27
ATOM     27  C   UNL     1       6.177   3.538  14.192  0.00  0.00    +0.000 C 
BRANCH  27  29
ATOM     28  C   UNL     1       4.867   3.637  12.006  0.00  0.00    +0.000 C 
ATOM     29  C   UNL     1       6.246   3.509  12.652  0.00  0.00    +0.000 C 
ATOM     30  C   UNL     1       7.156   4.631  12.143  0.00  0.00    +0.000 C 
ENDBRANCH  27  29
ENDBRANCH  26  27
ENDBRANCH  22  26
ENDBRANCH  21  23
ENDBRANCH   1  21
TORSDOF 6
ENDMDL
MODEL 5
REMARK VINA RESULT:      -8.1      1.927      3.427
REMARK  Name = 
REMARK  9 active torsions:
REMARK  status: ('A' for Active; 'I' for Inactive)
REMARK    1  A    between atoms: C_1  and  C_2
REMARK    2  A    between atoms: C_2  and  C_3
REMARK    3  A    between atoms: C_2  and  C_4
REMARK    4  A    between atoms: C_4  and  C_5
REMARK    5  A    between atoms: C_5  and  N_6
REMARK    6  A    between atoms: C_7  and  C_9
REMARK    7  A    between atoms: C_9  and  N_10
REMARK    8  A    between atoms: C_17  and  C_18
REMARK    9  A    between atoms: N_20  and  C_21
REMARK                            x       y       z     vdW  Elec       q    Type
REMARK                         _______ _______ _______ _____ _____    ______ ____
ROOT
ATOM      1  N   UNL     1       4.694   5.401  17.033  0.00  0.00    +0.000 N 
ATOM      2  C   UNL     1       4.794   4.019  16.664  0.00  0.00    +0.000 C 
ATOM      3  O   UNL     1       5.637   3.714  15.829  0.00  0.00    +0.000 OA
ATOM      4  C   UNL     1       3.907   2.995  17.334  0.00  0.00    +0.000 C 
ATOM      5  C   UNL     1       2.828   3.501  18.285  0.00  0.00    +0.000 C 
ATOM      6  N   UNL     1       2.881   4.909  18.568  0.00  0.00    +0.000 N 
ATOM      7  N   UNL     1       2.042   5.490  19.438  0.00  0.00    +0.000 NA
ATOM      8  C   UNL     1       2.349   6.795  19.341  0.00  0.00    +0.000 A 
ATOM      9  C   UNL     1       3.403   7.018  18.413  0.00  0.00    +0.000 A 
ATOM     10  C   UNL     1       3.734   5.772  17.949  0.00  0.00    +0.000 A 
ENDROOT
BRANCH   8  11
ATOM     11  C   UNL     1       1.671   7.889  20.049  0.00  0.00    +0.000 A 
ATOM     12  C   UNL     1       1.255   7.845  21.368  0.00  0.00    +0.000 A 
ATOM     13  N   UNL     1       0.752   9.071  21.700  0.00  0.00    +0.000 N 
ATOM     14  C   UNL     1       0.228   9.418  23.003  0.00  0.00    +0.000 C 
ATOM     15  C   UNL     1       0.852   9.933  20.631  0.00  0.00    +0.000 A 
ATOM     16  C   UNL     1       0.538  11.298  20.533  0.00  0.00    +0.000 A 
ATOM     17  C   UNL     1       0.750  11.936  19.310  0.00  0.00    +0.000 A 
ATOM     18  C   UNL     1       1.217  11.226  18.210  0.00  0.00    +0.000 A 
ATOM     19  C   UNL     1       1.523   9.863  18.315  0.00  0.00    +0.000 A 
ATOM     20  C   UNL     1       1.373   9.199  19.554  0.00  0.00    +0.000 A 
ENDBRANCH   8  11
BRANCH   1  21
ATOM     21  C   UNL     1       5.614   6.367  16.399  0.00  0.00    +0.000 C 
BRANCH  21  23
ATOM     22  N   UNL     1       7.231   7.979  17.286  0.00  0.00    +0.000 N 
ATOM     23  C   UNL     1       6.796   6.668  17.306  0.00  0.00    +0.000 C 
ATOM     24  O   UNL     1       7.298   5.802  18.018  0.00  0.00    +0.000 OA
ATOM     25  H   UNL     1       6.735   8.664  16.723  0.00  0.00    +0.000 HD
BRANCH  22  26
ATOM     26  C   UNL     1       8.372   8.429  18.061  0.00  0.00    +0.000 C 
BRANCH  26  27
ATOM     27  C   UNL     1       8.365   9.942  18.294  0.00  0.00    +0.000 C 
BRANCH  27  29
ATOM     28  C   UNL     1      10.345  11.488  17.851  0.00  0.00    +0.000 C 
ATOM     29  C   UNL     1       9.689  10.519  18.835  0.00  0.00    +0.000 C 
ATOM     30  C   UNL     1       9.450  11.228  20.171  0.00  0.00    +0.000 C 
ENDBRANCH  27  29
ENDBRANCH  26  27
ENDBRANCH  22  26
ENDBRANCH  21  23
ENDBRANCH   1  21
TORSDOF 6
ENDMDL
MODEL 6
REMARK VINA RESULT:      -8.0      1.873      2.735
REMARK  Name = 
REMARK  9 active torsions:
REMARK  status: ('A' for Active; 'I' for Inactive)
REMARK    1  A    between atoms: C_1  and  C_2
REMARK    2  A    between atoms: C_2  and  C_3
REMARK    3  A    between atoms: C_2  and  C_4
REMARK    4  A    between atoms: C_4  and  C_5
REMARK    5  A    between atoms: C_5  and  N_6
REMARK    6  A    between atoms: C_7  and  C_9
REMARK    7  A    between atoms: C_9  and  N_10
REMARK    8  A    between atoms: C_17  and  C_18
REMARK    9  A    between atoms: N_20  and  C_21
REMARK                            x       y       z     vdW  Elec       q    Type
REMARK                         _______ _______ _______ _____ _____    ______ ____
ROOT
ATOM      1  N   UNL     1       4.531   5.700  17.088  0.00  0.00    +0.000 N 
ATOM      2  C   UNL     1       4.741   4.288  17.217  0.00  0.00    +0.000 C 
ATOM      3  O   UNL     1       5.552   3.763  16.464  0.00  0.00    +0.000 OA
ATOM      4  C   UNL     1       4.007   3.512  18.287  0.00  0.00    +0.000 C 
ATOM      5  C   UNL     1       2.950   4.249  19.102  0.00  0.00    +0.000 C 
ATOM      6  N   UNL     1       2.883   5.666  18.868  0.00  0.00    +0.000 N 
ATOM      7  N   UNL     1       2.053   6.461  19.558  0.00  0.00    +0.000 NA
ATOM      8  C   UNL     1       2.222   7.663  18.981  0.00  0.00    +0.000 A 
ATOM      9  C   UNL     1       3.184   7.612  17.935  0.00  0.00    +0.000 A 
ATOM     10  C   UNL     1       3.604   6.307  17.907  0.00  0.00    +0.000 A 
ENDROOT
BRANCH   8  11
ATOM     11  C   UNL     1       1.489   8.889  19.326  0.00  0.00    +0.000 A 
ATOM     12  C   UNL     1       1.122   9.876  18.428  0.00  0.00    +0.000 A 
ATOM     13  N   UNL     1       0.382  10.809  19.096  0.00  0.00    +0.000 N 
ATOM     14  C   UNL     1      -0.193  11.989  18.488  0.00  0.00    +0.000 C 
ATOM     15  C   UNL     1       0.230  10.443  20.415  0.00  0.00    +0.000 A 
ATOM     16  C   UNL     1      -0.508  11.047  21.445  0.00  0.00    +0.000 A 
ATOM     17  C   UNL     1      -0.491  10.449  22.705  0.00  0.00    +0.000 A 
ATOM     18  C   UNL     1       0.272   9.310  22.941  0.00  0.00    +0.000 A 
ATOM     19  C   UNL     1       1.009   8.716  21.907  0.00  0.00    +0.000 A 
ATOM     20  C   UNL     1       0.969   9.266  20.606  0.00  0.00    +0.000 A 
ENDBRANCH   8  11
BRANCH   1  21
ATOM     21  C   UNL     1       5.306   6.437  16.069  0.00  0.00    +0.000 C 
BRANCH  21  23
ATOM     22  N   UNL     1       6.750   7.902  17.401  0.00  0.00    +0.000 N 
ATOM     23  C   UNL     1       6.693   6.786  16.588  0.00  0.00    +0.000 C 
ATOM     24  O   UNL     1       7.674   6.100  16.316  0.00  0.00    +0.000 OA
ATOM     25  H   UNL     1       5.893   8.392  17.641  0.00  0.00    +0.000 HD
BRANCH  22  26
ATOM     26  C   UNL     1       7.998   8.398  17.950  0.00  0.00    +0.000 C 
BRANCH  26  27
ATOM     27  C   UNL     1       8.389   9.764  17.378  0.00  0.00    +0.000 C 
BRANCH  27  29
ATOM     28  C   UNL     1       9.328  10.062  19.732  0.00  0.00    +0.000 C 
ATOM     29  C   UNL     1       8.997  10.743  18.403  0.00  0.00    +0.000 C 
ATOM     30  C   UNL     1      10.262  11.389  17.830  0.00  0.00    +0.000 C 
ENDBRANCH  27  29
ENDBRANCH  26  27
ENDBRANCH  22  26
ENDBRANCH  21  23
ENDBRANCH   1  21
TORSDOF 6
ENDMDL
MODEL 7
REMARK VINA RESULT:      -7.9      3.881      8.586
REMARK  Name = 
REMARK  9 active torsions:
REMARK  status: ('A' for Active; 'I' for Inactive)
REMARK    1  A    between atoms: C_1  and  C_2
REMARK    2  A    between atoms: C_2  and  C_3
REMARK    3  A    between atoms: C_2  and  C_4
REMARK    4  A    between atoms: C_4  and  C_5
REMARK    5  A    between atoms: C_5  and  N_6
REMARK    6  A    between atoms: C_7  and  C_9
REMARK    7  A    between atoms: C_9  and  N_10
REMARK    8  A    between atoms: C_17  and  C_18
REMARK    9  A    between atoms: N_20  and  C_21
REMARK                            x       y       z     vdW  Elec       q    Type
REMARK                         _______ _______ _______ _____ _____    ______ ____
ROOT
ATOM      1  N   UNL     1       0.707  10.857  20.020  0.00  0.00    +0.000 N 
ATOM      2  C   UNL     1       0.135  11.231  21.280  0.00  0.00    +0.000 C 
ATOM      3  O   UNL     1      -0.266  12.382  21.402  0.00  0.00    +0.000 OA
ATOM      4  C   UNL     1       0.004  10.204  22.382  0.00  0.00    +0.000 C 
ATOM      5  C   UNL     1       0.625   8.830  22.153  0.00  0.00    +0.000 C 
ATOM      6  N   UNL     1       1.134   8.609  20.827  0.00  0.00    +0.000 N 
ATOM      7  N   UNL     1       1.647   7.428  20.452  0.00  0.00    +0.000 NA
ATOM      8  C   UNL     1       2.089   7.663  19.205  0.00  0.00    +0.000 A 
ATOM      9  C   UNL     1       1.827   9.001  18.799  0.00  0.00    +0.000 A 
ATOM     10  C   UNL     1       1.190   9.575  19.868  0.00  0.00    +0.000 A 
ENDROOT
BRANCH   8  11
ATOM     11  C   UNL     1       2.802   6.702  18.353  0.00  0.00    +0.000 A 
ATOM     12  C   UNL     1       3.926   6.987  17.599  0.00  0.00    +0.000 A 
ATOM     13  N   UNL     1       4.356   5.829  17.016  0.00  0.00    +0.000 N 
ATOM     14  C   UNL     1       5.517   5.724  16.158  0.00  0.00    +0.000 C 
ATOM     15  C   UNL     1       3.551   4.778  17.393  0.00  0.00    +0.000 A 
ATOM     16  C   UNL     1       3.656   3.407  17.106  0.00  0.00    +0.000 A 
ATOM     17  C   UNL     1       2.690   2.549  17.634  0.00  0.00    +0.000 A 
ATOM     18  C   UNL     1       1.631   3.047  18.384  0.00  0.00    +0.000 A 
ATOM     19  C   UNL     1       1.532   4.417  18.661  0.00  0.00    +0.000 A 
ATOM     20  C   UNL     1       2.524   5.306  18.189  0.00  0.00    +0.000 A 
ENDBRANCH   8  11
BRANCH   1  21
ATOM     21  C   UNL     1       0.769  11.869  18.947  0.00  0.00    +0.000 C 
BRANCH  21  23
ATOM     22  N   UNL     1      -1.101  10.939  17.667  0.00  0.00    +0.000 N 
ATOM     23  C   UNL     1      -0.593  12.058  18.297  0.00  0.00    +0.000 C 
ATOM     24  O   UNL     1      -1.194  13.127  18.363  0.00  0.00    +0.000 OA
ATOM     25  H   UNL     1      -0.584  10.065  17.701  0.00  0.00    +0.000 HD
BRANCH  22  26
ATOM     26  C   UNL     1      -2.370  10.955  16.963  0.00  0.00    +0.000 C 
BRANCH  26  27
ATOM     27  C   UNL     1      -3.540  10.522  17.850  0.00  0.00    +0.000 C 
BRANCH  27  29
ATOM     28  C   UNL     1      -6.023  11.077  18.033  0.00  0.00    +0.000 C 
ATOM     29  C   UNL     1      -4.595  11.617  18.110  0.00  0.00    +0.000 C 
ATOM     30  C   UNL     1      -4.363  12.259  19.481  0.00  0.00    +0.000 C 
ENDBRANCH  27  29
ENDBRANCH  26  27
ENDBRANCH  22  26
ENDBRANCH  21  23
ENDBRANCH   1  21
TORSDOF 6
ENDMDL
MODEL 8
REMARK VINA RESULT:      -7.9      3.903      8.591
REMARK  Name = 
REMARK  9 active torsions:
REMARK  status: ('A' for Active; 'I' for Inactive)
REMARK    1  A    between atoms: C_1  and  C_2
REMARK    2  A    between atoms: C_2  and  C_3
REMARK    3  A    between atoms: C_2  and  C_4
REMARK    4  A    between atoms: C_4  and  C_5
REMARK    5  A    between atoms: C_5  and  N_6
REMARK    6  A    between atoms: C_7  and  C_9
REMARK    7  A    between atoms: C_9  and  N_10
REMARK    8  A    between atoms: C_17  and  C_18
REMARK    9  A    between atoms: N_20  and  C_21
REMARK                            x       y       z     vdW  Elec       q    Type
REMARK                         _______ _______ _______ _____ _____    ______ ____
ROOT
ATOM      1  N   UNL     1       0.168  10.773  19.818  0.00  0.00    +0.000 N 
ATOM      2  C   UNL     1      -0.299  11.197  21.105  0.00  0.00    +0.000 C 
ATOM      3  O   UNL     1      -0.910  12.257  21.167  0.00  0.00    +0.000 OA
ATOM      4  C   UNL     1      -0.069  10.321  22.316  0.00  0.00    +0.000 C 
ATOM      5  C   UNL     1       0.788   9.073  22.139  0.00  0.00    +0.000 C 
ATOM      6  N   UNL     1       1.154   8.776  20.781  0.00  0.00    +0.000 N 
ATOM      7  N   UNL     1       1.848   7.675  20.457  0.00  0.00    +0.000 NA
ATOM      8  C   UNL     1       2.064   7.821  19.139  0.00  0.00    +0.000 A 
ATOM      9  C   UNL     1       1.479   9.017  18.640  0.00  0.00    +0.000 A 
ATOM     10  C   UNL     1       0.882   9.597  19.729  0.00  0.00    +0.000 A 
ENDROOT
BRANCH   8  11
ATOM     11  C   UNL     1       2.842   6.907  18.292  0.00  0.00    +0.000 A 
ATOM     12  C   UNL     1       3.976   7.254  17.578  0.00  0.00    +0.000 A 
ATOM     13  N   UNL     1       4.472   6.127  16.988  0.00  0.00    +0.000 N 
ATOM     14  C   UNL     1       5.662   6.088  16.165  0.00  0.00    +0.000 C 
ATOM     15  C   UNL     1       3.703   5.035  17.321  0.00  0.00    +0.000 A 
ATOM     16  C   UNL     1       3.875   3.676  17.013  0.00  0.00    +0.000 A 
ATOM     17  C   UNL     1       2.931   2.768  17.495  0.00  0.00    +0.000 A 
ATOM     18  C   UNL     1       1.829   3.206  18.222  0.00  0.00    +0.000 A 
ATOM     19  C   UNL     1       1.664   4.565  18.520  0.00  0.00    +0.000 A 
ATOM     20  C   UNL     1       2.630   5.504  18.094  0.00  0.00    +0.000 A 
ENDBRANCH   8  11
BRANCH   1  21
ATOM     21  C   UNL     1      -0.122  11.626  18.648  0.00  0.00    +0.000 C 
BRANCH  21  23
ATOM     22  N   UNL     1       0.047  14.061  18.863  0.00  0.00    +0.000 N 
ATOM     23  C   UNL     1       0.737  12.881  18.663  0.00  0.00    +0.000 C 
ATOM     24  O   UNL     1       1.957  12.826  18.531  0.00  0.00    +0.000 OA
ATOM     25  H   UNL     1      -0.955  14.034  19.029  0.00  0.00    +0.000 HD
BRANCH  22  26
ATOM     26  C   UNL     1       0.707  15.353  18.866  0.00  0.00    +0.000 C 
BRANCH  26  27
ATOM     27  C   UNL     1      -0.157  16.455  18.249  0.00  0.00    +0.000 C 
BRANCH  27  29
ATOM     28  C   UNL     1       2.017  17.449  17.358  0.00  0.00    +0.000 C 
ATOM     29  C   UNL     1       0.607  17.741  17.872  0.00  0.00    +0.000 C 
ATOM     30  C   UNL     1      -0.171  18.528  16.815  0.00  0.00    +0.000 C 
ENDBRANCH  27  29
ENDBRANCH  26  27
ENDBRANCH  22  26
ENDBRANCH  21  23
ENDBRANCH   1  21
TORSDOF 6
ENDMDL
MODEL 9
REMARK VINA RESULT:      -7.8      2.528      4.473
REMARK  Name = 
REMARK  9 active torsions:
REMARK  status: ('A' for Active; 'I' for Inactive)
REMARK    1  A    between atoms: C_1  and  C_2
REMARK    2  A    between atoms: C_2  and  C_3
REMARK    3  A    between atoms: C_2  and  C_4
REMARK    4  A    between atoms: C_4  and  C_5
REMARK    5  A    between atoms: C_5  and  N_6
REMARK    6  A    between atoms: C_7  and  C_9
REMARK    7  A    between atoms: C_9  and  N_10
REMARK    8  A    between atoms: C_17  and  C_18
REMARK    9  A    between atoms: N_20  and  C_21
REMARK                            x       y       z     vdW  Elec       q    Type
REMARK                         _______ _______ _______ _____ _____    ______ ____
ROOT
ATOM      1  N   UNL     1       6.491   5.438  17.931  0.00  0.00    +0.000 N 
ATOM      2  C   UNL     1       6.819   4.415  16.982  0.00  0.00    +0.000 C 
ATOM      3  O   UNL     1       8.005   4.178  16.789  0.00  0.00    +0.000 OA
ATOM      4  C   UNL     1       5.715   3.643  16.296  0.00  0.00    +0.000 C 
ATOM      5  C   UNL     1       4.277   4.088  16.538  0.00  0.00    +0.000 C 
ATOM      6  N   UNL     1       4.119   5.110  17.538  0.00  0.00    +0.000 N 
ATOM      7  N   UNL     1       2.911   5.556  17.911  0.00  0.00    +0.000 NA
ATOM      8  C   UNL     1       3.199   6.549  18.770  0.00  0.00    +0.000 A 
ATOM      9  C   UNL     1       4.602   6.704  18.942  0.00  0.00    +0.000 A 
ATOM     10  C   UNL     1       5.163   5.740  18.144  0.00  0.00    +0.000 A 
ENDROOT
BRANCH   8  11
ATOM     11  C   UNL     1       2.219   7.421  19.430  0.00  0.00    +0.000 A 
ATOM     12  C   UNL     1       1.568   7.132  20.617  0.00  0.00    +0.000 A 
ATOM     13  N   UNL     1       0.807   8.212  20.962  0.00  0.00    +0.000 N 
ATOM     14  C   UNL     1      -0.012   8.292  22.152  0.00  0.00    +0.000 C 
ATOM     15  C   UNL     1       0.962   9.221  20.038  0.00  0.00    +0.000 A 
ATOM     16  C   UNL     1       0.443  10.526  20.023  0.00  0.00    +0.000 A 
ATOM     17  C   UNL     1       0.775  11.353  18.949  0.00  0.00    +0.000 A 
ATOM     18  C   UNL     1       1.562  10.882  17.905  0.00  0.00    +0.000 A 
ATOM     19  C   UNL     1       2.072   9.576  17.927  0.00  0.00    +0.000 A 
ATOM     20  C   UNL     1       1.801   8.730  19.026  0.00  0.00    +0.000 A 
ENDBRANCH   8  11
BRANCH   1  21
ATOM     21  C   UNL     1       7.593   6.135  18.625  0.00  0.00    +0.000 C 
BRANCH  21  23
ATOM     22  N   UNL     1       8.435   8.429  18.796  0.00  0.00    +0.000 N 
ATOM     23  C   UNL     1       7.896   7.469  17.961  0.00  0.00    +0.000 C 
ATOM     24  O   UNL     1       7.696   7.653  16.764  0.00  0.00    +0.000 OA
ATOM     25  H   UNL     1       8.636   8.196  19.764  0.00  0.00    +0.000 HD
BRANCH  22  26
ATOM     26  C   UNL     1       8.746   9.769  18.336  0.00  0.00    +0.000 C 
BRANCH  26  27
ATOM     27  C   UNL     1       9.698  10.509  19.280  0.00  0.00    +0.000 C 
BRANCH  27  29
ATOM     28  C   UNL     1       9.933  12.934  18.521  0.00  0.00    +0.000 C 
ATOM     29  C   UNL     1      10.598  11.559  18.598  0.00  0.00    +0.000 C 
ATOM     30  C   UNL     1      11.931  11.676  19.342  0.00  0.00    +0.000 C 
ENDBRANCH  27  29
ENDBRANCH  26  27
ENDBRANCH  22  26
ENDBRANCH  21  23
ENDBRANCH   1  21
TORSDOF 6
ENDMDL
