MODEL 1
REMARK VINA RESULT:      -7.8      0.000      0.000
REMARK  Name = 
REMARK  10 active torsions:
REMARK  status: ('A' for Active; 'I' for Inactive)
REMARK    1  A    between atoms: C_1  and  C_2
REMARK    2  A    between atoms: C_2  and  C_3
REMARK    3  A    between atoms: C_2  and  C_4
REMARK    4  A    between atoms: C_2  and  C_5
REMARK    5  A    between atoms: C_6  and  C_7
REMARK    6  A    between atoms: C_7  and  O_9
REMARK    7  A    between atoms: C_13  and  C_14
REMARK    8  A    between atoms: C_14  and  O_15
REMARK    9  A    between atoms: C_14  and  C_16
REMARK   10  A    between atoms: C_19  and  O_20
REMARK                            x       y       z     vdW  Elec       q    Type
REMARK                         _______ _______ _______ _____ _____    ______ ____
ROOT
ATOM      1  C   UNL     1       5.491   5.962  17.805  0.00  0.00    +0.000 C 
ATOM      2  C   UNL     1       4.454   5.106  17.939  0.00  0.00    +0.000 C 
ATOM      3  N   UNL     1       3.246   5.778  17.788  0.00  0.00    +0.000 N 
ATOM      4  C   UNL     1       2.540   6.123  18.907  0.00  0.00    +0.000 C 
ATOM      5  O   UNL     1       2.067   5.385  19.741  0.00  0.00    +0.000 OA
ATOM      6  C   UNL     1       2.795   7.619  18.711  0.00  0.00    +0.000 C 
ATOM      7  C   UNL     1       3.637   7.169  17.492  0.00  0.00    +0.000 C 
ATOM      8  O   UNL     1       5.074   7.302  17.566  0.00  0.00    +0.000 OA
ENDROOT
BRANCH   1  10
ATOM      9  C   UNL     1       7.595   5.634  19.322  0.00  0.00    +0.000 C 
ATOM     10  C   UNL     1       7.015   5.850  17.919  0.00  0.00    +0.000 C 
ATOM     11  C   UNL     1       7.632   7.161  17.374  0.00  0.00    +0.000 C 
ATOM     12  C   UNL     1       7.504   4.682  17.034  0.00  0.00    +0.000 C 
ENDBRANCH   1  10
BRANCH   2  13
ATOM     13  C   UNL     1       4.424   3.636  18.215  0.00  0.00    +0.000 C 
ATOM     14  O   UNL     1       3.738   2.831  17.611  0.00  0.00    +0.000 OA
BRANCH  13  15
ATOM     15  O   UNL     1       5.180   3.248  19.269  0.00  0.00    +0.000 OA
ATOM     16  H   UNL     1       5.703   3.954  19.710  0.00  0.00    +0.000 HD
ENDBRANCH  13  15
ENDBRANCH   2  13
BRANCH   6  17
ATOM     17  C   UNL     1       1.580   8.461  18.387  0.00  0.00    +0.000 C 
BRANCH  17  18
ATOM     18  C   UNL     1       1.024   9.132  19.628  0.00  0.00    +0.000 A 
ATOM     19  C   UNL     1       1.272   8.560  20.888  0.00  0.00    +0.000 A 
ATOM     20  C   UNL     1       0.810   9.165  22.060  0.00  0.00    +0.000 A 
ATOM     21  C   UNL     1       0.090  10.348  21.979  0.00  0.00    +0.000 A 
ATOM     22  C   UNL     1      -0.176  10.931  20.746  0.00  0.00    +0.000 A 
ATOM     23  C   UNL     1       0.289  10.326  19.572  0.00  0.00    +0.000 A 
BRANCH  21  24
ATOM     24  O   UNL     1      -0.375  10.978  23.093  0.00  0.00    +0.000 OA
ATOM     25  H   UNL     1      -1.146  10.492  23.429  0.00  0.00    +0.000 HD
ENDBRANCH  21  24
ENDBRANCH  17  18
BRANCH  17  26
ATOM     26  O   UNL     1       1.957   9.420  17.402  0.00  0.00    +0.000 OA
ATOM     27  H   UNL     1       2.926   9.417  17.320  0.00  0.00    +0.000 HD
ENDBRANCH  17  26
ENDBRANCH   6  17
TORSDOF 7
ENDMDL
MODEL 2
REMARK VINA RESULT:      -7.7      0.251      1.170
REMARK  Name = 
REMARK  10 active torsions:
REMARK  status: ('A' for Active; 'I' for Inactive)
REMARK    1  A    between atoms: C_1  and  C_2
REMARK    2  A    between atoms: C_2  and  C_3
REMARK    3  A    between atoms: C_2  and  C_4
REMARK    4  A    between atoms: C_2  and  C_5
REMARK    5  A    between atoms: C_6  and  C_7
REMARK    6  A    between atoms: C_7  and  O_9
REMARK    7  A    between atoms: C_13  and  C_14
REMARK    8  A    between atoms: C_14  and  O_15
REMARK    9  A    between atoms: C_14  and  C_16
REMARK   10  A    between atoms: C_19  and  O_20
REMARK                            x       y       z     vdW  Elec       q    Type
REMARK                         _______ _______ _______ _____ _____    ______ ____
ROOT
ATOM      1  C   UNL     1       5.463   5.959  17.844  0.00  0.00    +0.000 C 
ATOM      2  C   UNL     1       4.439   5.113  18.093  0.00  0.00    +0.000 C 
ATOM      3  N   UNL     1       3.222   5.771  17.960  0.00  0.00    +0.000 N 
ATOM      4  C   UNL     1       2.574   6.192  19.088  0.00  0.00    +0.000 C 
ATOM      5  O   UNL     1       2.149   5.514  19.995  0.00  0.00    +0.000 OA
ATOM      6  C   UNL     1       2.810   7.671  18.774  0.00  0.00    +0.000 C 
ATOM      7  C   UNL     1       3.589   7.139  17.547  0.00  0.00    +0.000 C 
ATOM      8  O   UNL     1       5.027   7.279  17.534  0.00  0.00    +0.000 OA
ENDROOT
BRANCH   1  10
ATOM      9  C   UNL     1       7.638   5.604  19.252  0.00  0.00    +0.000 C 
ATOM     10  C   UNL     1       6.992   5.857  17.884  0.00  0.00    +0.000 C 
ATOM     11  C   UNL     1       7.573   7.191  17.352  0.00  0.00    +0.000 C 
ATOM     12  C   UNL     1       7.448   4.722  16.942  0.00  0.00    +0.000 C 
ENDBRANCH   1  10
BRANCH   2  13
ATOM     13  C   UNL     1       4.432   3.666  18.472  0.00  0.00    +0.000 C 
ATOM     14  O   UNL     1       4.551   3.246  19.609  0.00  0.00    +0.000 OA
BRANCH  13  15
ATOM     15  O   UNL     1       4.360   2.812  17.423  0.00  0.00    +0.000 OA
ATOM     16  H   UNL     1       4.028   3.190  16.578  0.00  0.00    +0.000 HD
ENDBRANCH  13  15
ENDBRANCH   2  13
BRANCH   6  17
ATOM     17  C   UNL     1       1.576   8.486  18.457  0.00  0.00    +0.000 C 
BRANCH  17  18
ATOM     18  C   UNL     1       1.055   9.205  19.687  0.00  0.00    +0.000 A 
ATOM     19  C   UNL     1       0.356  10.416  19.530  0.00  0.00    +0.000 A 
ATOM     20  C   UNL     1      -0.173  11.092  20.634  0.00  0.00    +0.000 A 
ATOM     21  C   UNL     1      -0.003  10.563  21.904  0.00  0.00    +0.000 A 
ATOM     22  C   UNL     1       0.689   9.372  22.088  0.00  0.00    +0.000 A 
ATOM     23  C   UNL     1       1.217   8.693  20.983  0.00  0.00    +0.000 A 
BRANCH  21  24
ATOM     24  O   UNL     1      -0.506  11.182  23.008  0.00  0.00    +0.000 OA
ATOM     25  H   UNL     1      -0.237  12.115  22.993  0.00  0.00    +0.000 HD
ENDBRANCH  21  24
ENDBRANCH  17  18
BRANCH  17  26
ATOM     26  O   UNL     1       1.907   9.406  17.420  0.00  0.00    +0.000 OA
ATOM     27  H   UNL     1       1.584  10.288  17.673  0.00  0.00    +0.000 HD
ENDBRANCH  17  26
ENDBRANCH   6  17
TORSDOF 7
ENDMDL
MODEL 3
REMARK VINA RESULT:      -7.6      0.282      1.346
REMARK  Name = 
REMARK  10 active torsions:
REMARK  status: ('A' for Active; 'I' for Inactive)
REMARK    1  A    between atoms: C_1  and  C_2
REMARK    2  A    between atoms: C_2  and  C_3
REMARK    3  A    between atoms: C_2  and  C_4
REMARK    4  A    between atoms: C_2  and  C_5
REMARK    5  A    between atoms: C_6  and  C_7
REMARK    6  A    between atoms: C_7  and  O_9
REMARK    7  A    between atoms: C_13  and  C_14
REMARK    8  A    between atoms: C_14  and  O_15
REMARK    9  A    between atoms: C_14  and  C_16
REMARK   10  A    between atoms: C_19  and  O_20
REMARK                            x       y       z     vdW  Elec       q    Type
REMARK                         _______ _______ _______ _____ _____    ______ ____
ROOT
ATOM      1  C   UNL     1       5.340   5.954  17.788  0.00  0.00    +0.000 C 
ATOM      2  C   UNL     1       4.282   5.139  17.993  0.00  0.00    +0.000 C 
ATOM      3  N   UNL     1       3.092   5.848  17.874  0.00  0.00    +0.000 N 
ATOM      4  C   UNL     1       2.447   6.248  19.011  0.00  0.00    +0.000 C 
ATOM      5  O   UNL     1       1.987   5.551  19.887  0.00  0.00    +0.000 OA
ATOM      6  C   UNL     1       2.743   7.728  18.759  0.00  0.00    +0.000 C 
ATOM      7  C   UNL     1       3.514   7.215  17.519  0.00  0.00    +0.000 C 
ATOM      8  O   UNL     1       4.956   7.301  17.527  0.00  0.00    +0.000 OA
ENDROOT
BRANCH   1  10
ATOM      9  C   UNL     1       7.468   4.629  17.046  0.00  0.00    +0.000 C 
ATOM     10  C   UNL     1       6.863   5.794  17.839  0.00  0.00    +0.000 C 
ATOM     11  C   UNL     1       7.273   5.592  19.318  0.00  0.00    +0.000 C 
ATOM     12  C   UNL     1       7.526   7.092  17.327  0.00  0.00    +0.000 C 
ENDBRANCH   1  10
BRANCH   2  13
ATOM     13  C   UNL     1       4.217   3.679  18.314  0.00  0.00    +0.000 C 
ATOM     14  O   UNL     1       4.050   2.796  17.492  0.00  0.00    +0.000 OA
BRANCH  13  15
ATOM     15  O   UNL     1       4.281   3.392  19.635  0.00  0.00    +0.000 OA
ATOM     16  H   UNL     1       4.937   3.904  20.159  0.00  0.00    +0.000 HD
ENDBRANCH  13  15
ENDBRANCH   2  13
BRANCH   6  17
ATOM     17  C   UNL     1       1.543   8.601  18.462  0.00  0.00    +0.000 C 
BRANCH  17  18
ATOM     18  C   UNL     1       1.028   9.281  19.717  0.00  0.00    +0.000 A 
ATOM     19  C   UNL     1       0.342  10.504  19.603  0.00  0.00    +0.000 A 
ATOM     20  C   UNL     1      -0.182  11.145  20.729  0.00  0.00    +0.000 A 
ATOM     21  C   UNL     1      -0.018  10.569  21.980  0.00  0.00    +0.000 A 
ATOM     22  C   UNL     1       0.662   9.366  22.122  0.00  0.00    +0.000 A 
ATOM     23  C   UNL     1       1.184   8.722  20.994  0.00  0.00    +0.000 A 
BRANCH  21  24
ATOM     24  O   UNL     1      -0.517  11.154  23.105  0.00  0.00    +0.000 OA
ATOM     25  H   UNL     1      -0.401  10.543  23.852  0.00  0.00    +0.000 HD
ENDBRANCH  21  24
ENDBRANCH  17  18
BRANCH  17  26
ATOM     26  O   UNL     1       1.924   9.555  17.475  0.00  0.00    +0.000 OA
ATOM     27  H   UNL     1       2.849   9.391  17.225  0.00  0.00    +0.000 HD
ENDBRANCH  17  26
ENDBRANCH   6  17
TORSDOF 7
ENDMDL
MODEL 4
REMARK VINA RESULT:      -6.9      3.434      7.512
REMARK  Name = 
REMARK  10 active torsions:
REMARK  status: ('A' for Active; 'I' for Inactive)
REMARK    1  A    between atoms: C_1  and  C_2
REMARK    2  A    between atoms: C_2  and  C_3
REMARK    3  A    between atoms: C_2  and  C_4
REMARK    4  A    between atoms: C_2  and  C_5
REMARK    5  A    between atoms: C_6  and  C_7
REMARK    6  A    between atoms: C_7  and  O_9
REMARK    7  A    between atoms: C_13  and  C_14
REMARK    8  A    between atoms: C_14  and  O_15
REMARK    9  A    between atoms: C_14  and  C_16
REMARK   10  A    between atoms: C_19  and  O_20
REMARK                            x       y       z     vdW  Elec       q    Type
REMARK                         _______ _______ _______ _____ _____    ______ ____
ROOT
ATOM      1  C   UNL     1       3.305   4.298  19.574  0.00  0.00    +0.000 C 
ATOM      2  C   UNL     1       4.290   3.424  19.268  0.00  0.00    +0.000 C 
ATOM      3  N   UNL     1       5.185   3.995  18.370  0.00  0.00    +0.000 N 
ATOM      4  C   UNL     1       5.084   3.671  17.046  0.00  0.00    +0.000 C 
ATOM      5  O   UNL     1       5.213   2.581  16.538  0.00  0.00    +0.000 OA
ATOM      6  C   UNL     1       4.609   5.072  16.652  0.00  0.00    +0.000 C 
ATOM      7  C   UNL     1       4.678   5.366  18.170  0.00  0.00    +0.000 C 
ATOM      8  O   UNL     1       3.438   5.541  18.891  0.00  0.00    +0.000 OA
ENDROOT
BRANCH   1  10
ATOM      9  C   UNL     1       2.127   3.521  21.775  0.00  0.00    +0.000 C 
ATOM     10  C   UNL     1       2.034   4.249  20.428  0.00  0.00    +0.000 C 
ATOM     11  C   UNL     1       0.933   3.535  19.606  0.00  0.00    +0.000 C 
ATOM     12  C   UNL     1       1.561   5.691  20.716  0.00  0.00    +0.000 C 
ENDBRANCH   1  10
BRANCH   2  13
ATOM     13  C   UNL     1       4.533   2.022  19.727  0.00  0.00    +0.000 C 
ATOM     14  O   UNL     1       5.145   1.718  20.735  0.00  0.00    +0.000 OA
BRANCH  13  15
ATOM     15  O   UNL     1       4.079   1.068  18.879  0.00  0.00    +0.000 OA
ATOM     16  H   UNL     1       4.468   1.071  17.976  0.00  0.00    +0.000 HD
ENDBRANCH  13  15
ENDBRANCH   2  13
BRANCH   6  17
ATOM     17  C   UNL     1       5.559   5.876  15.791  0.00  0.00    +0.000 C 
BRANCH  17  18
ATOM     18  C   UNL     1       5.969   5.106  14.550  0.00  0.00    +0.000 A 
ATOM     19  C   UNL     1       7.289   5.221  14.076  0.00  0.00    +0.000 A 
ATOM     20  C   UNL     1       7.719   4.501  12.958  0.00  0.00    +0.000 A 
ATOM     21  C   UNL     1       6.830   3.661  12.303  0.00  0.00    +0.000 A 
ATOM     22  C   UNL     1       5.520   3.535  12.747  0.00  0.00    +0.000 A 
ATOM     23  C   UNL     1       5.088   4.254  13.867  0.00  0.00    +0.000 A 
BRANCH  21  24
ATOM     24  O   UNL     1       7.206   2.934  11.215  0.00  0.00    +0.000 OA
ATOM     25  H   UNL     1       7.999   3.340  10.826  0.00  0.00    +0.000 HD
ENDBRANCH  21  24
ENDBRANCH  17  18
BRANCH  17  26
ATOM     26  O   UNL     1       4.918   7.103  15.452  0.00  0.00    +0.000 OA
ATOM     27  H   UNL     1       4.556   7.499  16.263  0.00  0.00    +0.000 HD
ENDBRANCH  17  26
ENDBRANCH   6  17
TORSDOF 7
ENDMDL
MODEL 5
REMARK VINA RESULT:      -6.8      2.365      4.141
REMARK  Name = 
REMARK  10 active torsions:
REMARK  status: ('A' for Active; 'I' for Inactive)
REMARK    1  A    between atoms: C_1  and  C_2
REMARK    2  A    between atoms: C_2  and  C_3
REMARK    3  A    between atoms: C_2  and  C_4
REMARK    4  A    between atoms: C_2  and  C_5
REMARK    5  A    between atoms: C_6  and  C_7
REMARK    6  A    between atoms: C_7  and  O_9
REMARK    7  A    between atoms: C_13  and  C_14
REMARK    8  A    between atoms: C_14  and  O_15
REMARK    9  A    between atoms: C_14  and  C_16
REMARK   10  A    between atoms: C_19  and  O_20
REMARK                            x       y       z     vdW  Elec       q    Type
REMARK                         _______ _______ _______ _____ _____    ______ ____
ROOT
ATOM      1  C   UNL     1       2.414   5.265  19.536  0.00  0.00    +0.000 C 
ATOM      2  C   UNL     1       3.276   6.037  18.837  0.00  0.00    +0.000 C 
ATOM      3  N   UNL     1       3.084   7.379  19.143  0.00  0.00    +0.000 N 
ATOM      4  C   UNL     1       2.368   8.156  18.275  0.00  0.00    +0.000 C 
ATOM      5  O   UNL     1       2.632   8.418  17.124  0.00  0.00    +0.000 OA
ATOM      6  C   UNL     1       1.196   8.310  19.247  0.00  0.00    +0.000 C 
ATOM      7  C   UNL     1       2.020   7.374  20.164  0.00  0.00    +0.000 C 
ATOM      8  O   UNL     1       1.544   6.025  20.371  0.00  0.00    +0.000 OA
ENDROOT
BRANCH   1  10
ATOM      9  C   UNL     1       3.278   2.812  19.803  0.00  0.00    +0.000 C 
ATOM     10  C   UNL     1       2.096   3.767  19.595  0.00  0.00    +0.000 C 
ATOM     11  C   UNL     1       1.425   3.368  18.258  0.00  0.00    +0.000 C 
ATOM     12  C   UNL     1       1.089   3.508  20.737  0.00  0.00    +0.000 C 
ENDBRANCH   1  10
BRANCH   2  13
ATOM     13  C   UNL     1       4.333   5.673  17.844  0.00  0.00    +0.000 C 
ATOM     14  O   UNL     1       4.123   5.114  16.782  0.00  0.00    +0.000 OA
BRANCH  13  15
ATOM     15  O   UNL     1       5.597   5.944  18.245  0.00  0.00    +0.000 OA
ATOM     16  H   UNL     1       6.232   5.194  18.214  0.00  0.00    +0.000 HD
ENDBRANCH  13  15
ENDBRANCH   2  13
BRANCH   6  17
ATOM     17  C   UNL     1       0.960   9.704  19.785  0.00  0.00    +0.000 C 
BRANCH  17  18
ATOM     18  C   UNL     1      -0.249  10.352  19.137  0.00  0.00    +0.000 A 
ATOM     19  C   UNL     1      -0.712   9.860  17.903  0.00  0.00    +0.000 A 
ATOM     20  C   UNL     1      -1.845  10.403  17.289  0.00  0.00    +0.000 A 
ATOM     21  C   UNL     1      -2.520  11.447  17.904  0.00  0.00    +0.000 A 
ATOM     22  C   UNL     1      -2.079  11.956  19.119  0.00  0.00    +0.000 A 
ATOM     23  C   UNL     1      -0.947  11.411  19.736  0.00  0.00    +0.000 A 
BRANCH  21  24
ATOM     24  O   UNL     1      -3.631  12.003  17.347  0.00  0.00    +0.000 OA
ATOM     25  H   UNL     1      -4.044  12.596  17.998  0.00  0.00    +0.000 HD
ENDBRANCH  21  24
ENDBRANCH  17  18
BRANCH  17  26
ATOM     26  O   UNL     1       0.804   9.612  21.199  0.00  0.00    +0.000 OA
ATOM     27  H   UNL     1       0.036  10.148  21.462  0.00  0.00    +0.000 HD
ENDBRANCH  17  26
ENDBRANCH   6  17
TORSDOF 7
ENDMDL
MODEL 6
REMARK VINA RESULT:      -6.8      2.391      4.206
REMARK  Name = 
REMARK  10 active torsions:
REMARK  status: ('A' for Active; 'I' for Inactive)
REMARK    1  A    between atoms: C_1  and  C_2
REMARK    2  A    between atoms: C_2  and  C_3
REMARK    3  A    between atoms: C_2  and  C_4
REMARK    4  A    between atoms: C_2  and  C_5
REMARK    5  A    between atoms: C_6  and  C_7
REMARK    6  A    between atoms: C_7  and  O_9
REMARK    7  A    between atoms: C_13  and  C_14
REMARK    8  A    between atoms: C_14  and  O_15
REMARK    9  A    between atoms: C_14  and  C_16
REMARK   10  A    between atoms: C_19  and  O_20
REMARK                            x       y       z     vdW  Elec       q    Type
REMARK                         _______ _______ _______ _____ _____    ______ ____
ROOT
ATOM      1  C   UNL     1       2.454   5.214  19.664  0.00  0.00    +0.000 C 
ATOM      2  C   UNL     1       3.346   5.994  19.015  0.00  0.00    +0.000 C 
ATOM      3  N   UNL     1       3.110   7.336  19.292  0.00  0.00    +0.000 N 
ATOM      4  C   UNL     1       2.440   8.091  18.370  0.00  0.00    +0.000 C 
ATOM      5  O   UNL     1       2.775   8.346  17.236  0.00  0.00    +0.000 OA
ATOM      6  C   UNL     1       1.203   8.232  19.260  0.00  0.00    +0.000 C 
ATOM      7  C   UNL     1       1.981   7.321  20.241  0.00  0.00    +0.000 C 
ATOM      8  O   UNL     1       1.517   5.966  20.430  0.00  0.00    +0.000 OA
ENDROOT
BRANCH   1  10
ATOM      9  C   UNL     1       3.358   2.774  19.915  0.00  0.00    +0.000 C 
ATOM     10  C   UNL     1       2.160   3.711  19.719  0.00  0.00    +0.000 C 
ATOM     11  C   UNL     1       1.487   3.307  18.385  0.00  0.00    +0.000 C 
ATOM     12  C   UNL     1       1.165   3.431  20.867  0.00  0.00    +0.000 C 
ENDBRANCH   1  10
BRANCH   2  13
ATOM     13  C   UNL     1       4.473   5.640  18.098  0.00  0.00    +0.000 C 
ATOM     14  O   UNL     1       5.632   5.503  18.445  0.00  0.00    +0.000 OA
BRANCH  13  15
ATOM     15  O   UNL     1       4.127   5.553  16.792  0.00  0.00    +0.000 OA
ATOM     16  H   UNL     1       3.941   4.649  16.452  0.00  0.00    +0.000 HD
ENDBRANCH  13  15
ENDBRANCH   2  13
BRANCH   6  17
ATOM     17  C   UNL     1       0.907   9.627  19.766  0.00  0.00    +0.000 C 
BRANCH  17  18
ATOM     18  C   UNL     1      -0.317  10.214  19.090  0.00  0.00    +0.000 A 
ATOM     19  C   UNL     1      -1.041  11.230  19.741  0.00  0.00    +0.000 A 
ATOM     20  C   UNL     1      -2.153  11.824  19.138  0.00  0.00    +0.000 A 
ATOM     21  C   UNL     1      -2.553  11.402  17.879  0.00  0.00    +0.000 A 
ATOM     22  C   UNL     1      -1.861  10.396  17.217  0.00  0.00    +0.000 A 
ATOM     23  C   UNL     1      -0.746   9.802  17.819  0.00  0.00    +0.000 A 
BRANCH  21  24
ATOM     24  O   UNL     1      -3.626  11.956  17.248  0.00  0.00    +0.000 OA
ATOM     25  H   UNL     1      -4.350  11.309  17.237  0.00  0.00    +0.000 HD
ENDBRANCH  21  24
ENDBRANCH  17  18
BRANCH  17  26
ATOM     26  O   UNL     1       0.736   9.559  21.179  0.00  0.00    +0.000 OA
ATOM     27  H   UNL     1       0.338  10.392  21.485  0.00  0.00    +0.000 HD
ENDBRANCH  17  26
ENDBRANCH   6  17
TORSDOF 7
ENDMDL
MODEL 7
REMARK VINA RESULT:      -6.7      2.364      4.138
REMARK  Name = 
REMARK  10 active torsions:
REMARK  status: ('A' for Active; 'I' for Inactive)
REMARK    1  A    between atoms: C_1  and  C_2
REMARK    2  A    between atoms: C_2  and  C_3
REMARK    3  A    between atoms: C_2  and  C_4
REMARK    4  A    between atoms: C_2  and  C_5
REMARK    5  A    between atoms: C_6  and  C_7
REMARK    6  A    between atoms: C_7  and  O_9
REMARK    7  A    between atoms: C_13  and  C_14
REMARK    8  A    between atoms: C_14  and  O_15
REMARK    9  A    between atoms: C_14  and  C_16
REMARK   10  A    between atoms: C_19  and  O_20
REMARK                            x       y       z     vdW  Elec       q    Type
REMARK                         _______ _______ _______ _____ _____    ______ ____
ROOT
ATOM      1  C   UNL     1       2.461   5.217  19.551  0.00  0.00    +0.000 C 
ATOM      2  C   UNL     1       3.332   5.998  18.874  0.00  0.00    +0.000 C 
ATOM      3  N   UNL     1       3.116   7.339  19.174  0.00  0.00    +0.000 N 
ATOM      4  C   UNL     1       2.414   8.106  18.287  0.00  0.00    +0.000 C 
ATOM      5  O   UNL     1       2.705   8.371  17.143  0.00  0.00    +0.000 OA
ATOM      6  C   UNL     1       1.215   8.246  19.228  0.00  0.00    +0.000 C 
ATOM      7  C   UNL     1       2.026   7.321  20.167  0.00  0.00    +0.000 C 
ATOM      8  O   UNL     1       1.562   5.967  20.362  0.00  0.00    +0.000 OA
ENDROOT
BRANCH   1  10
ATOM      9  C   UNL     1       1.761   3.038  18.286  0.00  0.00    +0.000 C 
ATOM     10  C   UNL     1       2.161   3.715  19.603  0.00  0.00    +0.000 C 
ATOM     11  C   UNL     1       0.991   3.496  20.594  0.00  0.00    +0.000 C 
ATOM     12  C   UNL     1       3.400   2.969  20.146  0.00  0.00    +0.000 C 
ENDBRANCH   1  10
BRANCH   2  13
ATOM     13  C   UNL     1       4.419   5.647  17.909  0.00  0.00    +0.000 C 
ATOM     14  O   UNL     1       4.234   5.213  16.785  0.00  0.00    +0.000 OA
BRANCH  13  15
ATOM     15  O   UNL     1       5.672   5.771  18.405  0.00  0.00    +0.000 OA
ATOM     16  H   UNL     1       5.745   6.158  19.307  0.00  0.00    +0.000 HD
ENDBRANCH  13  15
ENDBRANCH   2  13
BRANCH   6  17
ATOM     17  C   UNL     1       0.948   9.638  19.759  0.00  0.00    +0.000 C 
BRANCH  17  18
ATOM     18  C   UNL     1      -0.287  10.247  19.123  0.00  0.00    +0.000 A 
ATOM     19  C   UNL     1      -0.975  11.270  19.802  0.00  0.00    +0.000 A 
ATOM     20  C   UNL     1      -2.096  11.884  19.236  0.00  0.00    +0.000 A 
ATOM     21  C   UNL     1      -2.540  11.475  17.987  0.00  0.00    +0.000 A 
ATOM     22  C   UNL     1      -1.883  10.462  17.299  0.00  0.00    +0.000 A 
ATOM     23  C   UNL     1      -0.759   9.848  17.864  0.00  0.00    +0.000 A 
BRANCH  21  24
ATOM     24  O   UNL     1      -3.622  12.049  17.393  0.00  0.00    +0.000 OA
ATOM     25  H   UNL     1      -4.357  11.414  17.401  0.00  0.00    +0.000 HD
ENDBRANCH  21  24
ENDBRANCH  17  18
BRANCH  17  26
ATOM     26  O   UNL     1       0.815   9.553  21.176  0.00  0.00    +0.000 OA
ATOM     27  H   UNL     1       0.157   8.867  21.385  0.00  0.00    +0.000 HD
ENDBRANCH  17  26
ENDBRANCH   6  17
TORSDOF 7
ENDMDL
MODEL 8
REMARK VINA RESULT:      -6.7      2.258      4.165
REMARK  Name = 
REMARK  10 active torsions:
REMARK  status: ('A' for Active; 'I' for Inactive)
REMARK    1  A    between atoms: C_1  and  C_2
REMARK    2  A    between atoms: C_2  and  C_3
REMARK    3  A    between atoms: C_2  and  C_4
REMARK    4  A    between atoms: C_2  and  C_5
REMARK    5  A    between atoms: C_6  and  C_7
REMARK    6  A    between atoms: C_7  and  O_9
REMARK    7  A    between atoms: C_13  and  C_14
REMARK    8  A    between atoms: C_14  and  O_15
REMARK    9  A    between atoms: C_14  and  C_16
REMARK   10  A    between atoms: C_19  and  O_20
REMARK                            x       y       z     vdW  Elec       q    Type
REMARK                         _______ _______ _______ _____ _____    ______ ____
ROOT
ATOM      1  C   UNL     1       2.327   5.410  19.478  0.00  0.00    +0.000 C 
ATOM      2  C   UNL     1       3.104   6.212  18.717  0.00  0.00    +0.000 C 
ATOM      3  N   UNL     1       2.952   7.540  19.098  0.00  0.00    +0.000 N 
ATOM      4  C   UNL     1       2.143   8.350  18.351  0.00  0.00    +0.000 C 
ATOM      5  O   UNL     1       2.273   8.660  17.189  0.00  0.00    +0.000 OA
ATOM      6  C   UNL     1       1.090   8.460  19.457  0.00  0.00    +0.000 C 
ATOM      7  C   UNL     1       2.013   7.490  20.234  0.00  0.00    +0.000 C 
ATOM      8  O   UNL     1       1.561   6.133  20.438  0.00  0.00    +0.000 OA
ENDROOT
BRANCH   1  10
ATOM      9  C   UNL     1       1.416   3.294  18.241  0.00  0.00    +0.000 C 
ATOM     10  C   UNL     1       2.015   3.910  19.512  0.00  0.00    +0.000 C 
ATOM     11  C   UNL     1       1.001   3.658  20.654  0.00  0.00    +0.000 C 
ATOM     12  C   UNL     1       3.310   3.131  19.834  0.00  0.00    +0.000 C 
ENDBRANCH   1  10
BRANCH   2  13
ATOM     13  C   UNL     1       4.039   5.892  17.594  0.00  0.00    +0.000 C 
ATOM     14  O   UNL     1       4.078   4.825  17.007  0.00  0.00    +0.000 OA
BRANCH  13  15
ATOM     15  O   UNL     1       4.928   6.872  17.307  0.00  0.00    +0.000 OA
ATOM     16  H   UNL     1       5.616   6.652  16.641  0.00  0.00    +0.000 HD
ENDBRANCH  13  15
ENDBRANCH   2  13
BRANCH   6  17
ATOM     17  C   UNL     1       0.922   9.831  20.076  0.00  0.00    +0.000 C 
BRANCH  17  18
ATOM     18  C   UNL     1      -0.337  10.514  19.576  0.00  0.00    +0.000 A 
ATOM     19  C   UNL     1      -0.867  10.146  18.326  0.00  0.00    +0.000 A 
ATOM     20  C   UNL     1      -2.045  10.724  17.843  0.00  0.00    +0.000 A 
ATOM     21  C   UNL     1      -2.699  11.679  18.606  0.00  0.00    +0.000 A 
ATOM     22  C   UNL     1      -2.192  12.067  19.840  0.00  0.00    +0.000 A 
ATOM     23  C   UNL     1      -1.014  11.487  20.326  0.00  0.00    +0.000 A 
BRANCH  21  24
ATOM     24  O   UNL     1      -3.852  12.264  18.180  0.00  0.00    +0.000 OA
ATOM     25  H   UNL     1      -4.521  12.182  18.880  0.00  0.00    +0.000 HD
ENDBRANCH  21  24
ENDBRANCH  17  18
BRANCH  17  26
ATOM     26  O   UNL     1       0.900   9.677  21.493  0.00  0.00    +0.000 OA
ATOM     27  H   UNL     1       0.162  10.201  21.851  0.00  0.00    +0.000 HD
ENDBRANCH  17  26
ENDBRANCH   6  17
TORSDOF 7
ENDMDL
MODEL 9
REMARK VINA RESULT:      -6.7      2.395      4.197
REMARK  Name = 
REMARK  10 active torsions:
REMARK  status: ('A' for Active; 'I' for Inactive)
REMARK    1  A    between atoms: C_1  and  C_2
REMARK    2  A    between atoms: C_2  and  C_3
REMARK    3  A    between atoms: C_2  and  C_4
REMARK    4  A    between atoms: C_2  and  C_5
REMARK    5  A    between atoms: C_6  and  C_7
REMARK    6  A    between atoms: C_7  and  O_9
REMARK    7  A    between atoms: C_13  and  C_14
REMARK    8  A    between atoms: C_14  and  O_15
REMARK    9  A    between atoms: C_14  and  C_16
REMARK   10  A    between atoms: C_19  and  O_20
REMARK                            x       y       z     vdW  Elec       q    Type
REMARK                         _______ _______ _______ _____ _____    ______ ____
ROOT
ATOM      1  C   UNL     1       2.404   5.277  19.685  0.00  0.00    +0.000 C 
ATOM      2  C   UNL     1       3.311   6.036  19.029  0.00  0.00    +0.000 C 
ATOM      3  N   UNL     1       3.100   7.384  19.296  0.00  0.00    +0.000 N 
ATOM      4  C   UNL     1       2.443   8.144  18.369  0.00  0.00    +0.000 C 
ATOM      5  O   UNL     1       2.783   8.384  17.233  0.00  0.00    +0.000 OA
ATOM      6  C   UNL     1       1.210   8.315  19.259  0.00  0.00    +0.000 C 
ATOM      7  C   UNL     1       1.972   7.397  20.246  0.00  0.00    +0.000 C 
ATOM      8  O   UNL     1       1.483   6.052  20.446  0.00  0.00    +0.000 OA
ENDROOT
BRANCH   1  10
ATOM      9  C   UNL     1       1.057   3.334  20.801  0.00  0.00    +0.000 C 
ATOM     10  C   UNL     1       2.083   3.780  19.752  0.00  0.00    +0.000 C 
ATOM     11  C   UNL     1       3.398   3.022  20.057  0.00  0.00    +0.000 C 
ATOM     12  C   UNL     1       1.565   3.312  18.374  0.00  0.00    +0.000 C 
ENDBRANCH   1  10
BRANCH   2  13
ATOM     13  C   UNL     1       4.430   5.653  18.115  0.00  0.00    +0.000 C 
ATOM     14  O   UNL     1       5.593   5.529  18.456  0.00  0.00    +0.000 OA
BRANCH  13  15
ATOM     15  O   UNL     1       4.073   5.523  16.815  0.00  0.00    +0.000 OA
ATOM     16  H   UNL     1       4.791   5.276  16.191  0.00  0.00    +0.000 HD
ENDBRANCH  13  15
ENDBRANCH   2  13
BRANCH   6  17
ATOM     17  C   UNL     1       0.941   9.719  19.754  0.00  0.00    +0.000 C 
BRANCH  17  18
ATOM     18  C   UNL     1      -0.255  10.335  19.052  0.00  0.00    +0.000 A 
ATOM     19  C   UNL     1      -0.721   9.758  17.857  0.00  0.00    +0.000 A 
ATOM     20  C   UNL     1      -1.842  10.271  17.197  0.00  0.00    +0.000 A 
ATOM     21  C   UNL     1      -2.503  11.368  17.727  0.00  0.00    +0.000 A 
ATOM     22  C   UNL     1      -2.059  11.962  18.903  0.00  0.00    +0.000 A 
ATOM     23  C   UNL     1      -0.938  11.448  19.565  0.00  0.00    +0.000 A 
BRANCH  21  24
ATOM     24  O   UNL     1      -3.603  11.898  17.124  0.00  0.00    +0.000 OA
ATOM     25  H   UNL     1      -3.401  12.054  16.186  0.00  0.00    +0.000 HD
ENDBRANCH  21  24
ENDBRANCH  17  18
BRANCH  17  26
ATOM     26  O   UNL     1       0.741   9.661  21.164  0.00  0.00    +0.000 OA
ATOM     27  H   UNL     1       1.386   9.039  21.543  0.00  0.00    +0.000 HD
ENDBRANCH  17  26
ENDBRANCH   6  17
TORSDOF 7
ENDMDL
