MODEL 1
REMARK VINA RESULT:      -7.6      0.000      0.000
REMARK  Name = 
REMARK  11 active torsions:
REMARK  status: ('A' for Active; 'I' for Inactive)
REMARK    1  A    between atoms: C_1  and  C_2
REMARK    2  A    between atoms: C_2  and  O_3
REMARK    3  A    between atoms: O_3  and  P_4
REMARK    4  A    between atoms: P_4  and  N_6
REMARK    5  A    between atoms: P_4  and  O_25
REMARK    6  A    between atoms: N_6  and  C_7
REMARK    7  A    between atoms: N_14  and  N_15
REMARK    8  A    between atoms: N_15  and  C_16
REMARK    9  A    between atoms: C_16  and  N_17
REMARK   10  A    between atoms: O_25  and  C_26
REMARK   11  A    between atoms: C_26  and  C_27
REMARK                            x       y       z     vdW  Elec       q    Type
REMARK                         _______ _______ _______ _____ _____    ______ ____
ROOT
ATOM      1  C   UNL     1       4.460   5.687  17.063  0.00  0.00    +0.000 A 
ATOM      2  C   UNL     1       4.171   6.964  16.552  0.00  0.00    +0.000 A 
ATOM      3  C   UNL     1       3.411   7.901  17.277  0.00  0.00    +0.000 A 
ATOM      4  C   UNL     1       2.856   7.540  18.498  0.00  0.00    +0.000 A 
ATOM      5  C   UNL     1       3.089   6.247  19.008  0.00  0.00    +0.000 A 
ATOM      6  C   UNL     1       3.928   5.355  18.337  0.00  0.00    +0.000 A 
ATOM      7  C   UNL     1       2.221   6.120  20.230  0.00  0.00    +0.000 C 
ATOM      8  N   UNL     1       1.916   5.143  21.021  0.00  0.00    +0.000 NA
ATOM      9  C   UNL     1       1.545   7.431  20.408  0.00  0.00    +0.000 A 
ATOM     10  C   UNL     1       0.593   7.799  21.351  0.00  0.00    +0.000 A 
ATOM     11  C   UNL     1       0.006   9.056  21.225  0.00  0.00    +0.000 A 
ATOM     12  C   UNL     1       0.401   9.915  20.189  0.00  0.00    +0.000 A 
ATOM     13  C   UNL     1       1.375   9.530  19.253  0.00  0.00    +0.000 A 
ATOM     14  C   UNL     1       1.938   8.265  19.356  0.00  0.00    +0.000 A 
ENDROOT
BRANCH   1  15
ATOM     15  N   UNL     1       5.138   4.671  16.329  0.00  0.00    +0.000 N 
ATOM     16  H   UNL     1       4.799   3.750  16.587  0.00  0.00    +0.000 HD
BRANCH  15  17
ATOM     17  P   UNL     1       6.757   4.509  15.780  0.00  0.00    +0.000 P 
ATOM     18  O   UNL     1       7.421   5.866  15.524  0.00  0.00    +0.000 OA
BRANCH  17  19
ATOM     19  O   UNL     1       6.081   4.499  14.188  0.00  0.00    +0.000 OA
BRANCH  19  21
ATOM     20  C   UNL     1       5.461   3.236  12.191  0.00  0.00    +0.000 C 
ATOM     21  C   UNL     1       6.555   3.860  13.027  0.00  0.00    +0.000 C 
ENDBRANCH  19  21
ENDBRANCH  17  19
BRANCH  17  22
ATOM     22  O   UNL     1       7.432   4.518  17.374  0.00  0.00    +0.000 OA
BRANCH  22  23
ATOM     23  C   UNL     1       7.724   5.745  18.027  0.00  0.00    +0.000 C 
ATOM     24  C   UNL     1       7.431   5.630  19.508  0.00  0.00    +0.000 C 
ENDBRANCH  22  23
ENDBRANCH  17  22
ENDBRANCH  15  17
ENDBRANCH   1  15
BRANCH   8  25
ATOM     25  N   UNL     1       2.376   3.896  20.789  0.00  0.00    +0.000 N 
ATOM     26  H   UNL     1       3.332   3.655  20.993  0.00  0.00    +0.000 HD
BRANCH  25  27
ATOM     27  C   UNL     1       1.673   2.995  20.044  0.00  0.00    +0.000 C 
ATOM     28  S   UNL     1       2.416   1.981  18.963  0.00  0.00    +0.000 S 
BRANCH  27  29
ATOM     29  N   UNL     1       0.331   2.988  20.224  0.00  0.00    +0.000 N 
ATOM     30  H   UNL     1      -0.232   3.162  19.398  0.00  0.00    +0.000 HD
ATOM     31  H   UNL     1      -0.081   2.566  21.041  0.00  0.00    +0.000 HD
ENDBRANCH  27  29
ENDBRANCH  25  27
ENDBRANCH   8  25
TORSDOF 9
ENDMDL
MODEL 2
REMARK VINA RESULT:      -7.1      0.564      2.839
REMARK  Name = 
REMARK  11 active torsions:
REMARK  status: ('A' for Active; 'I' for Inactive)
REMARK    1  A    between atoms: C_1  and  C_2
REMARK    2  A    between atoms: C_2  and  O_3
REMARK    3  A    between atoms: O_3  and  P_4
REMARK    4  A    between atoms: P_4  and  N_6
REMARK    5  A    between atoms: P_4  and  O_25
REMARK    6  A    between atoms: N_6  and  C_7
REMARK    7  A    between atoms: N_14  and  N_15
REMARK    8  A    between atoms: N_15  and  C_16
REMARK    9  A    between atoms: C_16  and  N_17
REMARK   10  A    between atoms: O_25  and  C_26
REMARK   11  A    between atoms: C_26  and  C_27
REMARK                            x       y       z     vdW  Elec       q    Type
REMARK                         _______ _______ _______ _____ _____    ______ ____
ROOT
ATOM      1  C   UNL     1       4.321   5.890  17.212  0.00  0.00    +0.000 A 
ATOM      2  C   UNL     1       3.988   7.164  16.721  0.00  0.00    +0.000 A 
ATOM      3  C   UNL     1       3.202   8.066  17.464  0.00  0.00    +0.000 A 
ATOM      4  C   UNL     1       2.667   7.670  18.683  0.00  0.00    +0.000 A 
ATOM      5  C   UNL     1       2.944   6.378  19.173  0.00  0.00    +0.000 A 
ATOM      6  C   UNL     1       3.808   5.523  18.484  0.00  0.00    +0.000 A 
ATOM      7  C   UNL     1       2.089   6.207  20.398  0.00  0.00    +0.000 C 
ATOM      8  N   UNL     1       1.820   5.209  21.177  0.00  0.00    +0.000 NA
ATOM      9  C   UNL     1       1.373   7.493  20.599  0.00  0.00    +0.000 A 
ATOM     10  C   UNL     1       0.415   7.816  21.553  0.00  0.00    +0.000 A 
ATOM     11  C   UNL     1      -0.212   9.056  21.449  0.00  0.00    +0.000 A 
ATOM     12  C   UNL     1       0.149   9.942  20.423  0.00  0.00    +0.000 A 
ATOM     13  C   UNL     1       1.129   9.601  19.475  0.00  0.00    +0.000 A 
ATOM     14  C   UNL     1       1.733   8.353  19.557  0.00  0.00    +0.000 A 
ENDROOT
BRANCH   1  15
ATOM     15  N   UNL     1       5.026   4.907  16.460  0.00  0.00    +0.000 N 
ATOM     16  H   UNL     1       5.120   4.045  16.987  0.00  0.00    +0.000 HD
BRANCH  15  17
ATOM     17  P   UNL     1       6.334   4.999  15.353  0.00  0.00    +0.000 P 
ATOM     18  O   UNL     1       7.149   3.702  15.308  0.00  0.00    +0.000 OA
BRANCH  17  19
ATOM     19  O   UNL     1       7.262   5.578  16.693  0.00  0.00    +0.000 OA
BRANCH  19  21
ATOM     20  C   UNL     1       7.719   5.826  19.080  0.00  0.00    +0.000 C 
ATOM     21  C   UNL     1       7.617   4.912  17.880  0.00  0.00    +0.000 C 
ENDBRANCH  19  21
ENDBRANCH  17  19
BRANCH  17  22
ATOM     22  O   UNL     1       5.405   4.421  14.011  0.00  0.00    +0.000 OA
BRANCH  22  23
ATOM     23  C   UNL     1       6.020   3.657  12.983  0.00  0.00    +0.000 C 
ATOM     24  C   UNL     1       5.002   3.290  11.925  0.00  0.00    +0.000 C 
ENDBRANCH  22  23
ENDBRANCH  17  22
ENDBRANCH  15  17
ENDBRANCH   1  15
BRANCH   8  25
ATOM     25  N   UNL     1       2.319   3.981  20.925  0.00  0.00    +0.000 N 
ATOM     26  H   UNL     1       3.272   3.757  21.154  0.00  0.00    +0.000 HD
BRANCH  25  27
ATOM     27  C   UNL     1       1.664   3.086  20.130  0.00  0.00    +0.000 C 
ATOM     28  S   UNL     1       2.474   2.071  19.100  0.00  0.00    +0.000 S 
BRANCH  27  29
ATOM     29  N   UNL     1       0.312   3.089  20.215  0.00  0.00    +0.000 N 
ATOM     30  H   UNL     1      -0.093   3.737  20.882  0.00  0.00    +0.000 HD
ATOM     31  H   UNL     1      -0.254   2.693  19.482  0.00  0.00    +0.000 HD
ENDBRANCH  27  29
ENDBRANCH  25  27
ENDBRANCH   8  25
TORSDOF 9
ENDMDL
MODEL 3
REMARK VINA RESULT:      -7.0      4.084      7.356
REMARK  Name = 
REMARK  11 active torsions:
REMARK  status: ('A' for Active; 'I' for Inactive)
REMARK    1  A    between atoms: C_1  and  C_2
REMARK    2  A    between atoms: C_2  and  O_3
REMARK    3  A    between atoms: O_3  and  P_4
REMARK    4  A    between atoms: P_4  and  N_6
REMARK    5  A    between atoms: P_4  and  O_25
REMARK    6  A    between atoms: N_6  and  C_7
REMARK    7  A    between atoms: N_14  and  N_15
REMARK    8  A    between atoms: N_15  and  C_16
REMARK    9  A    between atoms: C_16  and  N_17
REMARK   10  A    between atoms: O_25  and  C_26
REMARK   11  A    between atoms: C_26  and  C_27
REMARK                            x       y       z     vdW  Elec       q    Type
REMARK                         _______ _______ _______ _____ _____    ______ ____
ROOT
ATOM      1  C   UNL     1       2.050   7.917  19.299  0.00  0.00    +0.000 A 
ATOM      2  C   UNL     1       2.633   8.628  18.237  0.00  0.00    +0.000 A 
ATOM      3  C   UNL     1       3.414   7.990  17.255  0.00  0.00    +0.000 A 
ATOM      4  C   UNL     1       3.691   6.634  17.369  0.00  0.00    +0.000 A 
ATOM      5  C   UNL     1       3.160   5.909  18.454  0.00  0.00    +0.000 A 
ATOM      6  C   UNL     1       2.301   6.521  19.371  0.00  0.00    +0.000 A 
ATOM      7  C   UNL     1       3.781   4.541  18.384  0.00  0.00    +0.000 C 
ATOM      8  N   UNL     1       3.781   3.510  19.165  0.00  0.00    +0.000 NA
ATOM      9  C   UNL     1       4.634   4.525  17.167  0.00  0.00    +0.000 A 
ATOM     10  C   UNL     1       5.468   3.515  16.702  0.00  0.00    +0.000 A 
ATOM     11  C   UNL     1       6.274   3.795  15.601  0.00  0.00    +0.000 A 
ATOM     12  C   UNL     1       6.207   5.052  14.982  0.00  0.00    +0.000 A 
ATOM     13  C   UNL     1       5.348   6.056  15.460  0.00  0.00    +0.000 A 
ATOM     14  C   UNL     1       4.567   5.791  16.577  0.00  0.00    +0.000 A 
ENDROOT
BRANCH   1  15
ATOM     15  N   UNL     1       1.337   8.529  20.371  0.00  0.00    +0.000 N 
ATOM     16  H   UNL     1       0.994   7.832  21.023  0.00  0.00    +0.000 HD
BRANCH  15  17
ATOM     17  P   UNL     1       0.299   9.894  20.454  0.00  0.00    +0.000 P 
ATOM     18  O   UNL     1       1.050  11.208  20.214  0.00  0.00    +0.000 OA
BRANCH  17  19
ATOM     19  O   UNL     1       0.696   9.934  22.137  0.00  0.00    +0.000 OA
BRANCH  19  21
ATOM     20  C   UNL     1      -1.305  10.816  23.226  0.00  0.00    +0.000 C 
ATOM     21  C   UNL     1      -0.156   9.834  23.252  0.00  0.00    +0.000 C 
ENDBRANCH  19  21
ENDBRANCH  17  19
BRANCH  17  22
ATOM     22  O   UNL     1      -0.099   9.853  18.770  0.00  0.00    +0.000 OA
BRANCH  22  23
ATOM     23  C   UNL     1      -1.038  10.770  18.228  0.00  0.00    +0.000 C 
ATOM     24  C   UNL     1      -2.005  10.049  17.314  0.00  0.00    +0.000 C 
ENDBRANCH  22  23
ENDBRANCH  17  22
ENDBRANCH  15  17
ENDBRANCH   1  15
BRANCH   8  25
ATOM     25  N   UNL     1       3.157   3.548  20.361  0.00  0.00    +0.000 N 
ATOM     26  H   UNL     1       3.645   3.858  21.185  0.00  0.00    +0.000 HD
BRANCH  25  27
ATOM     27  C   UNL     1       1.954   2.939  20.566  0.00  0.00    +0.000 C 
ATOM     28  S   UNL     1       0.875   2.690  19.333  0.00  0.00    +0.000 S 
BRANCH  27  29
ATOM     29  N   UNL     1       1.682   2.566  21.839  0.00  0.00    +0.000 N 
ATOM     30  H   UNL     1       2.482   2.338  22.419  0.00  0.00    +0.000 HD
ATOM     31  H   UNL     1       0.791   2.773  22.261  0.00  0.00    +0.000 HD
ENDBRANCH  27  29
ENDBRANCH  25  27
ENDBRANCH   8  25
TORSDOF 9
ENDMDL
MODEL 4
REMARK VINA RESULT:      -6.8      1.021      2.890
REMARK  Name = 
REMARK  11 active torsions:
REMARK  status: ('A' for Active; 'I' for Inactive)
REMARK    1  A    between atoms: C_1  and  C_2
REMARK    2  A    between atoms: C_2  and  O_3
REMARK    3  A    between atoms: O_3  and  P_4
REMARK    4  A    between atoms: P_4  and  N_6
REMARK    5  A    between atoms: P_4  and  O_25
REMARK    6  A    between atoms: N_6  and  C_7
REMARK    7  A    between atoms: N_14  and  N_15
REMARK    8  A    between atoms: N_15  and  C_16
REMARK    9  A    between atoms: C_16  and  N_17
REMARK   10  A    between atoms: O_25  and  C_26
REMARK   11  A    between atoms: C_26  and  C_27
REMARK                            x       y       z     vdW  Elec       q    Type
REMARK                         _______ _______ _______ _____ _____    ______ ____
ROOT
ATOM      1  C   UNL     1       4.444   6.110  17.012  0.00  0.00    +0.000 A 
ATOM      2  C   UNL     1       3.971   7.366  16.595  0.00  0.00    +0.000 A 
ATOM      3  C   UNL     1       3.136   8.155  17.410  0.00  0.00    +0.000 A 
ATOM      4  C   UNL     1       2.695   7.657  18.629  0.00  0.00    +0.000 A 
ATOM      5  C   UNL     1       3.114   6.378  19.046  0.00  0.00    +0.000 A 
ATOM      6  C   UNL     1       4.023   5.640  18.285  0.00  0.00    +0.000 A 
ATOM      7  C   UNL     1       2.333   6.072  20.294  0.00  0.00    +0.000 C 
ATOM      8  N   UNL     1       2.194   5.020  21.035  0.00  0.00    +0.000 NA
ATOM      9  C   UNL     1       1.508   7.273  20.583  0.00  0.00    +0.000 A 
ATOM     10  C   UNL     1       0.566   7.460  21.589  0.00  0.00    +0.000 A 
ATOM     11  C   UNL     1      -0.180   8.637  21.567  0.00  0.00    +0.000 A 
ATOM     12  C   UNL     1       0.050   9.597  20.571  0.00  0.00    +0.000 A 
ATOM     13  C   UNL     1       1.016   9.394  19.571  0.00  0.00    +0.000 A 
ATOM     14  C   UNL     1       1.738   8.208  19.570  0.00  0.00    +0.000 A 
ENDROOT
BRANCH   1  15
ATOM     15  N   UNL     1       5.206   5.233  16.188  0.00  0.00    +0.000 N 
ATOM     16  H   UNL     1       4.955   4.265  16.359  0.00  0.00    +0.000 HD
BRANCH  15  17
ATOM     17  P   UNL     1       6.827   5.273  15.624  0.00  0.00    +0.000 P 
ATOM     18  O   UNL     1       7.780   4.503  16.545  0.00  0.00    +0.000 OA
BRANCH  17  19
ATOM     19  O   UNL     1       6.992   6.701  16.587  0.00  0.00    +0.000 OA
BRANCH  19  21
ATOM     20  C   UNL     1       8.133   8.343  17.991  0.00  0.00    +0.000 C 
ATOM     21  C   UNL     1       7.749   6.899  17.756  0.00  0.00    +0.000 C 
ENDBRANCH  19  21
ENDBRANCH  17  19
BRANCH  17  22
ATOM     22  O   UNL     1       6.661   3.845  14.660  0.00  0.00    +0.000 OA
BRANCH  22  23
ATOM     23  C   UNL     1       5.716   3.796  13.600  0.00  0.00    +0.000 C 
ATOM     24  C   UNL     1       6.408   3.451  12.299  0.00  0.00    +0.000 C 
ENDBRANCH  22  23
ENDBRANCH  17  22
ENDBRANCH  15  17
ENDBRANCH   1  15
BRANCH   8  25
ATOM     25  N   UNL     1       2.795   3.858  20.706  0.00  0.00    +0.000 N 
ATOM     26  H   UNL     1       3.754   3.687  20.957  0.00  0.00    +0.000 HD
BRANCH  25  27
ATOM     27  C   UNL     1       2.241   2.987  19.814  0.00  0.00    +0.000 C 
ATOM     28  S   UNL     1       0.611   2.953  19.518  0.00  0.00    +0.000 S 
BRANCH  27  29
ATOM     29  N   UNL     1       3.097   2.137  19.198  0.00  0.00    +0.000 N 
ATOM     30  H   UNL     1       4.028   2.072  19.597  0.00  0.00    +0.000 HD
ATOM     31  H   UNL     1       2.759   1.418  18.579  0.00  0.00    +0.000 HD
ENDBRANCH  27  29
ENDBRANCH  25  27
ENDBRANCH   8  25
TORSDOF 9
ENDMDL
MODEL 5
REMARK VINA RESULT:      -6.7      0.957      1.007
REMARK  Name = 
REMARK  11 active torsions:
REMARK  status: ('A' for Active; 'I' for Inactive)
REMARK    1  A    between atoms: C_1  and  C_2
REMARK    2  A    between atoms: C_2  and  O_3
REMARK    3  A    between atoms: O_3  and  P_4
REMARK    4  A    between atoms: P_4  and  N_6
REMARK    5  A    between atoms: P_4  and  O_25
REMARK    6  A    between atoms: N_6  and  C_7
REMARK    7  A    between atoms: N_14  and  N_15
REMARK    8  A    between atoms: N_15  and  C_16
REMARK    9  A    between atoms: C_16  and  N_17
REMARK   10  A    between atoms: O_25  and  C_26
REMARK   11  A    between atoms: C_26  and  C_27
REMARK                            x       y       z     vdW  Elec       q    Type
REMARK                         _______ _______ _______ _____ _____    ______ ____
ROOT
ATOM      1  C   UNL     1       4.483   5.895  17.064  0.00  0.00    +0.000 A 
ATOM      2  C   UNL     1       4.064   7.161  16.620  0.00  0.00    +0.000 A 
ATOM      3  C   UNL     1       3.246   7.993  17.408  0.00  0.00    +0.000 A 
ATOM      4  C   UNL     1       2.766   7.532  18.627  0.00  0.00    +0.000 A 
ATOM      5  C   UNL     1       3.130   6.245  19.071  0.00  0.00    +0.000 A 
ATOM      6  C   UNL     1       4.024   5.462  18.337  0.00  0.00    +0.000 A 
ATOM      7  C   UNL     1       2.317   5.988  20.310  0.00  0.00    +0.000 C 
ATOM      8  N   UNL     1       2.126   4.954  21.065  0.00  0.00    +0.000 NA
ATOM      9  C   UNL     1       1.533   7.224  20.566  0.00  0.00    +0.000 A 
ATOM     10  C   UNL     1       0.582   7.463  21.552  0.00  0.00    +0.000 A 
ATOM     11  C   UNL     1      -0.118   8.666  21.500  0.00  0.00    +0.000 A 
ATOM     12  C   UNL     1       0.164   9.600  20.493  0.00  0.00    +0.000 A 
ATOM     13  C   UNL     1       1.138   9.345  19.513  0.00  0.00    +0.000 A 
ATOM     14  C   UNL     1       1.815   8.133  19.543  0.00  0.00    +0.000 A 
ENDROOT
BRANCH   1  15
ATOM     15  N   UNL     1       5.225   4.977  16.267  0.00  0.00    +0.000 N 
ATOM     16  H   UNL     1       4.732   4.095  16.175  0.00  0.00    +0.000 HD
BRANCH  15  17
ATOM     17  P   UNL     1       6.905   4.669  16.099  0.00  0.00    +0.000 P 
ATOM     18  O   UNL     1       7.585   5.662  15.150  0.00  0.00    +0.000 OA
BRANCH  17  19
ATOM     19  O   UNL     1       6.457   3.653  14.772  0.00  0.00    +0.000 OA
BRANCH  19  21
ATOM     20  C   UNL     1       5.155   3.570  12.707  0.00  0.00    +0.000 C 
ATOM     21  C   UNL     1       6.447   3.945  13.396  0.00  0.00    +0.000 C 
ENDBRANCH  19  21
ENDBRANCH  17  19
BRANCH  17  22
ATOM     22  O   UNL     1       7.353   5.684  17.428  0.00  0.00    +0.000 OA
BRANCH  22  23
ATOM     23  C   UNL     1       7.562   7.075  17.234  0.00  0.00    +0.000 C 
ATOM     24  C   UNL     1       8.200   7.683  18.465  0.00  0.00    +0.000 C 
ENDBRANCH  22  23
ENDBRANCH  17  22
ENDBRANCH  15  17
ENDBRANCH   1  15
BRANCH   8  25
ATOM     25  N   UNL     1       2.689   3.766  20.764  0.00  0.00    +0.000 N 
ATOM     26  H   UNL     1       3.611   3.536  21.094  0.00  0.00    +0.000 HD
BRANCH  25  27
ATOM     27  C   UNL     1       2.168   2.943  19.808  0.00  0.00    +0.000 C 
ATOM     28  S   UNL     1       0.569   2.999  19.379  0.00  0.00    +0.000 S 
BRANCH  27  29
ATOM     29  N   UNL     1       3.029   2.063  19.244  0.00  0.00    +0.000 N 
ATOM     30  H   UNL     1       3.928   2.436  18.959  0.00  0.00    +0.000 HD
ATOM     31  H   UNL     1       2.904   1.070  19.356  0.00  0.00    +0.000 HD
ENDBRANCH  27  29
ENDBRANCH  25  27
ENDBRANCH   8  25
TORSDOF 9
ENDMDL
MODEL 6
REMARK VINA RESULT:      -6.6      3.796      7.728
REMARK  Name = 
REMARK  11 active torsions:
REMARK  status: ('A' for Active; 'I' for Inactive)
REMARK    1  A    between atoms: C_1  and  C_2
REMARK    2  A    between atoms: C_2  and  O_3
REMARK    3  A    between atoms: O_3  and  P_4
REMARK    4  A    between atoms: P_4  and  N_6
REMARK    5  A    between atoms: P_4  and  O_25
REMARK    6  A    between atoms: N_6  and  C_7
REMARK    7  A    between atoms: N_14  and  N_15
REMARK    8  A    between atoms: N_15  and  C_16
REMARK    9  A    between atoms: C_16  and  N_17
REMARK   10  A    between atoms: O_25  and  C_26
REMARK   11  A    between atoms: C_26  and  C_27
REMARK                            x       y       z     vdW  Elec       q    Type
REMARK                         _______ _______ _______ _____ _____    ______ ____
ROOT
ATOM      1  C   UNL     1       3.495   5.304  18.413  0.00  0.00    +0.000 A 
ATOM      2  C   UNL     1       2.937   4.342  17.553  0.00  0.00    +0.000 A 
ATOM      3  C   UNL     1       3.612   3.893  16.402  0.00  0.00    +0.000 A 
ATOM      4  C   UNL     1       4.829   4.464  16.050  0.00  0.00    +0.000 A 
ATOM      5  C   UNL     1       5.384   5.467  16.869  0.00  0.00    +0.000 A 
ATOM      6  C   UNL     1       4.764   5.838  18.064  0.00  0.00    +0.000 A 
ATOM      7  C   UNL     1       6.586   5.988  16.130  0.00  0.00    +0.000 C 
ATOM      8  N   UNL     1       7.398   6.979  16.315  0.00  0.00    +0.000 NA
ATOM      9  C   UNL     1       6.705   5.178  14.890  0.00  0.00    +0.000 A 
ATOM     10  C   UNL     1       7.610   5.316  13.845  0.00  0.00    +0.000 A 
ATOM     11  C   UNL     1       7.430   4.513  12.720  0.00  0.00    +0.000 A 
ATOM     12  C   UNL     1       6.379   3.585  12.681  0.00  0.00    +0.000 A 
ATOM     13  C   UNL     1       5.482   3.452  13.754  0.00  0.00    +0.000 A 
ATOM     14  C   UNL     1       5.639   4.274  14.862  0.00  0.00    +0.000 A 
ENDROOT
BRANCH   1  15
ATOM     15  N   UNL     1       2.812   5.864  19.531  0.00  0.00    +0.000 N 
ATOM     16  H   UNL     1       3.283   6.699  19.863  0.00  0.00    +0.000 HD
BRANCH  15  17
ATOM     17  P   UNL     1       1.967   5.166  20.852  0.00  0.00    +0.000 P 
ATOM     18  O   UNL     1       0.619   4.571  20.430  0.00  0.00    +0.000 OA
BRANCH  17  19
ATOM     19  O   UNL     1       1.254   6.729  21.057  0.00  0.00    +0.000 OA
BRANCH  19  21
ATOM     20  C   UNL     1       0.672   9.087  20.792  0.00  0.00    +0.000 C 
ATOM     21  C   UNL     1       1.629   7.957  20.483  0.00  0.00    +0.000 C 
ENDBRANCH  19  21
ENDBRANCH  17  19
BRANCH  17  22
ATOM     22  O   UNL     1       2.682   3.603  20.648  0.00  0.00    +0.000 OA
BRANCH  22  23
ATOM     23  C   UNL     1       1.871   2.436  20.623  0.00  0.00    +0.000 C 
ATOM     24  C   UNL     1       2.099   1.670  19.337  0.00  0.00    +0.000 C 
ENDBRANCH  22  23
ENDBRANCH  17  22
ENDBRANCH  15  17
ENDBRANCH   1  15
BRANCH   8  25
ATOM     25  N   UNL     1       7.217   7.839  17.338  0.00  0.00    +0.000 N 
ATOM     26  H   UNL     1       6.484   8.527  17.307  0.00  0.00    +0.000 HD
BRANCH  25  27
ATOM     27  C   UNL     1       8.151   7.996  18.321  0.00  0.00    +0.000 C 
ATOM     28  S   UNL     1       8.879   9.455  18.614  0.00  0.00    +0.000 S 
BRANCH  27  29
ATOM     29  N   UNL     1       8.462   6.886  19.032  0.00  0.00    +0.000 N 
ATOM     30  H   UNL     1       9.178   6.287  18.635  0.00  0.00    +0.000 HD
ATOM     31  H   UNL     1       8.216   6.808  20.005  0.00  0.00    +0.000 HD
ENDBRANCH  27  29
ENDBRANCH  25  27
ENDBRANCH   8  25
TORSDOF 9
ENDMDL
MODEL 7
REMARK VINA RESULT:      -6.6      4.211      5.598
REMARK  Name = 
REMARK  11 active torsions:
REMARK  status: ('A' for Active; 'I' for Inactive)
REMARK    1  A    between atoms: C_1  and  C_2
REMARK    2  A    between atoms: C_2  and  O_3
REMARK    3  A    between atoms: O_3  and  P_4
REMARK    4  A    between atoms: P_4  and  N_6
REMARK    5  A    between atoms: P_4  and  O_25
REMARK    6  A    between atoms: N_6  and  C_7
REMARK    7  A    between atoms: N_14  and  N_15
REMARK    8  A    between atoms: N_15  and  C_16
REMARK    9  A    between atoms: C_16  and  N_17
REMARK   10  A    between atoms: O_25  and  C_26
REMARK   11  A    between atoms: C_26  and  C_27
REMARK                            x       y       z     vdW  Elec       q    Type
REMARK                         _______ _______ _______ _____ _____    ______ ____
ROOT
ATOM      1  C   UNL     1       2.773   7.970  18.204  0.00  0.00    +0.000 A 
ATOM      2  C   UNL     1       2.488   7.131  19.294  0.00  0.00    +0.000 A 
ATOM      3  C   UNL     1       1.607   7.519  20.321  0.00  0.00    +0.000 A 
ATOM      4  C   UNL     1       1.059   8.795  20.312  0.00  0.00    +0.000 A 
ATOM      5  C   UNL     1       1.371   9.675  19.256  0.00  0.00    +0.000 A 
ATOM      6  C   UNL     1       2.162   9.252  18.186  0.00  0.00    +0.000 A 
ATOM      7  C   UNL     1       0.774  11.003  19.632  0.00  0.00    +0.000 C 
ATOM      8  N   UNL     1       0.843  12.195  19.133  0.00  0.00    +0.000 NA
ATOM      9  C   UNL     1       0.061  10.798  20.919  0.00  0.00    +0.000 A 
ATOM     10  C   UNL     1      -0.594  11.736  21.710  0.00  0.00    +0.000 A 
ATOM     11  C   UNL     1      -1.072  11.317  22.950  0.00  0.00    +0.000 A 
ATOM     12  C   UNL     1      -0.912   9.983  23.351  0.00  0.00    +0.000 A 
ATOM     13  C   UNL     1      -0.259   9.047  22.531  0.00  0.00    +0.000 A 
ATOM     14  C   UNL     1       0.248   9.469  21.309  0.00  0.00    +0.000 A 
ENDROOT
BRANCH   1  15
ATOM     15  N   UNL     1       3.731   7.666  17.194  0.00  0.00    +0.000 N 
ATOM     16  H   UNL     1       3.342   7.810  16.268  0.00  0.00    +0.000 HD
BRANCH  15  17
ATOM     17  P   UNL     1       4.965   6.479  17.074  0.00  0.00    +0.000 P 
ATOM     18  O   UNL     1       5.256   6.088  15.621  0.00  0.00    +0.000 OA
BRANCH  17  19
ATOM     19  O   UNL     1       3.684   5.320  17.167  0.00  0.00    +0.000 OA
BRANCH  19  21
ATOM     20  C   UNL     1       2.532   3.176  17.375  0.00  0.00    +0.000 C 
ATOM     21  C   UNL     1       3.656   4.080  17.829  0.00  0.00    +0.000 C 
ENDBRANCH  19  21
ENDBRANCH  17  19
BRANCH  17  22
ATOM     22  O   UNL     1       6.248   7.638  16.983  0.00  0.00    +0.000 OA
BRANCH  22  23
ATOM     23  C   UNL     1       7.488   7.394  17.632  0.00  0.00    +0.000 C 
ATOM     24  C   UNL     1       8.181   8.704  17.942  0.00  0.00    +0.000 C 
ENDBRANCH  22  23
ENDBRANCH  17  22
ENDBRANCH  15  17
ENDBRANCH   1  15
BRANCH   8  25
ATOM     25  N   UNL     1       1.621  12.453  18.062  0.00  0.00    +0.000 N 
ATOM     26  H   UNL     1       1.656  11.813  17.287  0.00  0.00    +0.000 HD
BRANCH  25  27
ATOM     27  C   UNL     1       2.575  13.428  18.082  0.00  0.00    +0.000 C 
ATOM     28  S   UNL     1       2.204  15.012  18.399  0.00  0.00    +0.000 S 
BRANCH  27  29
ATOM     29  N   UNL     1       3.841  13.032  17.808  0.00  0.00    +0.000 N 
ATOM     30  H   UNL     1       4.287  13.477  17.013  0.00  0.00    +0.000 HD
ATOM     31  H   UNL     1       4.395  12.551  18.498  0.00  0.00    +0.000 HD
ENDBRANCH  27  29
ENDBRANCH  25  27
ENDBRANCH   8  25
TORSDOF 9
ENDMDL
MODEL 8
REMARK VINA RESULT:      -6.6      4.437      6.999
REMARK  Name = 
REMARK  11 active torsions:
REMARK  status: ('A' for Active; 'I' for Inactive)
REMARK    1  A    between atoms: C_1  and  C_2
REMARK    2  A    between atoms: C_2  and  O_3
REMARK    3  A    between atoms: O_3  and  P_4
REMARK    4  A    between atoms: P_4  and  N_6
REMARK    5  A    between atoms: P_4  and  O_25
REMARK    6  A    between atoms: N_6  and  C_7
REMARK    7  A    between atoms: N_14  and  N_15
REMARK    8  A    between atoms: N_15  and  C_16
REMARK    9  A    between atoms: C_16  and  N_17
REMARK   10  A    between atoms: O_25  and  C_26
REMARK   11  A    between atoms: C_26  and  C_27
REMARK                            x       y       z     vdW  Elec       q    Type
REMARK                         _______ _______ _______ _____ _____    ______ ____
ROOT
ATOM      1  C   UNL     1       1.733   8.542  19.299  0.00  0.00    +0.000 A 
ATOM      2  C   UNL     1       2.319   9.184  18.195  0.00  0.00    +0.000 A 
ATOM      3  C   UNL     1       3.155   8.498  17.293  0.00  0.00    +0.000 A 
ATOM      4  C   UNL     1       3.485   7.170  17.534  0.00  0.00    +0.000 A 
ATOM      5  C   UNL     1       2.952   6.519  18.664  0.00  0.00    +0.000 A 
ATOM      6  C   UNL     1       2.041   7.170  19.499  0.00  0.00    +0.000 A 
ATOM      7  C   UNL     1       3.631   5.179  18.730  0.00  0.00    +0.000 C 
ATOM      8  N   UNL     1       3.650   4.220  19.598  0.00  0.00    +0.000 NA
ATOM      9  C   UNL     1       4.520   5.096  17.542  0.00  0.00    +0.000 A 
ATOM     10  C   UNL     1       5.409   4.087  17.190  0.00  0.00    +0.000 A 
ATOM     11  C   UNL     1       6.236   4.306  16.090  0.00  0.00    +0.000 A 
ATOM     12  C   UNL     1       6.136   5.501  15.363  0.00  0.00    +0.000 A 
ATOM     13  C   UNL     1       5.222   6.503  15.727  0.00  0.00    +0.000 A 
ATOM     14  C   UNL     1       4.419   6.302  16.842  0.00  0.00    +0.000 A 
ENDROOT
BRANCH   1  15
ATOM     15  N   UNL     1       0.963   9.212  20.293  0.00  0.00    +0.000 N 
ATOM     16  H   UNL     1       0.457   8.547  20.870  0.00  0.00    +0.000 HD
BRANCH  15  17
ATOM     17  P   UNL     1       0.093  10.691  20.296  0.00  0.00    +0.000 P 
ATOM     18  O   UNL     1      -0.848  10.808  21.500  0.00  0.00    +0.000 OA
BRANCH  17  19
ATOM     19  O   UNL     1      -1.110   9.839  19.392  0.00  0.00    +0.000 OA
BRANCH  19  21
ATOM     20  C   UNL     1      -1.680  11.720  17.942  0.00  0.00    +0.000 C 
ATOM     21  C   UNL     1      -1.803  10.242  18.236  0.00  0.00    +0.000 C 
ENDBRANCH  19  21
ENDBRANCH  17  19
BRANCH  17  22
ATOM     22  O   UNL     1       1.298  11.545  21.200  0.00  0.00    +0.000 OA
BRANCH  22  23
ATOM     23  C   UNL     1       1.877  12.735  20.685  0.00  0.00    +0.000 C 
ATOM     24  C   UNL     1       1.741  12.774  19.178  0.00  0.00    +0.000 C 
ENDBRANCH  22  23
ENDBRANCH  17  22
ENDBRANCH  15  17
ENDBRANCH   1  15
BRANCH   8  25
ATOM     25  N   UNL     1       2.989   4.334  20.769  0.00  0.00    +0.000 N 
ATOM     26  H   UNL     1       3.374   4.875  21.525  0.00  0.00    +0.000 HD
BRANCH  25  27
ATOM     27  C   UNL     1       1.928   3.535  21.078  0.00  0.00    +0.000 C 
ATOM     28  S   UNL     1       0.657   3.321  20.036  0.00  0.00    +0.000 S 
BRANCH  27  29
ATOM     29  N   UNL     1       1.962   2.941  22.295  0.00  0.00    +0.000 N 
ATOM     30  H   UNL     1       1.078   2.584  22.644  0.00  0.00    +0.000 HD
ATOM     31  H   UNL     1       2.831   2.623  22.693  0.00  0.00    +0.000 HD
ENDBRANCH  27  29
ENDBRANCH  25  27
ENDBRANCH   8  25
TORSDOF 9
ENDMDL
MODEL 9
REMARK VINA RESULT:      -6.6      3.709      7.705
REMARK  Name = 
REMARK  11 active torsions:
REMARK  status: ('A' for Active; 'I' for Inactive)
REMARK    1  A    between atoms: C_1  and  C_2
REMARK    2  A    between atoms: C_2  and  O_3
REMARK    3  A    between atoms: O_3  and  P_4
REMARK    4  A    between atoms: P_4  and  N_6
REMARK    5  A    between atoms: P_4  and  O_25
REMARK    6  A    between atoms: N_6  and  C_7
REMARK    7  A    between atoms: N_14  and  N_15
REMARK    8  A    between atoms: N_15  and  C_16
REMARK    9  A    between atoms: C_16  and  N_17
REMARK   10  A    between atoms: O_25  and  C_26
REMARK   11  A    between atoms: C_26  and  C_27
REMARK                            x       y       z     vdW  Elec       q    Type
REMARK                         _______ _______ _______ _____ _____    ______ ____
ROOT
ATOM      1  C   UNL     1       3.822   4.500  18.126  0.00  0.00    +0.000 A 
ATOM      2  C   UNL     1       3.393   3.554  17.180  0.00  0.00    +0.000 A 
ATOM      3  C   UNL     1       4.106   3.316  15.990  0.00  0.00    +0.000 A 
ATOM      4  C   UNL     1       5.223   4.086  15.691  0.00  0.00    +0.000 A 
ATOM      5  C   UNL     1       5.643   5.077  16.600  0.00  0.00    +0.000 A 
ATOM      6  C   UNL     1       4.996   5.242  17.827  0.00  0.00    +0.000 A 
ATOM      7  C   UNL     1       6.746   5.832  15.911  0.00  0.00    +0.000 C 
ATOM      8  N   UNL     1       7.411   6.907  16.187  0.00  0.00    +0.000 NA
ATOM      9  C   UNL     1       6.959   5.168  14.599  0.00  0.00    +0.000 A 
ATOM     10  C   UNL     1       7.818   5.531  13.569  0.00  0.00    +0.000 A 
ATOM     11  C   UNL     1       7.736   4.820  12.374  0.00  0.00    +0.000 A 
ATOM     12  C   UNL     1       6.827   3.759  12.249  0.00  0.00    +0.000 A 
ATOM     13  C   UNL     1       5.976   3.399  13.307  0.00  0.00    +0.000 A 
ATOM     14  C   UNL     1       6.032   4.127  14.488  0.00  0.00    +0.000 A 
ENDROOT
BRANCH   1  15
ATOM     15  N   UNL     1       3.084   4.849  19.295  0.00  0.00    +0.000 N 
ATOM     16  H   UNL     1       2.951   4.042  19.894  0.00  0.00    +0.000 HD
BRANCH  15  17
ATOM     17  P   UNL     1       1.791   5.942  19.576  0.00  0.00    +0.000 P 
ATOM     18  O   UNL     1       2.204   7.109  20.480  0.00  0.00    +0.000 OA
BRANCH  17  19
ATOM     19  O   UNL     1       1.427   4.959  20.952  0.00  0.00    +0.000 OA
BRANCH  19  21
ATOM     20  C   UNL     1       1.414   2.606  21.609  0.00  0.00    +0.000 C 
ATOM     21  C   UNL     1       2.176   3.909  21.515  0.00  0.00    +0.000 C 
ENDBRANCH  19  21
ENDBRANCH  17  19
BRANCH  17  22
ATOM     22  O   UNL     1       2.154   6.925  18.199  0.00  0.00    +0.000 OA
BRANCH  22  23
ATOM     23  C   UNL     1       2.426   8.311  18.353  0.00  0.00    +0.000 C 
ATOM     24  C   UNL     1       1.281   9.132  17.798  0.00  0.00    +0.000 C 
ENDBRANCH  22  23
ENDBRANCH  17  22
ENDBRANCH  15  17
ENDBRANCH   1  15
BRANCH   8  25
ATOM     25  N   UNL     1       7.127   7.633  17.288  0.00  0.00    +0.000 N 
ATOM     26  H   UNL     1       6.252   8.124  17.367  0.00  0.00    +0.000 HD
BRANCH  25  27
ATOM     27  C   UNL     1       8.082   7.950  18.209  0.00  0.00    +0.000 C 
ATOM     28  S   UNL     1       8.729   9.472  18.314  0.00  0.00    +0.000 S 
BRANCH  27  29
ATOM     29  N   UNL     1       8.486   6.944  19.020  0.00  0.00    +0.000 N 
ATOM     30  H   UNL     1       9.354   7.096  19.523  0.00  0.00    +0.000 HD
ATOM     31  H   UNL     1       7.843   6.230  19.322  0.00  0.00    +0.000 HD
ENDBRANCH  27  29
ENDBRANCH  25  27
ENDBRANCH   8  25
TORSDOF 9
ENDMDL
