MODEL 1
REMARK VINA RESULT:      -7.7      0.000      0.000
REMARK  Name = 
REMARK  4 active torsions:
REMARK  status: ('A' for Active; 'I' for Inactive)
REMARK    1  A    between atoms: C_4  and  N_5
REMARK    2  A    between atoms: C_8  and  C_9
REMARK    3  A    between atoms: C_9  and  N_10
REMARK    4  A    between atoms: N_10  and  C_11
REMARK                            x       y       z     vdW  Elec       q    Type
REMARK                         _______ _______ _______ _____ _____    ______ ____
ROOT
ATOM      1  C   UNL     1       7.038   5.602  18.958  0.00  0.00    +0.000 C 
ENDROOT
BRANCH   1   5
ATOM      2  N   UNL     1       6.421   5.381  15.463  0.00  0.00    +0.000 N 
ATOM      3  N   UNL     1       5.824   6.594  15.629  0.00  0.00    +0.000 NA
ATOM      4  C   UNL     1       5.960   6.804  16.935  0.00  0.00    +0.000 A 
ATOM      5  C   UNL     1       6.651   5.742  17.528  0.00  0.00    +0.000 A 
ATOM      6  N   UNL     1       6.905   4.801  16.601  0.00  0.00    +0.000 NA
BRANCH   2  10
ATOM      7  C   UNL     1       6.792   3.678  11.626  0.00  0.00    +0.000 A 
ATOM      8  C   UNL     1       5.777   3.259  12.481  0.00  0.00    +0.000 A 
ATOM      9  C   UNL     1       5.670   3.807  13.760  0.00  0.00    +0.000 A 
ATOM     10  C   UNL     1       6.573   4.797  14.178  0.00  0.00    +0.000 A 
ATOM     11  C   UNL     1       7.595   5.217  13.316  0.00  0.00    +0.000 A 
ATOM     12  C   UNL     1       7.705   4.650  12.043  0.00  0.00    +0.000 A 
ENDBRANCH   2  10
ENDBRANCH   1   5
BRANCH   1  13
ATOM     13  N   UNL     1       5.997   4.968  19.756  0.00  0.00    +0.000 NA
ATOM     14  H   UNL     1       5.814   5.612  20.533  0.00  0.00    +0.000 HD
BRANCH  13  15
ATOM     15  C   UNL     1       4.692   4.593  19.164  0.00  0.00    +0.000 C 
ATOM     16  C   UNL     1       3.752   5.682  19.746  0.00  0.00    +0.000 C 
ATOM     17  C   UNL     1       2.321   5.347  20.131  0.00  0.00    +0.000 C 
ATOM     18  C   UNL     1       1.903   3.973  19.838  0.00  0.00    +0.000 A 
ATOM     19  N   UNL     1       0.686   3.479  19.908  0.00  0.00    +0.000 NA
ATOM     20  C   UNL     1       0.858   2.186  19.502  0.00  0.00    +0.000 A 
ATOM     21  N   UNL     1       2.116   1.839  19.210  0.00  0.00    +0.000 NA
ATOM     22  N   UNL     1       2.762   2.997  19.440  0.00  0.00    +0.000 N 
ATOM     23  C   UNL     1       4.204   3.131  19.311  0.00  0.00    +0.000 C 
ENDBRANCH  13  15
ENDBRANCH   1  13
TORSDOF 4
ENDMDL
MODEL 2
REMARK VINA RESULT:      -7.7      3.659      8.143
REMARK  Name = 
REMARK  4 active torsions:
REMARK  status: ('A' for Active; 'I' for Inactive)
REMARK    1  A    between atoms: C_4  and  N_5
REMARK    2  A    between atoms: C_8  and  C_9
REMARK    3  A    between atoms: C_9  and  N_10
REMARK    4  A    between atoms: N_10  and  C_11
REMARK                            x       y       z     vdW  Elec       q    Type
REMARK                         _______ _______ _______ _____ _____    ______ ____
ROOT
ATOM      1  C   UNL     1       2.927   5.255  19.294  0.00  0.00    +0.000 C 
ENDROOT
BRANCH   1   5
ATOM      2  N   UNL     1       1.477   8.397  20.115  0.00  0.00    +0.000 N 
ATOM      3  N   UNL     1       1.859   8.749  18.856  0.00  0.00    +0.000 NA
ATOM      4  C   UNL     1       2.457   7.645  18.418  0.00  0.00    +0.000 A 
ATOM      5  C   UNL     1       2.405   6.645  19.396  0.00  0.00    +0.000 A 
ATOM      6  N   UNL     1       1.825   7.135  20.505  0.00  0.00    +0.000 NA
BRANCH   2  10
ATOM      7  C   UNL     1      -0.706  11.001  22.607  0.00  0.00    +0.000 A 
ATOM      8  C   UNL     1      -0.348   9.736  23.062  0.00  0.00    +0.000 A 
ATOM      9  C   UNL     1       0.354   8.866  22.227  0.00  0.00    +0.000 A 
ATOM     10  C   UNL     1       0.719   9.274  20.935  0.00  0.00    +0.000 A 
ATOM     11  C   UNL     1       0.357  10.548  20.478  0.00  0.00    +0.000 A 
ATOM     12  C   UNL     1      -0.362  11.407  21.314  0.00  0.00    +0.000 A 
ENDBRANCH   2  10
ENDBRANCH   1   5
BRANCH   1  13
ATOM     13  N   UNL     1       4.358   5.178  19.556  0.00  0.00    +0.000 NA
ATOM     14  H   UNL     1       4.452   4.614  20.408  0.00  0.00    +0.000 HD
BRANCH  13  15
ATOM     15  C   UNL     1       5.299   4.636  18.550  0.00  0.00    +0.000 C 
ATOM     16  C   UNL     1       6.511   5.595  18.697  0.00  0.00    +0.000 C 
ATOM     17  C   UNL     1       7.326   6.008  17.483  0.00  0.00    +0.000 C 
ATOM     18  C   UNL     1       6.925   5.379  16.222  0.00  0.00    +0.000 A 
ATOM     19  N   UNL     1       7.561   5.426  15.071  0.00  0.00    +0.000 NA
ATOM     20  C   UNL     1       6.781   4.654  14.258  0.00  0.00    +0.000 A 
ATOM     21  N   UNL     1       5.680   4.152  14.830  0.00  0.00    +0.000 NA
ATOM     22  N   UNL     1       5.795   4.636  16.080  0.00  0.00    +0.000 N 
ATOM     23  C   UNL     1       4.790   4.409  17.106  0.00  0.00    +0.000 C 
ENDBRANCH  13  15
ENDBRANCH   1  13
TORSDOF 4
ENDMDL
MODEL 3
REMARK VINA RESULT:      -7.7      3.505      8.013
REMARK  Name = 
REMARK  4 active torsions:
REMARK  status: ('A' for Active; 'I' for Inactive)
REMARK    1  A    between atoms: C_4  and  N_5
REMARK    2  A    between atoms: C_8  and  C_9
REMARK    3  A    between atoms: C_9  and  N_10
REMARK    4  A    between atoms: N_10  and  C_11
REMARK                            x       y       z     vdW  Elec       q    Type
REMARK                         _______ _______ _______ _____ _____    ______ ____
ROOT
ATOM      1  C   UNL     1       2.911   4.937  19.255  0.00  0.00    +0.000 C 
ENDROOT
BRANCH   1   5
ATOM      2  N   UNL     1       1.612   8.151  20.046  0.00  0.00    +0.000 N 
ATOM      3  N   UNL     1       2.016   8.474  18.785  0.00  0.00    +0.000 NA
ATOM      4  C   UNL     1       2.561   7.339  18.358  0.00  0.00    +0.000 A 
ATOM      5  C   UNL     1       2.457   6.351  19.344  0.00  0.00    +0.000 A 
ATOM      6  N   UNL     1       1.897   6.876  20.447  0.00  0.00    +0.000 NA
BRANCH   2  10
ATOM      7  C   UNL     1      -0.591  10.865  22.399  0.00  0.00    +0.000 A 
ATOM      8  C   UNL     1      -0.384  11.122  21.046  0.00  0.00    +0.000 A 
ATOM      9  C   UNL     1       0.367  10.234  20.274  0.00  0.00    +0.000 A 
ATOM     10  C   UNL     1       0.895   9.070  20.855  0.00  0.00    +0.000 A 
ATOM     11  C   UNL     1       0.685   8.814  22.217  0.00  0.00    +0.000 A 
ATOM     12  C   UNL     1      -0.053   9.718  22.987  0.00  0.00    +0.000 A 
ENDBRANCH   2  10
ENDBRANCH   1   5
BRANCH   1  13
ATOM     13  N   UNL     1       4.311   4.778  19.627  0.00  0.00    +0.000 NA
ATOM     14  H   UNL     1       4.318   4.085  20.384  0.00  0.00    +0.000 HD
BRANCH  13  15
ATOM     15  C   UNL     1       5.333   4.373  18.634  0.00  0.00    +0.000 C 
ATOM     16  C   UNL     1       6.409   5.477  18.815  0.00  0.00    +0.000 C 
ATOM     17  C   UNL     1       7.187   6.005  17.621  0.00  0.00    +0.000 C 
ATOM     18  C   UNL     1       6.893   5.345  16.346  0.00  0.00    +0.000 A 
ATOM     19  N   UNL     1       7.539   5.486  15.209  0.00  0.00    +0.000 NA
ATOM     20  C   UNL     1       6.879   4.630  14.374  0.00  0.00    +0.000 A 
ATOM     21  N   UNL     1       5.842   3.984  14.918  0.00  0.00    +0.000 NA
ATOM     22  N   UNL     1       5.870   4.465  16.175  0.00  0.00    +0.000 N 
ATOM     23  C   UNL     1       4.884   4.099  17.179  0.00  0.00    +0.000 C 
ENDBRANCH  13  15
ENDBRANCH   1  13
TORSDOF 4
ENDMDL
MODEL 4
REMARK VINA RESULT:      -7.6      1.225      1.831
REMARK  Name = 
REMARK  4 active torsions:
REMARK  status: ('A' for Active; 'I' for Inactive)
REMARK    1  A    between atoms: C_4  and  N_5
REMARK    2  A    between atoms: C_8  and  C_9
REMARK    3  A    between atoms: C_9  and  N_10
REMARK    4  A    between atoms: N_10  and  C_11
REMARK                            x       y       z     vdW  Elec       q    Type
REMARK                         _______ _______ _______ _____ _____    ______ ____
ROOT
ATOM      1  C   UNL     1       5.488   5.941  18.910  0.00  0.00    +0.000 C 
ENDROOT
BRANCH   1   5
ATOM      2  N   UNL     1       6.928   4.870  15.840  0.00  0.00    +0.000 N 
ATOM      3  N   UNL     1       7.913   4.365  16.636  0.00  0.00    +0.000 NA
ATOM      4  C   UNL     1       7.511   4.722  17.852  0.00  0.00    +0.000 A 
ATOM      5  C   UNL     1       6.291   5.404  17.778  0.00  0.00    +0.000 A 
ATOM      6  N   UNL     1       5.936   5.549  16.490  0.00  0.00    +0.000 NA
BRANCH   2  10
ATOM      7  C   UNL     1       6.980   4.182  11.683  0.00  0.00    +0.000 A 
ATOM      8  C   UNL     1       7.825   5.136  12.244  0.00  0.00    +0.000 A 
ATOM      9  C   UNL     1       7.789   5.379  13.618  0.00  0.00    +0.000 A 
ATOM     10  C   UNL     1       6.917   4.647  14.439  0.00  0.00    +0.000 A 
ATOM     11  C   UNL     1       6.066   3.688  13.872  0.00  0.00    +0.000 A 
ATOM     12  C   UNL     1       6.096   3.464  12.493  0.00  0.00    +0.000 A 
ENDBRANCH   2  10
ENDBRANCH   1   5
BRANCH   1  13
ATOM     13  N   UNL     1       4.285   6.630  18.461  0.00  0.00    +0.000 NA
ATOM     14  H   UNL     1       4.486   6.940  17.503  0.00  0.00    +0.000 HD
BRANCH  13  15
ATOM     15  C   UNL     1       2.967   5.953  18.448  0.00  0.00    +0.000 C 
ATOM     16  C   UNL     1       2.501   6.136  19.918  0.00  0.00    +0.000 C 
ATOM     17  C   UNL     1       1.715   5.044  20.624  0.00  0.00    +0.000 C 
ATOM     18  C   UNL     1       1.384   3.881  19.795  0.00  0.00    +0.000 A 
ATOM     19  N   UNL     1       0.575   2.889  20.101  0.00  0.00    +0.000 NA
ATOM     20  C   UNL     1       0.603   2.114  18.977  0.00  0.00    +0.000 A 
ATOM     21  N   UNL     1       1.404   2.551  17.999  0.00  0.00    +0.000 NA
ATOM     22  N   UNL     1       1.894   3.677  18.551  0.00  0.00    +0.000 N 
ATOM     23  C   UNL     1       2.878   4.514  17.886  0.00  0.00    +0.000 C 
ENDBRANCH  13  15
ENDBRANCH   1  13
TORSDOF 4
ENDMDL
MODEL 5
REMARK VINA RESULT:      -7.6      1.388      1.943
REMARK  Name = 
REMARK  4 active torsions:
REMARK  status: ('A' for Active; 'I' for Inactive)
REMARK    1  A    between atoms: C_4  and  N_5
REMARK    2  A    between atoms: C_8  and  C_9
REMARK    3  A    between atoms: C_9  and  N_10
REMARK    4  A    between atoms: N_10  and  C_11
REMARK                            x       y       z     vdW  Elec       q    Type
REMARK                         _______ _______ _______ _____ _____    ______ ____
ROOT
ATOM      1  C   UNL     1       4.633   7.479  17.609  0.00  0.00    +0.000 C 
ENDROOT
BRANCH   1   5
ATOM      2  N   UNL     1       6.417   5.560  15.204  0.00  0.00    +0.000 N 
ATOM      3  N   UNL     1       7.401   5.544  16.147  0.00  0.00    +0.000 NA
ATOM      4  C   UNL     1       6.870   6.267  17.128  0.00  0.00    +0.000 A 
ATOM      5  C   UNL     1       5.579   6.682  16.780  0.00  0.00    +0.000 A 
ATOM      6  N   UNL     1       5.300   6.277  15.529  0.00  0.00    +0.000 NA
BRANCH   2  10
ATOM      7  C   UNL     1       6.689   3.419  11.585  0.00  0.00    +0.000 A 
ATOM      8  C   UNL     1       5.666   3.140  12.486  0.00  0.00    +0.000 A 
ATOM      9  C   UNL     1       5.591   3.834  13.695  0.00  0.00    +0.000 A 
ATOM     10  C   UNL     1       6.535   4.828  13.994  0.00  0.00    +0.000 A 
ATOM     11  C   UNL     1       7.566   5.107  13.085  0.00  0.00    +0.000 A 
ATOM     12  C   UNL     1       7.643   4.395  11.885  0.00  0.00    +0.000 A 
ENDBRANCH   2  10
ENDBRANCH   1   5
BRANCH   1  13
ATOM     13  N   UNL     1       3.384   6.772  17.860  0.00  0.00    +0.000 NA
ATOM     14  H   UNL     1       2.936   6.668  16.943  0.00  0.00    +0.000 HD
BRANCH  13  15
ATOM     15  C   UNL     1       3.367   5.448  18.524  0.00  0.00    +0.000 C 
ATOM     16  C   UNL     1       2.417   4.640  17.599  0.00  0.00    +0.000 C 
ATOM     17  C   UNL     1       1.462   3.609  18.178  0.00  0.00    +0.000 C 
ATOM     18  C   UNL     1       1.575   3.400  19.624  0.00  0.00    +0.000 A 
ATOM     19  N   UNL     1       0.999   2.458  20.340  0.00  0.00    +0.000 NA
ATOM     20  C   UNL     1       1.465   2.705  21.600  0.00  0.00    +0.000 A 
ATOM     21  N   UNL     1       2.275   3.763  21.715  0.00  0.00    +0.000 NA
ATOM     22  N   UNL     1       2.322   4.191  20.440  0.00  0.00    +0.000 N 
ATOM     23  C   UNL     1       3.053   5.381  20.038  0.00  0.00    +0.000 C 
ENDBRANCH  13  15
ENDBRANCH   1  13
TORSDOF 4
ENDMDL
MODEL 6
REMARK VINA RESULT:      -7.5      2.950      5.384
REMARK  Name = 
REMARK  4 active torsions:
REMARK  status: ('A' for Active; 'I' for Inactive)
REMARK    1  A    between atoms: C_4  and  N_5
REMARK    2  A    between atoms: C_8  and  C_9
REMARK    3  A    between atoms: C_9  and  N_10
REMARK    4  A    between atoms: N_10  and  C_11
REMARK                            x       y       z     vdW  Elec       q    Type
REMARK                         _______ _______ _______ _____ _____    ______ ____
ROOT
ATOM      1  C   UNL     1       5.522   4.042  17.378  0.00  0.00    +0.000 C 
ENDROOT
BRANCH   1   5
ATOM      2  N   UNL     1       3.652   7.037  17.804  0.00  0.00    +0.000 N 
ATOM      3  N   UNL     1       4.208   7.393  16.612  0.00  0.00    +0.000 NA
ATOM      4  C   UNL     1       4.978   6.346  16.330  0.00  0.00    +0.000 A 
ATOM      5  C   UNL     1       4.857   5.373  17.329  0.00  0.00    +0.000 A 
ATOM      6  N   UNL     1       4.050   5.828  18.303  0.00  0.00    +0.000 NA
BRANCH   2  10
ATOM      7  C   UNL     1       0.713   9.430  19.645  0.00  0.00    +0.000 A 
ATOM      8  C   UNL     1       1.116   9.700  18.341  0.00  0.00    +0.000 A 
ATOM      9  C   UNL     1       2.107   8.921  17.741  0.00  0.00    +0.000 A 
ATOM     10  C   UNL     1       2.682   7.852  18.445  0.00  0.00    +0.000 A 
ATOM     11  C   UNL     1       2.275   7.583  19.759  0.00  0.00    +0.000 A 
ATOM     12  C   UNL     1       1.295   8.379  20.358  0.00  0.00    +0.000 A 
ENDBRANCH   2  10
ENDBRANCH   1   5
BRANCH   1  13
ATOM     13  N   UNL     1       4.615   2.955  17.031  0.00  0.00    +0.000 NA
ATOM     14  H   UNL     1       5.205   2.228  16.611  0.00  0.00    +0.000 HD
BRANCH  13  15
ATOM     15  C   UNL     1       3.760   2.308  18.053  0.00  0.00    +0.000 C 
ATOM     16  C   UNL     1       2.338   2.724  17.589  0.00  0.00    +0.000 C 
ATOM     17  C   UNL     1       1.251   3.036  18.604  0.00  0.00    +0.000 C 
ATOM     18  C   UNL     1       1.633   2.837  20.005  0.00  0.00    +0.000 A 
ATOM     19  N   UNL     1       0.844   2.864  21.058  0.00  0.00    +0.000 NA
ATOM     20  C   UNL     1       1.697   2.588  22.087  0.00  0.00    +0.000 A 
ATOM     21  N   UNL     1       2.978   2.417  21.740  0.00  0.00    +0.000 NA
ATOM     22  N   UNL     1       2.908   2.588  20.407  0.00  0.00    +0.000 N 
ATOM     23  C   UNL     1       4.080   2.550  19.548  0.00  0.00    +0.000 C 
ENDBRANCH  13  15
ENDBRANCH   1  13
TORSDOF 4
ENDMDL
MODEL 7
REMARK VINA RESULT:      -7.5      1.337      1.674
REMARK  Name = 
REMARK  4 active torsions:
REMARK  status: ('A' for Active; 'I' for Inactive)
REMARK    1  A    between atoms: C_4  and  N_5
REMARK    2  A    between atoms: C_8  and  C_9
REMARK    3  A    between atoms: C_9  and  N_10
REMARK    4  A    between atoms: N_10  and  C_11
REMARK                            x       y       z     vdW  Elec       q    Type
REMARK                         _______ _______ _______ _____ _____    ______ ____
ROOT
ATOM      1  C   UNL     1       4.933   6.728  18.290  0.00  0.00    +0.000 C 
ENDROOT
BRANCH   1   5
ATOM      2  N   UNL     1       6.609   5.154  15.577  0.00  0.00    +0.000 N 
ATOM      3  N   UNL     1       7.521   4.799  16.525  0.00  0.00    +0.000 NA
ATOM      4  C   UNL     1       7.025   5.356  17.625  0.00  0.00    +0.000 A 
ATOM      5  C   UNL     1       5.821   6.009  17.336  0.00  0.00    +0.000 A 
ATOM      6  N   UNL     1       5.573   5.929  16.018  0.00  0.00    +0.000 NA
BRANCH   2  10
ATOM      7  C   UNL     1       6.828   3.821  11.586  0.00  0.00    +0.000 A 
ATOM      8  C   UNL     1       5.874   3.290  12.448  0.00  0.00    +0.000 A 
ATOM      9  C   UNL     1       5.818   3.715  13.776  0.00  0.00    +0.000 A 
ATOM     10  C   UNL     1       6.711   4.695  14.238  0.00  0.00    +0.000 A 
ATOM     11  C   UNL     1       7.671   5.228  13.368  0.00  0.00    +0.000 A 
ATOM     12  C   UNL     1       7.732   4.784  12.044  0.00  0.00    +0.000 A 
ENDBRANCH   2  10
ENDBRANCH   1   5
BRANCH   1  13
ATOM     13  N   UNL     1       3.611   6.984  17.733  0.00  0.00    +0.000 NA
ATOM     14  H   UNL     1       3.710   6.857  16.720  0.00  0.00    +0.000 HD
BRANCH  13  15
ATOM     15  C   UNL     1       2.426   6.212  18.172  0.00  0.00    +0.000 C 
ATOM     16  C   UNL     1       2.484   6.386  19.713  0.00  0.00    +0.000 C 
ATOM     17  C   UNL     1       2.076   5.252  20.638  0.00  0.00    +0.000 C 
ATOM     18  C   UNL     1       1.567   4.053  19.966  0.00  0.00    +0.000 A 
ATOM     19  N   UNL     1       0.992   3.010  20.524  0.00  0.00    +0.000 NA
ATOM     20  C   UNL     1       0.688   2.218  19.454  0.00  0.00    +0.000 A 
ATOM     21  N   UNL     1       1.066   2.696  18.263  0.00  0.00    +0.000 NA
ATOM     22  N   UNL     1       1.630   3.865  18.620  0.00  0.00    +0.000 N 
ATOM     23  C   UNL     1       2.257   4.760  17.662  0.00  0.00    +0.000 C 
ENDBRANCH  13  15
ENDBRANCH   1  13
TORSDOF 4
ENDMDL
MODEL 8
REMARK VINA RESULT:      -7.5      1.355      2.141
REMARK  Name = 
REMARK  4 active torsions:
REMARK  status: ('A' for Active; 'I' for Inactive)
REMARK    1  A    between atoms: C_4  and  N_5
REMARK    2  A    between atoms: C_8  and  C_9
REMARK    3  A    between atoms: C_9  and  N_10
REMARK    4  A    between atoms: N_10  and  C_11
REMARK                            x       y       z     vdW  Elec       q    Type
REMARK                         _______ _______ _______ _____ _____    ______ ____
ROOT
ATOM      1  C   UNL     1       4.858   7.255  17.750  0.00  0.00    +0.000 C 
ENDROOT
BRANCH   1   5
ATOM      2  N   UNL     1       6.498   5.356  15.229  0.00  0.00    +0.000 N 
ATOM      3  N   UNL     1       7.417   5.111  16.204  0.00  0.00    +0.000 NA
ATOM      4  C   UNL     1       6.935   5.800  17.234  0.00  0.00    +0.000 A 
ATOM      5  C   UNL     1       5.732   6.422  16.880  0.00  0.00    +0.000 A 
ATOM      6  N   UNL     1       5.471   6.186  15.583  0.00  0.00    +0.000 NA
BRANCH   2  10
ATOM      7  C   UNL     1       6.831   3.494  11.464  0.00  0.00    +0.000 A 
ATOM      8  C   UNL     1       7.716   4.506  11.823  0.00  0.00    +0.000 A 
ATOM      9  C   UNL     1       7.589   5.138  13.061  0.00  0.00    +0.000 A 
ATOM     10  C   UNL     1       6.583   4.739  13.954  0.00  0.00    +0.000 A 
ATOM     11  C   UNL     1       5.692   3.720  13.590  0.00  0.00    +0.000 A 
ATOM     12  C   UNL     1       5.815   3.105  12.341  0.00  0.00    +0.000 A 
ENDBRANCH   2  10
ENDBRANCH   1   5
BRANCH   1  13
ATOM     13  N   UNL     1       3.561   6.636  17.991  0.00  0.00    +0.000 NA
ATOM     14  H   UNL     1       3.104   6.588  17.074  0.00  0.00    +0.000 HD
BRANCH  13  15
ATOM     15  C   UNL     1       3.450   5.300  18.621  0.00  0.00    +0.000 C 
ATOM     16  C   UNL     1       2.403   4.604  17.709  0.00  0.00    +0.000 C 
ATOM     17  C   UNL     1       1.381   3.644  18.295  0.00  0.00    +0.000 C 
ATOM     18  C   UNL     1       1.521   3.386  19.731  0.00  0.00    +0.000 A 
ATOM     19  N   UNL     1       0.889   2.477  20.442  0.00  0.00    +0.000 NA
ATOM     20  C   UNL     1       1.414   2.647  21.691  0.00  0.00    +0.000 A 
ATOM     21  N   UNL     1       2.317   3.627  21.805  0.00  0.00    +0.000 NA
ATOM     22  N   UNL     1       2.360   4.086  20.540  0.00  0.00    +0.000 N 
ATOM     23  C   UNL     1       3.180   5.219  20.143  0.00  0.00    +0.000 C 
ENDBRANCH  13  15
ENDBRANCH   1  13
TORSDOF 4
ENDMDL
MODEL 9
REMARK VINA RESULT:      -7.5      3.059      5.544
REMARK  Name = 
REMARK  4 active torsions:
REMARK  status: ('A' for Active; 'I' for Inactive)
REMARK    1  A    between atoms: C_4  and  N_5
REMARK    2  A    between atoms: C_8  and  C_9
REMARK    3  A    between atoms: C_9  and  N_10
REMARK    4  A    between atoms: N_10  and  C_11
REMARK                            x       y       z     vdW  Elec       q    Type
REMARK                         _______ _______ _______ _____ _____    ______ ____
ROOT
ATOM      1  C   UNL     1       5.680   4.629  17.582  0.00  0.00    +0.000 C 
ENDROOT
BRANCH   1   5
ATOM      2  N   UNL     1       3.395   7.309  18.073  0.00  0.00    +0.000 N 
ATOM      3  N   UNL     1       3.768   7.677  16.816  0.00  0.00    +0.000 NA
ATOM      4  C   UNL     1       4.667   6.750  16.500  0.00  0.00    +0.000 A 
ATOM      5  C   UNL     1       4.805   5.832  17.546  0.00  0.00    +0.000 A 
ATOM      6  N   UNL     1       4.032   6.210  18.579  0.00  0.00    +0.000 NA
BRANCH   2  10
ATOM      7  C   UNL     1       0.416   9.371  20.225  0.00  0.00    +0.000 A 
ATOM      8  C   UNL     1       1.052   8.270  20.792  0.00  0.00    +0.000 A 
ATOM      9  C   UNL     1       2.021   7.574  20.069  0.00  0.00    +0.000 A 
ATOM     10  C   UNL     1       2.372   7.996  18.777  0.00  0.00    +0.000 A 
ATOM     11  C   UNL     1       1.729   9.104  18.207  0.00  0.00    +0.000 A 
ATOM     12  C   UNL     1       0.747   9.784  18.932  0.00  0.00    +0.000 A 
ENDBRANCH   2  10
ENDBRANCH   1   5
BRANCH   1  13
ATOM     13  N   UNL     1       4.990   3.426  17.133  0.00  0.00    +0.000 NA
ATOM     14  H   UNL     1       5.730   2.752  16.907  0.00  0.00    +0.000 HD
BRANCH  13  15
ATOM     15  C   UNL     1       4.000   2.738  17.992  0.00  0.00    +0.000 C 
ATOM     16  C   UNL     1       2.658   3.264  17.416  0.00  0.00    +0.000 C 
ATOM     17  C   UNL     1       1.476   3.542  18.330  0.00  0.00    +0.000 C 
ATOM     18  C   UNL     1       1.689   3.204  19.741  0.00  0.00    +0.000 A 
ATOM     19  N   UNL     1       0.787   3.181  20.699  0.00  0.00    +0.000 NA
ATOM     20  C   UNL     1       1.507   2.774  21.786  0.00  0.00    +0.000 A 
ATOM     21  N   UNL     1       2.810   2.569  21.566  0.00  0.00    +0.000 NA
ATOM     22  N   UNL     1       2.899   2.857  20.255  0.00  0.00    +0.000 N 
ATOM     23  C   UNL     1       4.158   2.834  19.529  0.00  0.00    +0.000 C 
ENDBRANCH  13  15
ENDBRANCH   1  13
TORSDOF 4
ENDMDL
