MODEL 1
REMARK VINA RESULT:      -8.5      0.000      0.000
REMARK  Name = 
REMARK  8 active torsions:
REMARK  status: ('A' for Active; 'I' for Inactive)
REMARK    1  A    between atoms: C_1  and  C_2
REMARK    2  A    between atoms: C_5  and  N_6
REMARK    3  A    between atoms: C_7  and  C_9
REMARK    4  A    between atoms: C_9  and  C_10
REMARK    5  A    between atoms: C_9  and  S_11
REMARK    6  A    between atoms: S_11  and  C_12
REMARK    7  A    between atoms: C_23  and  S_24
REMARK    8  A    between atoms: S_24  and  N_27
REMARK                            x       y       z     vdW  Elec       q    Type
REMARK                         _______ _______ _______ _____ _____    ______ ____
ROOT
ATOM      1  N   UNL     1       2.491   5.821  20.380  0.00  0.00    +0.000 N 
ATOM      2  C   UNL     1       2.050   4.561  20.006  0.00  0.00    +0.000 C 
ATOM      3  O   UNL     1       1.171   4.360  19.167  0.00  0.00    +0.000 OA
ATOM      4  H   UNL     1       2.988   5.924  21.256  0.00  0.00    +0.000 HD
ENDROOT
BRANCH   1   9
ATOM      5  C   UNL     1       2.269  10.827  17.654  0.00  0.00    +0.000 C 
ATOM      6  C   UNL     1       2.130   9.477  18.294  0.00  0.00    +0.000 A 
ATOM      7  C   UNL     1       2.872   8.411  17.754  0.00  0.00    +0.000 A 
ATOM      8  C   UNL     1       2.927   7.175  18.386  0.00  0.00    +0.000 A 
ATOM      9  C   UNL     1       2.296   6.990  19.623  0.00  0.00    +0.000 A 
ATOM     10  C   UNL     1       1.521   8.024  20.162  0.00  0.00    +0.000 A 
ATOM     11  C   UNL     1       1.399   9.247  19.476  0.00  0.00    +0.000 A 
BRANCH  11  12
ATOM     12  S   UNL     1       0.191  10.431  20.074  0.00  0.00    +0.000 S 
ATOM     13  O   UNL     1      -0.774   9.689  20.859  0.00  0.00    +0.000 OA
ATOM     14  O   UNL     1       0.908  11.550  20.649  0.00  0.00    +0.000 OA
BRANCH  12  15
ATOM     15  N   UNL     1      -0.542  10.971  18.654  0.00  0.00    +0.000 NA
ATOM     16  C   UNL     1      -1.263  12.269  18.719  0.00  0.00    +0.000 C 
ATOM     17  C   UNL     1      -2.735  12.042  19.074  0.00  0.00    +0.000 C 
ATOM     18  O   UNL     1      -3.361  11.216  18.082  0.00  0.00    +0.000 OA
ATOM     19  C   UNL     1      -2.751   9.918  18.045  0.00  0.00    +0.000 C 
ATOM     20  C   UNL     1      -1.242   9.982  17.783  0.00  0.00    +0.000 C 
ENDBRANCH  12  15
ENDBRANCH  11  12
ENDBRANCH   1   9
BRANCH   2  21
ATOM     21  C   UNL     1       2.716   3.420  20.781  0.00  0.00    +0.000 C 
ATOM     22  C   UNL     1       1.663   2.435  21.277  0.00  0.00    +0.000 C 
BRANCH  21  23
ATOM     23  S   UNL     1       3.885   2.528  19.698  0.00  0.00    +0.000 S 
BRANCH  23  24
ATOM     24  C   UNL     1       4.985   3.797  19.294  0.00  0.00    +0.000 A 
ATOM     25  N   UNL     1       5.673   4.526  20.139  0.00  0.00    +0.000 NA
ATOM     26  N   UNL     1       6.532   5.306  19.402  0.00  0.00    +0.000 NA
ATOM     27  C   UNL     1       6.352   5.029  18.124  0.00  0.00    +0.000 A 
ATOM     28  N   UNL     1       5.302   4.146  18.009  0.00  0.00    +0.000 N 
ATOM     29  C   UNL     1       4.662   3.672  16.800  0.00  0.00    +0.000 C 
ATOM     30  C   UNL     1       4.651   4.680  15.654  0.00  0.00    +0.000 C 
ATOM     31  C   UNL     1       5.977   4.770  14.902  0.00  0.00    +0.000 C 
ATOM     32  C   UNL     1       7.231   4.675  15.772  0.00  0.00    +0.000 C 
ATOM     33  C   UNL     1       7.177   5.575  17.004  0.00  0.00    +0.000 C 
ENDBRANCH  23  24
ENDBRANCH  21  23
ENDBRANCH   2  21
TORSDOF 6
ENDMDL
MODEL 2
REMARK VINA RESULT:      -8.0      2.940      9.329
REMARK  Name = 
REMARK  8 active torsions:
REMARK  status: ('A' for Active; 'I' for Inactive)
REMARK    1  A    between atoms: C_1  and  C_2
REMARK    2  A    between atoms: C_5  and  N_6
REMARK    3  A    between atoms: C_7  and  C_9
REMARK    4  A    between atoms: C_9  and  C_10
REMARK    5  A    between atoms: C_9  and  S_11
REMARK    6  A    between atoms: S_11  and  C_12
REMARK    7  A    between atoms: C_23  and  S_24
REMARK    8  A    between atoms: S_24  and  N_27
REMARK                            x       y       z     vdW  Elec       q    Type
REMARK                         _______ _______ _______ _____ _____    ______ ____
ROOT
ATOM      1  N   UNL     1       1.950   8.089  19.992  0.00  0.00    +0.000 N 
ATOM      2  C   UNL     1       1.682   8.889  18.892  0.00  0.00    +0.000 C 
ATOM      3  O   UNL     1       1.878   8.545  17.725  0.00  0.00    +0.000 OA
ATOM      4  H   UNL     1       2.042   8.524  20.902  0.00  0.00    +0.000 HD
ENDROOT
BRANCH   1   9
ATOM      5  C   UNL     1       2.999   2.494  20.371  0.00  0.00    +0.000 C 
ATOM      6  C   UNL     1       2.652   3.924  20.073  0.00  0.00    +0.000 A 
ATOM      7  C   UNL     1       1.526   4.476  20.710  0.00  0.00    +0.000 A 
ATOM      8  C   UNL     1       1.235   5.831  20.618  0.00  0.00    +0.000 A 
ATOM      9  C   UNL     1       2.109   6.692  19.941  0.00  0.00    +0.000 A 
ATOM     10  C   UNL     1       3.216   6.161  19.268  0.00  0.00    +0.000 A 
ATOM     11  C   UNL     1       3.459   4.775  19.294  0.00  0.00    +0.000 A 
BRANCH  11  12
ATOM     12  S   UNL     1       4.727   4.123  18.205  0.00  0.00    +0.000 S 
ATOM     13  O   UNL     1       5.897   3.871  19.021  0.00  0.00    +0.000 OA
ATOM     14  O   UNL     1       4.136   3.063  17.415  0.00  0.00    +0.000 OA
BRANCH  12  15
ATOM     15  N   UNL     1       5.038   5.418  17.169  0.00  0.00    +0.000 NA
ATOM     16  C   UNL     1       5.316   5.091  15.746  0.00  0.00    +0.000 C 
ATOM     17  C   UNL     1       6.821   4.906  15.529  0.00  0.00    +0.000 C 
ATOM     18  O   UNL     1       7.522   6.110  15.872  0.00  0.00    +0.000 OA
ATOM     19  C   UNL     1       7.351   6.417  17.263  0.00  0.00    +0.000 C 
ATOM     20  C   UNL     1       5.876   6.549  17.662  0.00  0.00    +0.000 C 
ENDBRANCH  12  15
ENDBRANCH  11  12
ENDBRANCH   1   9
BRANCH   2  21
ATOM     21  C   UNL     1       1.171  10.286  19.257  0.00  0.00    +0.000 C 
ATOM     22  C   UNL     1       1.540  11.284  18.165  0.00  0.00    +0.000 C 
BRANCH  21  23
ATOM     23  S   UNL     1      -0.647  10.259  19.432  0.00  0.00    +0.000 S 
BRANCH  23  24
ATOM     24  C   UNL     1      -0.827  10.893  21.030  0.00  0.00    +0.000 A 
ATOM     25  N   UNL     1      -0.465  10.304  22.143  0.00  0.00    +0.000 NA
ATOM     26  N   UNL     1      -0.644  11.210  23.162  0.00  0.00    +0.000 NA
ATOM     27  C   UNL     1      -1.104  12.333  22.644  0.00  0.00    +0.000 A 
ATOM     28  N   UNL     1      -1.331  12.136  21.301  0.00  0.00    +0.000 N 
ATOM     29  C   UNL     1      -1.959  13.040  20.359  0.00  0.00    +0.000 C 
ATOM     30  C   UNL     1      -3.035  13.936  20.965  0.00  0.00    +0.000 C 
ATOM     31  C   UNL     1      -2.477  15.137  21.727  0.00  0.00    +0.000 C 
ATOM     32  C   UNL     1      -1.215  14.864  22.545  0.00  0.00    +0.000 C 
ATOM     33  C   UNL     1      -1.314  13.604  23.400  0.00  0.00    +0.000 C 
ENDBRANCH  23  24
ENDBRANCH  21  23
ENDBRANCH   2  21
TORSDOF 6
ENDMDL
MODEL 3
REMARK VINA RESULT:      -7.9      1.583      2.184
REMARK  Name = 
REMARK  8 active torsions:
REMARK  status: ('A' for Active; 'I' for Inactive)
REMARK    1  A    between atoms: C_1  and  C_2
REMARK    2  A    between atoms: C_5  and  N_6
REMARK    3  A    between atoms: C_7  and  C_9
REMARK    4  A    between atoms: C_9  and  C_10
REMARK    5  A    between atoms: C_9  and  S_11
REMARK    6  A    between atoms: S_11  and  C_12
REMARK    7  A    between atoms: C_23  and  S_24
REMARK    8  A    between atoms: S_24  and  N_27
REMARK                            x       y       z     vdW  Elec       q    Type
REMARK                         _______ _______ _______ _____ _____    ______ ____
ROOT
ATOM      1  N   UNL     1       2.545   5.852  20.403  0.00  0.00    +0.000 N 
ATOM      2  C   UNL     1       2.085   4.584  20.081  0.00  0.00    +0.000 C 
ATOM      3  O   UNL     1       1.167   4.364  19.289  0.00  0.00    +0.000 OA
ATOM      4  H   UNL     1       3.082   5.976  21.251  0.00  0.00    +0.000 HD
ENDROOT
BRANCH   1   9
ATOM      5  C   UNL     1       2.139  10.824  17.634  0.00  0.00    +0.000 C 
ATOM      6  C   UNL     1       2.058   9.467  18.272  0.00  0.00    +0.000 A 
ATOM      7  C   UNL     1       2.915   8.460  17.793  0.00  0.00    +0.000 A 
ATOM      8  C   UNL     1       3.018   7.232  18.435  0.00  0.00    +0.000 A 
ATOM      9  C   UNL     1       2.316   7.002  19.626  0.00  0.00    +0.000 A 
ATOM     10  C   UNL     1       1.428   7.975  20.102  0.00  0.00    +0.000 A 
ATOM     11  C   UNL     1       1.264   9.184  19.401  0.00  0.00    +0.000 A 
BRANCH  11  12
ATOM     12  S   UNL     1      -0.070  10.273  19.903  0.00  0.00    +0.000 S 
ATOM     13  O   UNL     1      -0.176  11.306  18.893  0.00  0.00    +0.000 OA
ATOM     14  O   UNL     1      -1.214   9.452  20.242  0.00  0.00    +0.000 OA
BRANCH  12  15
ATOM     15  N   UNL     1       0.514  10.950  21.334  0.00  0.00    +0.000 NA
ATOM     16  C   UNL     1      -0.020  10.399  22.607  0.00  0.00    +0.000 C 
ATOM     17  C   UNL     1      -1.253  11.192  23.051  0.00  0.00    +0.000 C 
ATOM     18  O   UNL     1      -0.908  12.570  23.253  0.00  0.00    +0.000 OA
ATOM     19  C   UNL     1      -0.468  13.167  22.025  0.00  0.00    +0.000 C 
ATOM     20  C   UNL     1       0.720  12.425  21.401  0.00  0.00    +0.000 C 
ENDBRANCH  12  15
ENDBRANCH  11  12
ENDBRANCH   1   9
BRANCH   2  21
ATOM     21  C   UNL     1       2.784   3.462  20.854  0.00  0.00    +0.000 C 
ATOM     22  C   UNL     1       1.756   2.485  21.413  0.00  0.00    +0.000 C 
BRANCH  21  23
ATOM     23  S   UNL     1       3.911   2.547  19.743  0.00  0.00    +0.000 S 
BRANCH  23  24
ATOM     24  C   UNL     1       4.990   3.810  19.267  0.00  0.00    +0.000 A 
ATOM     25  N   UNL     1       5.687   4.579  20.068  0.00  0.00    +0.000 NA
ATOM     26  N   UNL     1       6.523   5.337  19.282  0.00  0.00    +0.000 NA
ATOM     27  C   UNL     1       6.321   5.007  18.021  0.00  0.00    +0.000 A 
ATOM     28  N   UNL     1       5.278   4.110  17.963  0.00  0.00    +0.000 N 
ATOM     29  C   UNL     1       4.619   3.581  16.787  0.00  0.00    +0.000 C 
ATOM     30  C   UNL     1       4.575   4.541  15.601  0.00  0.00    +0.000 C 
ATOM     31  C   UNL     1       5.886   4.614  14.820  0.00  0.00    +0.000 C 
ATOM     32  C   UNL     1       7.157   4.566  15.668  0.00  0.00    +0.000 C 
ATOM     33  C   UNL     1       7.118   5.514  16.863  0.00  0.00    +0.000 C 
ENDBRANCH  23  24
ENDBRANCH  21  23
ENDBRANCH   2  21
TORSDOF 6
ENDMDL
MODEL 4
REMARK VINA RESULT:      -7.9      2.868      9.424
REMARK  Name = 
REMARK  8 active torsions:
REMARK  status: ('A' for Active; 'I' for Inactive)
REMARK    1  A    between atoms: C_1  and  C_2
REMARK    2  A    between atoms: C_5  and  N_6
REMARK    3  A    between atoms: C_7  and  C_9
REMARK    4  A    between atoms: C_9  and  C_10
REMARK    5  A    between atoms: C_9  and  S_11
REMARK    6  A    between atoms: S_11  and  C_12
REMARK    7  A    between atoms: C_23  and  S_24
REMARK    8  A    between atoms: S_24  and  N_27
REMARK                            x       y       z     vdW  Elec       q    Type
REMARK                         _______ _______ _______ _____ _____    ______ ____
ROOT
ATOM      1  N   UNL     1       1.911   8.123  19.933  0.00  0.00    +0.000 N 
ATOM      2  C   UNL     1       1.551   8.849  18.809  0.00  0.00    +0.000 C 
ATOM      3  O   UNL     1       1.703   8.451  17.652  0.00  0.00    +0.000 OA
ATOM      4  H   UNL     1       2.028   8.610  20.812  0.00  0.00    +0.000 HD
ENDROOT
BRANCH   1   9
ATOM      5  C   UNL     1       3.213   2.604  20.561  0.00  0.00    +0.000 C 
ATOM      6  C   UNL     1       2.799   4.001  20.201  0.00  0.00    +0.000 A 
ATOM      7  C   UNL     1       1.656   4.533  20.827  0.00  0.00    +0.000 A 
ATOM      8  C   UNL     1       1.304   5.868  20.674  0.00  0.00    +0.000 A 
ATOM      9  C   UNL     1       2.131   6.733  19.946  0.00  0.00    +0.000 A 
ATOM     10  C   UNL     1       3.253   6.220  19.283  0.00  0.00    +0.000 A 
ATOM     11  C   UNL     1       3.559   4.849  19.372  0.00  0.00    +0.000 A 
BRANCH  11  12
ATOM     12  S   UNL     1       4.842   4.202  18.298  0.00  0.00    +0.000 S 
ATOM     13  O   UNL     1       6.021   4.011  19.116  0.00  0.00    +0.000 OA
ATOM     14  O   UNL     1       4.281   3.100  17.543  0.00  0.00    +0.000 OA
BRANCH  12  15
ATOM     15  N   UNL     1       5.109   5.473  17.221  0.00  0.00    +0.000 NA
ATOM     16  C   UNL     1       5.301   5.116  15.791  0.00  0.00    +0.000 C 
ATOM     17  C   UNL     1       6.788   4.906  15.493  0.00  0.00    +0.000 C 
ATOM     18  O   UNL     1       7.523   6.107  15.772  0.00  0.00    +0.000 OA
ATOM     19  C   UNL     1       7.436   6.442  17.164  0.00  0.00    +0.000 C 
ATOM     20  C   UNL     1       5.988   6.601  17.643  0.00  0.00    +0.000 C 
ENDBRANCH  12  15
ENDBRANCH  11  12
ENDBRANCH   1   9
BRANCH   2  21
ATOM     21  C   UNL     1       0.995  10.240  19.127  0.00  0.00    +0.000 C 
ATOM     22  C   UNL     1      -0.399  10.401  18.529  0.00  0.00    +0.000 C 
BRANCH  21  23
ATOM     23  S   UNL     1       0.882  10.469  20.936  0.00  0.00    +0.000 S 
BRANCH  23  24
ATOM     24  C   UNL     1       0.331  12.104  21.022  0.00  0.00    +0.000 A 
ATOM     25  N   UNL     1       0.960  13.160  20.569  0.00  0.00    +0.000 NA
ATOM     26  N   UNL     1       0.109  14.232  20.700  0.00  0.00    +0.000 NA
ATOM     27  C   UNL     1      -1.023  13.802  21.226  0.00  0.00    +0.000 A 
ATOM     28  N   UNL     1      -0.882  12.469  21.540  0.00  0.00    +0.000 N 
ATOM     29  C   UNL     1      -1.810  11.617  22.256  0.00  0.00    +0.000 C 
ATOM     30  C   UNL     1      -2.644  12.339  23.311  0.00  0.00    +0.000 C 
ATOM     31  C   UNL     1      -3.823  13.119  22.735  0.00  0.00    +0.000 C 
ATOM     32  C   UNL     1      -3.551  13.835  21.412  0.00  0.00    +0.000 C 
ATOM     33  C   UNL     1      -2.249  14.633  21.417  0.00  0.00    +0.000 C 
ENDBRANCH  23  24
ENDBRANCH  21  23
ENDBRANCH   2  21
TORSDOF 6
ENDMDL
MODEL 5
REMARK VINA RESULT:      -7.9      1.023      1.767
REMARK  Name = 
REMARK  8 active torsions:
REMARK  status: ('A' for Active; 'I' for Inactive)
REMARK    1  A    between atoms: C_1  and  C_2
REMARK    2  A    between atoms: C_5  and  N_6
REMARK    3  A    between atoms: C_7  and  C_9
REMARK    4  A    between atoms: C_9  and  C_10
REMARK    5  A    between atoms: C_9  and  S_11
REMARK    6  A    between atoms: S_11  and  C_12
REMARK    7  A    between atoms: C_23  and  S_24
REMARK    8  A    between atoms: S_24  and  N_27
REMARK                            x       y       z     vdW  Elec       q    Type
REMARK                         _______ _______ _______ _____ _____    ______ ____
ROOT
ATOM      1  N   UNL     1       2.201   5.429  19.982  0.00  0.00    +0.000 N 
ATOM      2  C   UNL     1       1.864   4.244  19.345  0.00  0.00    +0.000 C 
ATOM      3  O   UNL     1       1.154   4.180  18.339  0.00  0.00    +0.000 OA
ATOM      4  H   UNL     1       2.530   5.392  20.938  0.00  0.00    +0.000 HD
ENDROOT
BRANCH   1   9
ATOM      5  C   UNL     1       2.463  10.751  17.945  0.00  0.00    +0.000 C 
ATOM      6  C   UNL     1       2.194   9.348  18.405  0.00  0.00    +0.000 A 
ATOM      7  C   UNL     1       2.818   8.295  17.711  0.00  0.00    +0.000 A 
ATOM      8  C   UNL     1       2.752   6.986  18.173  0.00  0.00    +0.000 A 
ATOM      9  C   UNL     1       2.119   6.702  19.390  0.00  0.00    +0.000 A 
ATOM     10  C   UNL     1       1.458   7.727  20.079  0.00  0.00    +0.000 A 
ATOM     11  C   UNL     1       1.455   9.036  19.563  0.00  0.00    +0.000 A 
BRANCH  11  12
ATOM     12  S   UNL     1       0.380  10.244  20.340  0.00  0.00    +0.000 S 
ATOM     13  O   UNL     1      -0.666   9.506  21.016  0.00  0.00    +0.000 OA
ATOM     14  O   UNL     1       1.212  11.180  21.069  0.00  0.00    +0.000 OA
BRANCH  12  15
ATOM     15  N   UNL     1      -0.278  11.066  19.022  0.00  0.00    +0.000 NA
ATOM     16  C   UNL     1      -0.775  12.446  19.268  0.00  0.00    +0.000 C 
ATOM     17  C   UNL     1      -2.259  12.415  19.647  0.00  0.00    +0.000 C 
ATOM     18  O   UNL     1      -3.028  11.829  18.587  0.00  0.00    +0.000 OA
ATOM     19  C   UNL     1      -2.639  10.464  18.373  0.00  0.00    +0.000 C 
ATOM     20  C   UNL     1      -1.144  10.318  18.066  0.00  0.00    +0.000 C 
ENDBRANCH  12  15
ENDBRANCH  11  12
ENDBRANCH   1   9
BRANCH   2  21
ATOM     21  C   UNL     1       2.405   2.994  20.044  0.00  0.00    +0.000 C 
ATOM     22  C   UNL     1       2.033   1.745  19.253  0.00  0.00    +0.000 C 
BRANCH  21  23
ATOM     23  S   UNL     1       4.226   3.085  20.166  0.00  0.00    +0.000 S 
BRANCH  23  24
ATOM     24  C   UNL     1       4.632   3.590  18.564  0.00  0.00    +0.000 A 
ATOM     25  N   UNL     1       4.134   3.112  17.450  0.00  0.00    +0.000 NA
ATOM     26  N   UNL     1       4.609   3.892  16.421  0.00  0.00    +0.000 NA
ATOM     27  C   UNL     1       5.381   4.831  16.935  0.00  0.00    +0.000 A 
ATOM     28  N   UNL     1       5.502   4.609  18.288  0.00  0.00    +0.000 N 
ATOM     29  C   UNL     1       6.356   5.300  19.233  0.00  0.00    +0.000 C 
ATOM     30  C   UNL     1       7.671   5.804  18.645  0.00  0.00    +0.000 C 
ATOM     31  C   UNL     1       7.531   7.097  17.845  0.00  0.00    +0.000 C 
ATOM     32  C   UNL     1       6.267   7.206  16.993  0.00  0.00    +0.000 C 
ATOM     33  C   UNL     1       5.993   5.955  16.163  0.00  0.00    +0.000 C 
ENDBRANCH  23  24
ENDBRANCH  21  23
ENDBRANCH   2  21
TORSDOF 6
ENDMDL
MODEL 6
REMARK VINA RESULT:      -7.9      2.778      9.340
REMARK  Name = 
REMARK  8 active torsions:
REMARK  status: ('A' for Active; 'I' for Inactive)
REMARK    1  A    between atoms: C_1  and  C_2
REMARK    2  A    between atoms: C_5  and  N_6
REMARK    3  A    between atoms: C_7  and  C_9
REMARK    4  A    between atoms: C_9  and  C_10
REMARK    5  A    between atoms: C_9  and  S_11
REMARK    6  A    between atoms: S_11  and  C_12
REMARK    7  A    between atoms: C_23  and  S_24
REMARK    8  A    between atoms: S_24  and  N_27
REMARK                            x       y       z     vdW  Elec       q    Type
REMARK                         _______ _______ _______ _____ _____    ______ ____
ROOT
ATOM      1  N   UNL     1       1.631   7.058  20.877  0.00  0.00    +0.000 N 
ATOM      2  C   UNL     1       1.403   8.219  20.155  0.00  0.00    +0.000 C 
ATOM      3  O   UNL     1       1.684   8.357  18.964  0.00  0.00    +0.000 OA
ATOM      4  H   UNL     1       1.649   7.107  21.888  0.00  0.00    +0.000 HD
ENDROOT
BRANCH   1   9
ATOM      5  C   UNL     1       2.792   1.739  19.171  0.00  0.00    +0.000 C 
ATOM      6  C   UNL     1       2.452   3.182  19.412  0.00  0.00    +0.000 A 
ATOM      7  C   UNL     1       1.214   3.476  20.011  0.00  0.00    +0.000 A 
ATOM      8  C   UNL     1       0.897   4.767  20.417  0.00  0.00    +0.000 A 
ATOM      9  C   UNL     1       1.845   5.792  20.303  0.00  0.00    +0.000 A 
ATOM     10  C   UNL     1       3.069   5.531  19.676  0.00  0.00    +0.000 A 
ATOM     11  C   UNL     1       3.353   4.241  19.189  0.00  0.00    +0.000 A 
BRANCH  11  12
ATOM     12  S   UNL     1       4.812   4.029  18.168  0.00  0.00    +0.000 S 
ATOM     13  O   UNL     1       5.881   3.595  19.044  0.00  0.00    +0.000 OA
ATOM     14  O   UNL     1       4.439   3.241  17.012  0.00  0.00    +0.000 OA
BRANCH  12  15
ATOM     15  N   UNL     1       5.131   5.598  17.635  0.00  0.00    +0.000 NA
ATOM     16  C   UNL     1       5.142   5.821  16.165  0.00  0.00    +0.000 C 
ATOM     17  C   UNL     1       6.558   5.633  15.611  0.00  0.00    +0.000 C 
ATOM     18  O   UNL     1       7.457   6.567  16.227  0.00  0.00    +0.000 OA
ATOM     19  C   UNL     1       7.543   6.331  17.640  0.00  0.00    +0.000 C 
ATOM     20  C   UNL     1       6.178   6.398  18.333  0.00  0.00    +0.000 C 
ENDBRANCH  12  15
ENDBRANCH  11  12
ENDBRANCH   1   9
BRANCH   2  21
ATOM     21  C   UNL     1       0.818   9.360  20.993  0.00  0.00    +0.000 C 
ATOM     22  C   UNL     1       1.441   9.366  22.385  0.00  0.00    +0.000 C 
BRANCH  21  23
ATOM     23  S   UNL     1       1.166  10.965  20.192  0.00  0.00    +0.000 S 
BRANCH  23  24
ATOM     24  C   UNL     1      -0.433  11.604  20.042  0.00  0.00    +0.000 A 
ATOM     25  N   UNL     1      -1.187  11.566  18.971  0.00  0.00    +0.000 NA
ATOM     26  N   UNL     1      -2.427  12.043  19.326  0.00  0.00    +0.000 NA
ATOM     27  C   UNL     1      -2.400  12.356  20.608  0.00  0.00    +0.000 A 
ATOM     28  N   UNL     1      -1.116  12.186  21.075  0.00  0.00    +0.000 N 
ATOM     29  C   UNL     1      -0.586  12.535  22.377  0.00  0.00    +0.000 C 
ATOM     30  C   UNL     1      -1.241  13.755  23.019  0.00  0.00    +0.000 C 
ATOM     31  C   UNL     1      -2.594  13.460  23.663  0.00  0.00    +0.000 C 
ATOM     32  C   UNL     1      -3.482  12.479  22.897  0.00  0.00    +0.000 C 
ATOM     33  C   UNL     1      -3.583  12.796  21.408  0.00  0.00    +0.000 C 
ENDBRANCH  23  24
ENDBRANCH  21  23
ENDBRANCH   2  21
TORSDOF 6
ENDMDL
MODEL 7
REMARK VINA RESULT:      -7.8      0.819      1.195
REMARK  Name = 
REMARK  8 active torsions:
REMARK  status: ('A' for Active; 'I' for Inactive)
REMARK    1  A    between atoms: C_1  and  C_2
REMARK    2  A    between atoms: C_5  and  N_6
REMARK    3  A    between atoms: C_7  and  C_9
REMARK    4  A    between atoms: C_9  and  C_10
REMARK    5  A    between atoms: C_9  and  S_11
REMARK    6  A    between atoms: S_11  and  C_12
REMARK    7  A    between atoms: C_23  and  S_24
REMARK    8  A    between atoms: S_24  and  N_27
REMARK                            x       y       z     vdW  Elec       q    Type
REMARK                         _______ _______ _______ _____ _____    ______ ____
ROOT
ATOM      1  N   UNL     1       2.228   5.956  20.404  0.00  0.00    +0.000 N 
ATOM      2  C   UNL     1       2.098   4.702  19.828  0.00  0.00    +0.000 C 
ATOM      3  O   UNL     1       1.504   4.487  18.770  0.00  0.00    +0.000 OA
ATOM      4  H   UNL     1       2.462   6.020  21.386  0.00  0.00    +0.000 HD
ENDROOT
BRANCH   1   9
ATOM      5  C   UNL     1       2.198  11.029  17.795  0.00  0.00    +0.000 C 
ATOM      6  C   UNL     1       1.993   9.698  18.458  0.00  0.00    +0.000 A 
ATOM      7  C   UNL     1       2.374   8.543  17.751  0.00  0.00    +0.000 A 
ATOM      8  C   UNL     1       2.370   7.292  18.356  0.00  0.00    +0.000 A 
ATOM      9  C   UNL     1       2.054   7.170  19.715  0.00  0.00    +0.000 A 
ATOM     10  C   UNL     1       1.635   8.300  20.429  0.00  0.00    +0.000 A 
ATOM     11  C   UNL     1       1.559   9.551  19.790  0.00  0.00    +0.000 A 
BRANCH  11  12
ATOM     12  S   UNL     1       0.770  10.900  20.671  0.00  0.00    +0.000 S 
ATOM     13  O   UNL     1       1.007  10.677  22.083  0.00  0.00    +0.000 OA
ATOM     14  O   UNL     1       1.171  12.141  20.042  0.00  0.00    +0.000 OA
BRANCH  12  15
ATOM     15  N   UNL     1      -0.867  10.663  20.336  0.00  0.00    +0.000 NA
ATOM     16  C   UNL     1      -1.217  10.234  18.957  0.00  0.00    +0.000 C 
ATOM     17  C   UNL     1      -1.489  11.456  18.074  0.00  0.00    +0.000 C 
ATOM     18  O   UNL     1      -2.578  12.220  18.611  0.00  0.00    +0.000 OA
ATOM     19  C   UNL     1      -2.249  12.728  19.911  0.00  0.00    +0.000 C 
ATOM     20  C   UNL     1      -1.862  11.620  20.898  0.00  0.00    +0.000 C 
ENDBRANCH  12  15
ENDBRANCH  11  12
ENDBRANCH   1   9
BRANCH   2  21
ATOM     21  C   UNL     1       2.711   3.574  20.663  0.00  0.00    +0.000 C 
ATOM     22  C   UNL     1       1.619   2.642  21.174  0.00  0.00    +0.000 C 
BRANCH  21  23
ATOM     23  S   UNL     1       3.876   2.604  19.643  0.00  0.00    +0.000 S 
BRANCH  23  24
ATOM     24  C   UNL     1       5.024   3.822  19.216  0.00  0.00    +0.000 A 
ATOM     25  N   UNL     1       5.770   4.511  20.046  0.00  0.00    +0.000 NA
ATOM     26  N   UNL     1       6.644   5.255  19.289  0.00  0.00    +0.000 NA
ATOM     27  C   UNL     1       6.415   4.997  18.015  0.00  0.00    +0.000 A 
ATOM     28  N   UNL     1       5.321   4.166  17.925  0.00  0.00    +0.000 N 
ATOM     29  C   UNL     1       4.624   3.732  16.732  0.00  0.00    +0.000 C 
ATOM     30  C   UNL     1       4.629   4.748  15.593  0.00  0.00    +0.000 C 
ATOM     31  C   UNL     1       5.937   4.781  14.804  0.00  0.00    +0.000 C 
ATOM     32  C   UNL     1       7.208   4.619  15.637  0.00  0.00    +0.000 C 
ATOM     33  C   UNL     1       7.233   5.510  16.876  0.00  0.00    +0.000 C 
ENDBRANCH  23  24
ENDBRANCH  21  23
ENDBRANCH   2  21
TORSDOF 6
ENDMDL
MODEL 8
REMARK VINA RESULT:      -7.8      2.368      8.838
REMARK  Name = 
REMARK  8 active torsions:
REMARK  status: ('A' for Active; 'I' for Inactive)
REMARK    1  A    between atoms: C_1  and  C_2
REMARK    2  A    between atoms: C_5  and  N_6
REMARK    3  A    between atoms: C_7  and  C_9
REMARK    4  A    between atoms: C_9  and  C_10
REMARK    5  A    between atoms: C_9  and  S_11
REMARK    6  A    between atoms: S_11  and  C_12
REMARK    7  A    between atoms: C_23  and  S_24
REMARK    8  A    between atoms: S_24  and  N_27
REMARK                            x       y       z     vdW  Elec       q    Type
REMARK                         _______ _______ _______ _____ _____    ______ ____
ROOT
ATOM      1  N   UNL     1       1.569   7.099  20.898  0.00  0.00    +0.000 N 
ATOM      2  C   UNL     1       1.379   8.270  20.181  0.00  0.00    +0.000 C 
ATOM      3  O   UNL     1       1.688   8.411  18.996  0.00  0.00    +0.000 OA
ATOM      4  H   UNL     1       1.567   7.140  21.909  0.00  0.00    +0.000 HD
ENDROOT
BRANCH   1   9
ATOM      5  C   UNL     1       2.655   1.770  19.174  0.00  0.00    +0.000 C 
ATOM      6  C   UNL     1       2.342   3.218  19.420  0.00  0.00    +0.000 A 
ATOM      7  C   UNL     1       1.095   3.536  19.988  0.00  0.00    +0.000 A 
ATOM      8  C   UNL     1       0.796   4.829  20.397  0.00  0.00    +0.000 A 
ATOM      9  C   UNL     1       1.770   5.834  20.317  0.00  0.00    +0.000 A 
ATOM     10  C   UNL     1       3.005   5.550  19.721  0.00  0.00    +0.000 A 
ATOM     11  C   UNL     1       3.272   4.259  19.231  0.00  0.00    +0.000 A 
BRANCH  11  12
ATOM     12  S   UNL     1       4.753   4.022  18.247  0.00  0.00    +0.000 S 
ATOM     13  O   UNL     1       5.776   3.515  19.138  0.00  0.00    +0.000 OA
ATOM     14  O   UNL     1       4.385   3.290  17.052  0.00  0.00    +0.000 OA
BRANCH  12  15
ATOM     15  N   UNL     1       5.150   5.594  17.779  0.00  0.00    +0.000 NA
ATOM     16  C   UNL     1       5.125   5.890  16.323  0.00  0.00    +0.000 C 
ATOM     17  C   UNL     1       6.507   5.646  15.708  0.00  0.00    +0.000 C 
ATOM     18  O   UNL     1       7.483   6.490  16.335  0.00  0.00    +0.000 OA
ATOM     19  C   UNL     1       7.603   6.178  17.730  0.00  0.00    +0.000 C 
ATOM     20  C   UNL     1       6.268   6.292  18.477  0.00  0.00    +0.000 C 
ENDBRANCH  12  15
ENDBRANCH  11  12
ENDBRANCH   1   9
BRANCH   2  21
ATOM     21  C   UNL     1       0.800   9.416  21.015  0.00  0.00    +0.000 C 
ATOM     22  C   UNL     1       1.611   9.601  22.293  0.00  0.00    +0.000 C 
BRANCH  21  23
ATOM     23  S   UNL     1       0.853  10.973  20.061  0.00  0.00    +0.000 S 
BRANCH  23  24
ATOM     24  C   UNL     1      -0.801  11.464  20.151  0.00  0.00    +0.000 A 
ATOM     25  N   UNL     1      -1.335  12.228  21.072  0.00  0.00    +0.000 NA
ATOM     26  N   UNL     1      -2.627  12.495  20.685  0.00  0.00    +0.000 NA
ATOM     27  C   UNL     1      -2.849  11.891  19.533  0.00  0.00    +0.000 A 
ATOM     28  N   UNL     1      -1.741  11.139  19.211  0.00  0.00    +0.000 N 
ATOM     29  C   UNL     1      -1.582  10.206  18.114  0.00  0.00    +0.000 C 
ATOM     30  C   UNL     1      -2.865   9.485  17.708  0.00  0.00    +0.000 C 
ATOM     31  C   UNL     1      -3.797  10.328  16.841  0.00  0.00    +0.000 C 
ATOM     32  C   UNL     1      -3.885  11.806  17.221  0.00  0.00    +0.000 C 
ATOM     33  C   UNL     1      -4.092  12.030  18.717  0.00  0.00    +0.000 C 
ENDBRANCH  23  24
ENDBRANCH  21  23
ENDBRANCH   2  21
TORSDOF 6
ENDMDL
MODEL 9
REMARK VINA RESULT:      -7.7      2.489      9.240
REMARK  Name = 
REMARK  8 active torsions:
REMARK  status: ('A' for Active; 'I' for Inactive)
REMARK    1  A    between atoms: C_1  and  C_2
REMARK    2  A    between atoms: C_5  and  N_6
REMARK    3  A    between atoms: C_7  and  C_9
REMARK    4  A    between atoms: C_9  and  C_10
REMARK    5  A    between atoms: C_9  and  S_11
REMARK    6  A    between atoms: S_11  and  C_12
REMARK    7  A    between atoms: C_23  and  S_24
REMARK    8  A    between atoms: S_24  and  N_27
REMARK                            x       y       z     vdW  Elec       q    Type
REMARK                         _______ _______ _______ _____ _____    ______ ____
ROOT
ATOM      1  N   UNL     1       0.139   9.638  19.981  0.00  0.00    +0.000 N 
ATOM      2  C   UNL     1       0.226  10.352  21.166  0.00  0.00    +0.000 C 
ATOM      3  O   UNL     1       1.163  10.256  21.961  0.00  0.00    +0.000 OA
ATOM      4  H   UNL     1      -0.764   9.544  19.533  0.00  0.00    +0.000 HD
ENDROOT
BRANCH   1   9
ATOM      5  C   UNL     1       4.080   6.861  16.932  0.00  0.00    +0.000 C 
ATOM      6  C   UNL     1       3.197   7.617  17.882  0.00  0.00    +0.000 A 
ATOM      7  C   UNL     1       2.850   8.939  17.550  0.00  0.00    +0.000 A 
ATOM      8  C   UNL     1       1.909   9.646  18.288  0.00  0.00    +0.000 A 
ATOM      9  C   UNL     1       1.229   9.021  19.341  0.00  0.00    +0.000 A 
ATOM     10  C   UNL     1       1.583   7.719  19.714  0.00  0.00    +0.000 A 
ATOM     11  C   UNL     1       2.598   7.036  19.017  0.00  0.00    +0.000 A 
BRANCH  11  12
ATOM     12  S   UNL     1       3.190   5.486  19.698  0.00  0.00    +0.000 S 
ATOM     13  O   UNL     1       4.631   5.593  19.799  0.00  0.00    +0.000 OA
ATOM     14  O   UNL     1       2.389   5.174  20.863  0.00  0.00    +0.000 OA
BRANCH  12  15
ATOM     15  N   UNL     1       2.797   4.370  18.495  0.00  0.00    +0.000 NA
ATOM     16  C   UNL     1       1.378   3.932  18.420  0.00  0.00    +0.000 C 
ATOM     17  C   UNL     1       1.165   2.679  19.276  0.00  0.00    +0.000 C 
ATOM     18  O   UNL     1       2.004   1.613  18.808  0.00  0.00    +0.000 OA
ATOM     19  C   UNL     1       3.389   1.961  18.943  0.00  0.00    +0.000 C 
ATOM     20  C   UNL     1       3.746   3.257  18.206  0.00  0.00    +0.000 C 
ENDBRANCH  12  15
ENDBRANCH  11  12
ENDBRANCH   1   9
BRANCH   2  21
ATOM     21  C   UNL     1      -0.991  11.240  21.441  0.00  0.00    +0.000 C 
ATOM     22  C   UNL     1      -1.011  11.670  22.903  0.00  0.00    +0.000 C 
BRANCH  21  23
ATOM     23  S   UNL     1      -0.921  12.737  20.395  0.00  0.00    +0.000 S 
BRANCH  23  24
ATOM     24  C   UNL     1      -1.929  12.256  19.076  0.00  0.00    +0.000 A 
ATOM     25  N   UNL     1      -1.524  11.839  17.902  0.00  0.00    +0.000 NA
ATOM     26  N   UNL     1      -2.637  11.416  17.212  0.00  0.00    +0.000 NA
ATOM     27  C   UNL     1      -3.693  11.581  17.985  0.00  0.00    +0.000 A 
ATOM     28  N   UNL     1      -3.295  12.210  19.144  0.00  0.00    +0.000 N 
ATOM     29  C   UNL     1      -4.127  12.714  20.218  0.00  0.00    +0.000 C 
ATOM     30  C   UNL     1      -5.499  13.213  19.772  0.00  0.00    +0.000 C 
ATOM     31  C   UNL     1      -6.511  12.095  19.529  0.00  0.00    +0.000 C 
ATOM     32  C   UNL     1      -5.948  10.835  18.870  0.00  0.00    +0.000 C 
ATOM     33  C   UNL     1      -5.078  11.132  17.652  0.00  0.00    +0.000 C 
ENDBRANCH  23  24
ENDBRANCH  21  23
ENDBRANCH   2  21
TORSDOF 6
ENDMDL
