MODEL 1
REMARK VINA RESULT:      -6.0      0.000      0.000
REMARK  Name = 
REMARK  10 active torsions:
REMARK  status: ('A' for Active; 'I' for Inactive)
REMARK    1  A    between atoms: C_1  and  N_2
REMARK    2  A    between atoms: N_2  and  C_3
REMARK    3  A    between atoms: N_2  and  C_4
REMARK    4  A    between atoms: C_4  and  C_5
REMARK    5  A    between atoms: C_5  and  C_6
REMARK    6  A    between atoms: N_7  and  O_8
REMARK    7  A    between atoms: O_8  and  C_9
REMARK    8  A    between atoms: C_9  and  C_10
REMARK    9  A    between atoms: C_18  and  C_19
REMARK   10  A    between atoms: C_18  and  C_21
REMARK                            x       y       z     vdW  Elec       q    Type
REMARK                         _______ _______ _______ _____ _____    ______ ____
ROOT
ATOM      1  C   UNL     1       6.634   5.340  18.170  0.00  0.00    +0.000 C 
ATOM      2  N   UNL     1       7.229   4.273  17.743  0.00  0.00    +0.000 NA
ENDROOT
BRANCH   1   3
ATOM      3  C   UNL     1       5.783   5.360  19.419  0.00  0.00    +0.000 C 
BRANCH   3   4
ATOM      4  C   UNL     1       4.291   5.156  19.120  0.00  0.00    +0.000 C 
ATOM      5  C   UNL     1       3.697   3.945  19.305  0.00  0.00    +0.000 C 
BRANCH   4   7
ATOM      6  C   UNL     1       3.747   6.943  17.416  0.00  0.00    +0.000 C 
ATOM      7  N   UNL     1       3.584   6.324  18.741  0.00  0.00    +0.000 N 
ATOM      8  C   UNL     1       2.551   6.920  19.591  0.00  0.00    +0.000 C 
ENDBRANCH   4   7
BRANCH   5   9
ATOM      9  C   UNL     1       2.310   3.745  19.033  0.00  0.00    +0.000 C 
ATOM     10  N   UNL     1       1.187   3.556  18.807  0.00  0.00    +0.000 NA
ENDBRANCH   5   9
BRANCH   5  11
ATOM     11  C   UNL     1       4.410   2.803  19.767  0.00  0.00    +0.000 C 
ATOM     12  N   UNL     1       5.022   1.891  20.147  0.00  0.00    +0.000 NA
ENDBRANCH   5  11
ENDBRANCH   3   4
ENDBRANCH   1   3
BRANCH   2  13
ATOM     13  O   UNL     1       7.952   4.622  16.583  0.00  0.00    +0.000 OA
BRANCH  13  14
ATOM     14  C   UNL     1       7.187   5.526  15.783  0.00  0.00    +0.000 C 
BRANCH  14  15
ATOM     15  C   UNL     1       6.788   4.811  14.512  0.00  0.00    +0.000 A 
ATOM     16  C   UNL     1       7.551   4.935  13.334  0.00  0.00    +0.000 A 
ATOM     17 CL   UNL     1       8.980   5.909  13.262  0.00  0.00    +0.000 Cl
ATOM     18  C   UNL     1       7.175   4.282  12.151  0.00  0.00    +0.000 A 
ATOM     19  C   UNL     1       6.024   3.501  12.113  0.00  0.00    +0.000 A 
ATOM     20  C   UNL     1       5.241   3.388  13.259  0.00  0.00    +0.000 A 
ATOM     21  C   UNL     1       5.613   4.039  14.441  0.00  0.00    +0.000 A 
ATOM     22 CL   UNL     1       4.549   3.857  15.793  0.00  0.00    +0.000 Cl
ENDBRANCH  14  15
ENDBRANCH  13  14
ENDBRANCH   2  13
TORSDOF 8
ENDMDL
MODEL 2
REMARK VINA RESULT:      -6.0      0.178      1.957
REMARK  Name = 
REMARK  10 active torsions:
REMARK  status: ('A' for Active; 'I' for Inactive)
REMARK    1  A    between atoms: C_1  and  N_2
REMARK    2  A    between atoms: N_2  and  C_3
REMARK    3  A    between atoms: N_2  and  C_4
REMARK    4  A    between atoms: C_4  and  C_5
REMARK    5  A    between atoms: C_5  and  C_6
REMARK    6  A    between atoms: N_7  and  O_8
REMARK    7  A    between atoms: O_8  and  C_9
REMARK    8  A    between atoms: C_9  and  C_10
REMARK    9  A    between atoms: C_18  and  C_19
REMARK   10  A    between atoms: C_18  and  C_21
REMARK                            x       y       z     vdW  Elec       q    Type
REMARK                         _______ _______ _______ _____ _____    ______ ____
ROOT
ATOM      1  C   UNL     1       6.469   5.186  18.025  0.00  0.00    +0.000 C 
ATOM      2  N   UNL     1       7.528   4.451  17.911  0.00  0.00    +0.000 NA
ENDROOT
BRANCH   1   3
ATOM      3  C   UNL     1       5.719   5.346  19.328  0.00  0.00    +0.000 C 
BRANCH   3   4
ATOM      4  C   UNL     1       4.207   5.133  19.168  0.00  0.00    +0.000 C 
ATOM      5  C   UNL     1       3.636   3.925  19.436  0.00  0.00    +0.000 C 
BRANCH   4   7
ATOM      6  C   UNL     1       3.542   6.902  17.490  0.00  0.00    +0.000 C 
ATOM      7  N   UNL     1       3.464   6.289  18.825  0.00  0.00    +0.000 N 
ATOM      8  C   UNL     1       2.476   6.878  19.730  0.00  0.00    +0.000 C 
ENDBRANCH   4   7
BRANCH   5   9
ATOM      9  C   UNL     1       2.231   3.716  19.295  0.00  0.00    +0.000 C 
ATOM     10  N   UNL     1       1.090   3.526  19.197  0.00  0.00    +0.000 NA
ENDBRANCH   5   9
BRANCH   5  11
ATOM     11  C   UNL     1       4.393   2.797  19.861  0.00  0.00    +0.000 C 
ATOM     12  N   UNL     1       4.980   1.859  20.218  0.00  0.00    +0.000 NA
ENDBRANCH   5  11
ENDBRANCH   3   4
ENDBRANCH   1   3
BRANCH   2  13
ATOM     13  O   UNL     1       7.979   4.556  16.578  0.00  0.00    +0.000 OA
BRANCH  13  14
ATOM     14  C   UNL     1       7.159   5.478  15.856  0.00  0.00    +0.000 C 
BRANCH  14  15
ATOM     15  C   UNL     1       6.740   4.822  14.560  0.00  0.00    +0.000 A 
ATOM     16  C   UNL     1       5.587   4.015  14.488  0.00  0.00    +0.000 A 
ATOM     17 CL   UNL     1       4.586   3.718  15.868  0.00  0.00    +0.000 Cl
ATOM     18  C   UNL     1       5.205   3.398  13.289  0.00  0.00    +0.000 A 
ATOM     19  C   UNL     1       5.969   3.560  12.138  0.00  0.00    +0.000 A 
ATOM     20  C   UNL     1       7.127   4.331  12.194  0.00  0.00    +0.000 A 
ATOM     21  C   UNL     1       7.513   4.949  13.390  0.00  0.00    +0.000 A 
ATOM     22 CL   UNL     1       8.986   5.855  13.354  0.00  0.00    +0.000 Cl
ENDBRANCH  14  15
ENDBRANCH  13  14
ENDBRANCH   2  13
TORSDOF 8
ENDMDL
MODEL 3
REMARK VINA RESULT:      -5.8      4.253      7.853
REMARK  Name = 
REMARK  10 active torsions:
REMARK  status: ('A' for Active; 'I' for Inactive)
REMARK    1  A    between atoms: C_1  and  N_2
REMARK    2  A    between atoms: N_2  and  C_3
REMARK    3  A    between atoms: N_2  and  C_4
REMARK    4  A    between atoms: C_4  and  C_5
REMARK    5  A    between atoms: C_5  and  C_6
REMARK    6  A    between atoms: N_7  and  O_8
REMARK    7  A    between atoms: O_8  and  C_9
REMARK    8  A    between atoms: C_9  and  C_10
REMARK    9  A    between atoms: C_18  and  C_19
REMARK   10  A    between atoms: C_18  and  C_21
REMARK                            x       y       z     vdW  Elec       q    Type
REMARK                         _______ _______ _______ _____ _____    ______ ____
ROOT
ATOM      1  C   UNL     1       2.549   6.509  18.664  0.00  0.00    +0.000 C 
ATOM      2  N   UNL     1       2.243   6.524  19.922  0.00  0.00    +0.000 NA
ENDROOT
BRANCH   1   3
ATOM      3  C   UNL     1       2.809   5.231  17.899  0.00  0.00    +0.000 C 
BRANCH   3   4
ATOM      4  C   UNL     1       3.823   4.319  18.602  0.00  0.00    +0.000 C 
ATOM      5  C   UNL     1       3.413   3.261  19.356  0.00  0.00    +0.000 C 
BRANCH   4   7
ATOM      6  C   UNL     1       5.801   4.294  17.027  0.00  0.00    +0.000 C 
ATOM      7  N   UNL     1       5.184   4.601  18.327  0.00  0.00    +0.000 N 
ATOM      8  C   UNL     1       6.035   5.330  19.269  0.00  0.00    +0.000 C 
ENDBRANCH   4   7
BRANCH   5   9
ATOM      9  C   UNL     1       4.348   2.404  20.011  0.00  0.00    +0.000 C 
ATOM     10  N   UNL     1       5.121   1.703  20.520  0.00  0.00    +0.000 NA
ENDBRANCH   5   9
BRANCH   5  11
ATOM     11  C   UNL     1       2.038   2.946  19.550  0.00  0.00    +0.000 C 
ATOM     12  N   UNL     1       0.914   2.715  19.732  0.00  0.00    +0.000 NA
ENDBRANCH   5  11
ENDBRANCH   3   4
ENDBRANCH   1   3
BRANCH   2  13
ATOM     13  O   UNL     1       2.042   7.870  20.296  0.00  0.00    +0.000 OA
BRANCH  13  14
ATOM     14  C   UNL     1       0.714   8.046  20.792  0.00  0.00    +0.000 C 
BRANCH  14  15
ATOM     15  C   UNL     1       0.383   9.520  20.741  0.00  0.00    +0.000 A 
ATOM     16  C   UNL     1       0.422  10.237  19.529  0.00  0.00    +0.000 A 
ATOM     17 CL   UNL     1       0.852   9.486  18.030  0.00  0.00    +0.000 Cl
ATOM     18  C   UNL     1       0.126  11.607  19.483  0.00  0.00    +0.000 A 
ATOM     19  C   UNL     1      -0.202  12.296  20.646  0.00  0.00    +0.000 A 
ATOM     20  C   UNL     1      -0.219  11.613  21.859  0.00  0.00    +0.000 A 
ATOM     21  C   UNL     1       0.076  10.245  21.909  0.00  0.00    +0.000 A 
ATOM     22 CL   UNL     1       0.059   9.505  23.472  0.00  0.00    +0.000 Cl
ENDBRANCH  14  15
ENDBRANCH  13  14
ENDBRANCH   2  13
TORSDOF 8
ENDMDL
MODEL 4
REMARK VINA RESULT:      -5.7      5.038      8.817
REMARK  Name = 
REMARK  10 active torsions:
REMARK  status: ('A' for Active; 'I' for Inactive)
REMARK    1  A    between atoms: C_1  and  N_2
REMARK    2  A    between atoms: N_2  and  C_3
REMARK    3  A    between atoms: N_2  and  C_4
REMARK    4  A    between atoms: C_4  and  C_5
REMARK    5  A    between atoms: C_5  and  C_6
REMARK    6  A    between atoms: N_7  and  O_8
REMARK    7  A    between atoms: O_8  and  C_9
REMARK    8  A    between atoms: C_9  and  C_10
REMARK    9  A    between atoms: C_18  and  C_19
REMARK   10  A    between atoms: C_18  and  C_21
REMARK                            x       y       z     vdW  Elec       q    Type
REMARK                         _______ _______ _______ _____ _____    ______ ____
ROOT
ATOM      1  C   UNL     1       2.063   8.437  18.262  0.00  0.00    +0.000 C 
ATOM      2  N   UNL     1       1.188   9.196  17.684  0.00  0.00    +0.000 NA
ENDROOT
BRANCH   1   3
ATOM      3  C   UNL     1       3.203   7.784  17.513  0.00  0.00    +0.000 C 
BRANCH   3   4
ATOM      4  C   UNL     1       3.579   6.413  18.092  0.00  0.00    +0.000 C 
ATOM      5  C   UNL     1       4.871   5.980  18.090  0.00  0.00    +0.000 C 
BRANCH   4   7
ATOM      6  C   UNL     1       1.677   4.754  17.947  0.00  0.00    +0.000 C 
ATOM      7  N   UNL     1       2.518   5.699  18.700  0.00  0.00    +0.000 N 
ATOM      8  C   UNL     1       2.264   5.755  20.140  0.00  0.00    +0.000 C 
ENDBRANCH   4   7
BRANCH   5   9
ATOM      9  C   UNL     1       5.233   4.709  18.629  0.00  0.00    +0.000 C 
ATOM     10  N   UNL     1       5.551   3.685  19.076  0.00  0.00    +0.000 NA
ENDBRANCH   5   9
BRANCH   5  11
ATOM     11  C   UNL     1       5.938   6.752  17.548  0.00  0.00    +0.000 C 
ATOM     12  N   UNL     1       6.824   7.352  17.095  0.00  0.00    +0.000 NA
ENDBRANCH   5  11
ENDBRANCH   3   4
ENDBRANCH   1   3
BRANCH   2  13
ATOM     13  O   UNL     1       0.297   9.653  18.678  0.00  0.00    +0.000 OA
BRANCH  13  14
ATOM     14  C   UNL     1       0.962  10.575  19.544  0.00  0.00    +0.000 C 
BRANCH  14  15
ATOM     15  C   UNL     1       0.104  10.772  20.773  0.00  0.00    +0.000 A 
ATOM     16  C   UNL     1      -0.845  11.811  20.844  0.00  0.00    +0.000 A 
ATOM     17 CL   UNL     1      -1.088  12.924  19.542  0.00  0.00    +0.000 Cl
ATOM     18  C   UNL     1      -1.632  12.001  21.988  0.00  0.00    +0.000 A 
ATOM     19  C   UNL     1      -1.482  11.168  23.093  0.00  0.00    +0.000 A 
ATOM     20  C   UNL     1      -0.530  10.153  23.055  0.00  0.00    +0.000 A 
ATOM     21  C   UNL     1       0.259   9.960  21.913  0.00  0.00    +0.000 A 
ATOM     22 CL   UNL     1       1.432   8.692  21.988  0.00  0.00    +0.000 Cl
ENDBRANCH  14  15
ENDBRANCH  13  14
ENDBRANCH   2  13
TORSDOF 8
ENDMDL
MODEL 5
REMARK VINA RESULT:      -5.7      4.554      8.329
REMARK  Name = 
REMARK  10 active torsions:
REMARK  status: ('A' for Active; 'I' for Inactive)
REMARK    1  A    between atoms: C_1  and  N_2
REMARK    2  A    between atoms: N_2  and  C_3
REMARK    3  A    between atoms: N_2  and  C_4
REMARK    4  A    between atoms: C_4  and  C_5
REMARK    5  A    between atoms: C_5  and  C_6
REMARK    6  A    between atoms: N_7  and  O_8
REMARK    7  A    between atoms: O_8  and  C_9
REMARK    8  A    between atoms: C_9  and  C_10
REMARK    9  A    between atoms: C_18  and  C_19
REMARK   10  A    between atoms: C_18  and  C_21
REMARK                            x       y       z     vdW  Elec       q    Type
REMARK                         _______ _______ _______ _____ _____    ______ ____
ROOT
ATOM      1  C   UNL     1       2.313   6.467  19.520  0.00  0.00    +0.000 C 
ATOM      2  N   UNL     1       2.231   7.736  19.276  0.00  0.00    +0.000 NA
ENDROOT
BRANCH   1   3
ATOM      3  C   UNL     1       2.656   5.449  18.456  0.00  0.00    +0.000 C 
BRANCH   3   4
ATOM      4  C   UNL     1       3.710   4.437  18.927  0.00  0.00    +0.000 C 
ATOM      5  C   UNL     1       3.364   3.369  19.698  0.00  0.00    +0.000 C 
BRANCH   4   7
ATOM      6  C   UNL     1       5.401   4.268  17.056  0.00  0.00    +0.000 C 
ATOM      7  N   UNL     1       5.018   4.646  18.425  0.00  0.00    +0.000 N 
ATOM      8  C   UNL     1       6.040   5.365  19.187  0.00  0.00    +0.000 C 
ENDBRANCH   4   7
BRANCH   5   9
ATOM      9  C   UNL     1       4.335   2.420  20.139  0.00  0.00    +0.000 C 
ATOM     10  N   UNL     1       5.128   1.662  20.519  0.00  0.00    +0.000 NA
ENDBRANCH   5   9
BRANCH   5  11
ATOM     11  C   UNL     1       2.026   3.131  20.123  0.00  0.00    +0.000 C 
ATOM     12  N   UNL     1       0.942   2.950  20.501  0.00  0.00    +0.000 NA
ENDBRANCH   5  11
ENDBRANCH   3   4
ENDBRANCH   1   3
BRANCH   2  13
ATOM     13  O   UNL     1       1.926   8.385  20.491  0.00  0.00    +0.000 OA
BRANCH  13  14
ATOM     14  C   UNL     1       0.521   8.318  20.741  0.00  0.00    +0.000 C 
BRANCH  14  15
ATOM     15  C   UNL     1      -0.001   9.729  20.888  0.00  0.00    +0.000 A 
ATOM     16  C   UNL     1      -0.215  10.302  22.158  0.00  0.00    +0.000 A 
ATOM     17 CL   UNL     1       0.099   9.434  23.622  0.00  0.00    +0.000 Cl
ATOM     18  C   UNL     1      -0.710  11.606  22.295  0.00  0.00    +0.000 A 
ATOM     19  C   UNL     1      -1.016  12.364  21.169  0.00  0.00    +0.000 A 
ATOM     20  C   UNL     1      -0.840  11.808  19.905  0.00  0.00    +0.000 A 
ATOM     21  C   UNL     1      -0.345  10.505  19.765  0.00  0.00    +0.000 A 
ATOM     22 CL   UNL     1      -0.197   9.903  18.150  0.00  0.00    +0.000 Cl
ENDBRANCH  14  15
ENDBRANCH  13  14
ENDBRANCH   2  13
TORSDOF 8
ENDMDL
MODEL 6
REMARK VINA RESULT:      -5.6      3.947      7.777
REMARK  Name = 
REMARK  10 active torsions:
REMARK  status: ('A' for Active; 'I' for Inactive)
REMARK    1  A    between atoms: C_1  and  N_2
REMARK    2  A    between atoms: N_2  and  C_3
REMARK    3  A    between atoms: N_2  and  C_4
REMARK    4  A    between atoms: C_4  and  C_5
REMARK    5  A    between atoms: C_5  and  C_6
REMARK    6  A    between atoms: N_7  and  O_8
REMARK    7  A    between atoms: O_8  and  C_9
REMARK    8  A    between atoms: C_9  and  C_10
REMARK    9  A    between atoms: C_18  and  C_19
REMARK   10  A    between atoms: C_18  and  C_21
REMARK                            x       y       z     vdW  Elec       q    Type
REMARK                         _______ _______ _______ _____ _____    ______ ____
ROOT
ATOM      1  C   UNL     1       3.612   7.427  17.797  0.00  0.00    +0.000 C 
ATOM      2  N   UNL     1       2.786   8.277  17.277  0.00  0.00    +0.000 NA
ENDROOT
BRANCH   1   3
ATOM      3  C   UNL     1       4.257   6.318  16.998  0.00  0.00    +0.000 C 
BRANCH   3   4
ATOM      4  C   UNL     1       4.751   5.164  17.882  0.00  0.00    +0.000 C 
ATOM      5  C   UNL     1       3.898   4.191  18.308  0.00  0.00    +0.000 C 
BRANCH   4   7
ATOM      6  C   UNL     1       6.722   5.602  19.402  0.00  0.00    +0.000 C 
ATOM      7  N   UNL     1       6.146   5.143  18.129  0.00  0.00    +0.000 N 
ATOM      8  C   UNL     1       7.095   4.546  17.188  0.00  0.00    +0.000 C 
ENDBRANCH   4   7
BRANCH   5   9
ATOM      9  C   UNL     1       4.346   3.111  19.128  0.00  0.00    +0.000 C 
ATOM     10  N   UNL     1       4.721   2.222  19.773  0.00  0.00    +0.000 NA
ENDBRANCH   5   9
BRANCH   5  11
ATOM     11  C   UNL     1       2.513   4.186  17.978  0.00  0.00    +0.000 C 
ATOM     12  N   UNL     1       1.384   4.148  17.705  0.00  0.00    +0.000 NA
ENDBRANCH   5  11
ENDBRANCH   3   4
ENDBRANCH   1   3
BRANCH   2  13
ATOM     13  O   UNL     1       2.407   9.180  18.293  0.00  0.00    +0.000 OA
BRANCH  13  14
ATOM     14  C   UNL     1       0.982   9.244  18.384  0.00  0.00    +0.000 C 
BRANCH  14  15
ATOM     15  C   UNL     1       0.617   9.650  19.794  0.00  0.00    +0.000 A 
ATOM     16  C   UNL     1       0.861   8.796  20.888  0.00  0.00    +0.000 A 
ATOM     17 CL   UNL     1       1.584   7.235  20.692  0.00  0.00    +0.000 Cl
ATOM     18  C   UNL     1       0.511   9.167  22.193  0.00  0.00    +0.000 A 
ATOM     19  C   UNL     1      -0.100  10.393  22.437  0.00  0.00    +0.000 A 
ATOM     20  C   UNL     1      -0.376  11.240  21.367  0.00  0.00    +0.000 A 
ATOM     21  C   UNL     1      -0.028  10.872  20.061  0.00  0.00    +0.000 A 
ATOM     22 CL   UNL     1      -0.447  11.986  18.806  0.00  0.00    +0.000 Cl
ENDBRANCH  14  15
ENDBRANCH  13  14
ENDBRANCH   2  13
TORSDOF 8
ENDMDL
MODEL 7
REMARK VINA RESULT:      -5.6      4.354      8.125
REMARK  Name = 
REMARK  10 active torsions:
REMARK  status: ('A' for Active; 'I' for Inactive)
REMARK    1  A    between atoms: C_1  and  N_2
REMARK    2  A    between atoms: N_2  and  C_3
REMARK    3  A    between atoms: N_2  and  C_4
REMARK    4  A    between atoms: C_4  and  C_5
REMARK    5  A    between atoms: C_5  and  C_6
REMARK    6  A    between atoms: N_7  and  O_8
REMARK    7  A    between atoms: O_8  and  C_9
REMARK    8  A    between atoms: C_9  and  C_10
REMARK    9  A    between atoms: C_18  and  C_19
REMARK   10  A    between atoms: C_18  and  C_21
REMARK                            x       y       z     vdW  Elec       q    Type
REMARK                         _______ _______ _______ _____ _____    ______ ____
ROOT
ATOM      1  C   UNL     1       2.628   6.720  18.668  0.00  0.00    +0.000 C 
ATOM      2  N   UNL     1       2.077   6.865  19.831  0.00  0.00    +0.000 NA
ENDROOT
BRANCH   1   3
ATOM      3  C   UNL     1       2.711   5.386  17.961  0.00  0.00    +0.000 C 
BRANCH   3   4
ATOM      4  C   UNL     1       3.724   4.435  18.614  0.00  0.00    +0.000 C 
ATOM      5  C   UNL     1       3.313   3.409  19.411  0.00  0.00    +0.000 C 
BRANCH   4   7
ATOM      6  C   UNL     1       5.587   4.318  16.910  0.00  0.00    +0.000 C 
ATOM      7  N   UNL     1       5.077   4.647  18.250  0.00  0.00    +0.000 N 
ATOM      8  C   UNL     1       6.027   5.323  19.135  0.00  0.00    +0.000 C 
ENDBRANCH   4   7
BRANCH   5   9
ATOM      9  C   UNL     1       4.246   2.517  20.020  0.00  0.00    +0.000 C 
ATOM     10  N   UNL     1       5.023   1.798  20.497  0.00  0.00    +0.000 NA
ENDBRANCH   5   9
BRANCH   5  11
ATOM     11  C   UNL     1       1.941   3.163  19.697  0.00  0.00    +0.000 C 
ATOM     12  N   UNL     1       0.826   2.928  19.926  0.00  0.00    +0.000 NA
ENDBRANCH   5  11
ENDBRANCH   3   4
ENDBRANCH   1   3
BRANCH   2  13
ATOM     13  O   UNL     1       2.149   8.233  20.169  0.00  0.00    +0.000 OA
BRANCH  13  14
ATOM     14  C   UNL     1       1.194   8.976  19.409  0.00  0.00    +0.000 C 
BRANCH  14  15
ATOM     15  C   UNL     1       0.710  10.130  20.256  0.00  0.00    +0.000 A 
ATOM     16  C   UNL     1      -0.111   9.918  21.381  0.00  0.00    +0.000 A 
ATOM     17 CL   UNL     1      -0.620   8.336  21.862  0.00  0.00    +0.000 Cl
ATOM     18  C   UNL     1      -0.569  10.990  22.160  0.00  0.00    +0.000 A 
ATOM     19  C   UNL     1      -0.231  12.298  21.828  0.00  0.00    +0.000 A 
ATOM     20  C   UNL     1       0.556  12.532  20.703  0.00  0.00    +0.000 A 
ATOM     21  C   UNL     1       1.016  11.464  19.923  0.00  0.00    +0.000 A 
ATOM     22 CL   UNL     1       1.958  11.871  18.530  0.00  0.00    +0.000 Cl
ENDBRANCH  14  15
ENDBRANCH  13  14
ENDBRANCH   2  13
TORSDOF 8
ENDMDL
MODEL 8
REMARK VINA RESULT:      -5.6      4.379      7.822
REMARK  Name = 
REMARK  10 active torsions:
REMARK  status: ('A' for Active; 'I' for Inactive)
REMARK    1  A    between atoms: C_1  and  N_2
REMARK    2  A    between atoms: N_2  and  C_3
REMARK    3  A    between atoms: N_2  and  C_4
REMARK    4  A    between atoms: C_4  and  C_5
REMARK    5  A    between atoms: C_5  and  C_6
REMARK    6  A    between atoms: N_7  and  O_8
REMARK    7  A    between atoms: O_8  and  C_9
REMARK    8  A    between atoms: C_9  and  C_10
REMARK    9  A    between atoms: C_18  and  C_19
REMARK   10  A    between atoms: C_18  and  C_21
REMARK                            x       y       z     vdW  Elec       q    Type
REMARK                         _______ _______ _______ _____ _____    ______ ____
ROOT
ATOM      1  C   UNL     1       2.129   5.331  20.666  0.00  0.00    +0.000 C 
ATOM      2  N   UNL     1       2.230   6.546  20.230  0.00  0.00    +0.000 NA
ENDROOT
BRANCH   1   3
ATOM      3  C   UNL     1       3.157   4.264  20.365  0.00  0.00    +0.000 C 
BRANCH   3   4
ATOM      4  C   UNL     1       3.428   4.114  18.861  0.00  0.00    +0.000 C 
ATOM      5  C   UNL     1       4.636   4.451  18.328  0.00  0.00    +0.000 C 
BRANCH   4   7
ATOM      6  C   UNL     1       1.335   4.320  17.458  0.00  0.00    +0.000 C 
ATOM      7  N   UNL     1       2.382   3.520  18.113  0.00  0.00    +0.000 N 
ATOM      8  C   UNL     1       2.342   2.084  17.834  0.00  0.00    +0.000 C 
ENDBRANCH   4   7
BRANCH   5   9
ATOM      9  C   UNL     1       4.900   4.312  16.932  0.00  0.00    +0.000 C 
ATOM     10  N   UNL     1       5.092   4.211  15.791  0.00  0.00    +0.000 NA
ENDBRANCH   5   9
BRANCH   5  11
ATOM     11  C   UNL     1       5.704   4.969  19.114  0.00  0.00    +0.000 C 
ATOM     12  N   UNL     1       6.562   5.376  19.784  0.00  0.00    +0.000 NA
ENDBRANCH   5  11
ENDBRANCH   3   4
ENDBRANCH   1   3
BRANCH   2  13
ATOM     13  O   UNL     1       1.123   7.270  20.722  0.00  0.00    +0.000 OA
BRANCH  13  14
ATOM     14  C   UNL     1       1.553   8.533  21.234  0.00  0.00    +0.000 C 
BRANCH  14  15
ATOM     15  C   UNL     1       0.616   9.598  20.712  0.00  0.00    +0.000 A 
ATOM     16  C   UNL     1       0.651  10.006  19.364  0.00  0.00    +0.000 A 
ATOM     17 CL   UNL     1       1.762   9.324  18.226  0.00  0.00    +0.000 Cl
ATOM     18  C   UNL     1      -0.210  11.002  18.882  0.00  0.00    +0.000 A 
ATOM     19  C   UNL     1      -1.116  11.623  19.736  0.00  0.00    +0.000 A 
ATOM     20  C   UNL     1      -1.147  11.256  21.079  0.00  0.00    +0.000 A 
ATOM     21  C   UNL     1      -0.289  10.261  21.563  0.00  0.00    +0.000 A 
ATOM     22 CL   UNL     1      -0.390   9.907  23.254  0.00  0.00    +0.000 Cl
ENDBRANCH  14  15
ENDBRANCH  13  14
ENDBRANCH   2  13
TORSDOF 8
ENDMDL
MODEL 9
REMARK VINA RESULT:      -5.6      5.109      8.960
REMARK  Name = 
REMARK  10 active torsions:
REMARK  status: ('A' for Active; 'I' for Inactive)
REMARK    1  A    between atoms: C_1  and  N_2
REMARK    2  A    between atoms: N_2  and  C_3
REMARK    3  A    between atoms: N_2  and  C_4
REMARK    4  A    between atoms: C_4  and  C_5
REMARK    5  A    between atoms: C_5  and  C_6
REMARK    6  A    between atoms: N_7  and  O_8
REMARK    7  A    between atoms: O_8  and  C_9
REMARK    8  A    between atoms: C_9  and  C_10
REMARK    9  A    between atoms: C_18  and  C_19
REMARK   10  A    between atoms: C_18  and  C_21
REMARK                            x       y       z     vdW  Elec       q    Type
REMARK                         _______ _______ _______ _____ _____    ______ ____
ROOT
ATOM      1  C   UNL     1       2.482   8.493  18.193  0.00  0.00    +0.000 C 
ATOM      2  N   UNL     1       1.507   9.264  17.831  0.00  0.00    +0.000 NA
ENDROOT
BRANCH   1   3
ATOM      3  C   UNL     1       3.133   7.499  17.258  0.00  0.00    +0.000 C 
BRANCH   3   4
ATOM      4  C   UNL     1       3.584   6.221  17.977  0.00  0.00    +0.000 C 
ATOM      5  C   UNL     1       4.903   5.889  18.061  0.00  0.00    +0.000 C 
BRANCH   4   7
ATOM      6  C   UNL     1       2.211   5.686  20.031  0.00  0.00    +0.000 C 
ATOM      7  N   UNL     1       2.552   5.487  18.614  0.00  0.00    +0.000 N 
ATOM      8  C   UNL     1       1.675   4.576  17.878  0.00  0.00    +0.000 C 
ENDBRANCH   4   7
BRANCH   5   9
ATOM      9  C   UNL     1       5.334   4.705  18.731  0.00  0.00    +0.000 C 
ATOM     10  N   UNL     1       5.666   3.728  19.263  0.00  0.00    +0.000 NA
ENDBRANCH   5   9
BRANCH   5  11
ATOM     11  C   UNL     1       5.932   6.687  17.485  0.00  0.00    +0.000 C 
ATOM     12  N   UNL     1       6.780   7.311  16.993  0.00  0.00    +0.000 NA
ENDBRANCH   5  11
ENDBRANCH   3   4
ENDBRANCH   1   3
BRANCH   2  13
ATOM     13  O   UNL     1       1.171  10.075  18.936  0.00  0.00    +0.000 OA
BRANCH  13  14
ATOM     14  C   UNL     1      -0.249  10.180  19.052  0.00  0.00    +0.000 C 
BRANCH  14  15
ATOM     15  C   UNL     1      -0.572  10.743  20.417  0.00  0.00    +0.000 A 
ATOM     16  C   UNL     1      -0.447   9.957  21.580  0.00  0.00    +0.000 A 
ATOM     17 CL   UNL     1       0.074   8.307  21.524  0.00  0.00    +0.000 Cl
ATOM     18  C   UNL     1      -0.758  10.475  22.845  0.00  0.00    +0.000 A 
ATOM     19  C   UNL     1      -1.211  11.783  22.979  0.00  0.00    +0.000 A 
ATOM     20  C   UNL     1      -1.369  12.568  21.840  0.00  0.00    +0.000 A 
ATOM     21  C   UNL     1      -1.060  12.054  20.574  0.00  0.00    +0.000 A 
ATOM     22 CL   UNL     1      -1.324  13.105  19.225  0.00  0.00    +0.000 Cl
ENDBRANCH  14  15
ENDBRANCH  13  14
ENDBRANCH   2  13
TORSDOF 8
ENDMDL
