MODEL 1
REMARK VINA RESULT:      -6.9      0.000      0.000
REMARK  Name = 
REMARK  6 active torsions:
REMARK  status: ('A' for Active; 'I' for Inactive)
REMARK    1  A    between atoms: C_1  and  C_2
REMARK    2  A    between atoms: C_2  and  N_3
REMARK    3  A    between atoms: C_6  and  N_7
REMARK    4  A    between atoms: C_8  and  C_10
REMARK    5  A    between atoms: C_10  and  N_11
REMARK    6  A    between atoms: N_18  and  C_19
REMARK                            x       y       z     vdW  Elec       q    Type
REMARK                         _______ _______ _______ _____ _____    ______ ____
ROOT
ATOM      1  N   UNL     1       5.357   4.781  18.655  0.00  0.00    +0.000 N 
ATOM      2  C   UNL     1       4.207   4.030  18.509  0.00  0.00    +0.000 C 
ATOM      3  O   UNL     1       4.048   3.195  17.627  0.00  0.00    +0.000 OA
ATOM      4  H   UNL     1       5.293   5.595  19.254  0.00  0.00    +0.000 HD
ENDROOT
BRANCH   1   8
ATOM      5  N   UNL     1       7.683   7.348  17.346  0.00  0.00    +0.000 NA
ATOM      6  C   UNL     1       7.860   6.601  18.598  0.00  0.00    +0.000 C 
ATOM      7  C   UNL     1       7.779   5.096  18.361  0.00  0.00    +0.000 C 
ATOM      8  C   UNL     1       6.462   4.693  17.703  0.00  0.00    +0.000 C 
ATOM      9  C   UNL     1       6.218   5.540  16.452  0.00  0.00    +0.000 C 
ATOM     10  C   UNL     1       6.380   7.039  16.727  0.00  0.00    +0.000 C 
BRANCH   5  12
ATOM     11  C   UNL     1       8.791   9.169  18.661  0.00  0.00    +0.000 C 
ATOM     12  C   UNL     1       7.815   8.802  17.547  0.00  0.00    +0.000 C 
ENDBRANCH   5  12
ENDBRANCH   1   8
BRANCH   2  13
ATOM     13  C   UNL     1       3.124   4.324  19.556  0.00  0.00    +0.000 C 
BRANCH  13  14
ATOM     14  N   UNL     1       2.867   5.774  19.686  0.00  0.00    +0.000 NA
ATOM     15  C   UNL     1       1.702   5.996  20.593  0.00  0.00    +0.000 C 
ATOM     16  C   UNL     1       1.485   7.499  20.935  0.00  0.00    +0.000 C 
ATOM     17  C   UNL     1       1.598   8.282  19.684  0.00  0.00    +0.000 A 
ATOM     18  C   UNL     1       2.117   7.786  18.509  0.00  0.00    +0.000 A 
ATOM     19  N   UNL     1       2.104   8.747  17.533  0.00  0.00    +0.000 NA
ATOM     20  C   UNL     1       1.611   9.819  18.119  0.00  0.00    +0.000 A 
ATOM     21  N   UNL     1       1.298   9.585  19.431  0.00  0.00    +0.000 N 
ATOM     22  C   UNL     1       0.778  10.552  20.363  0.00  0.00    +0.000 C 
ATOM     23  C   UNL     1       2.597   6.379  18.338  0.00  0.00    +0.000 C 
ENDBRANCH  13  14
ENDBRANCH   2  13
TORSDOF 4
ENDMDL
MODEL 2
REMARK VINA RESULT:      -6.4      1.345      2.389
REMARK  Name = 
REMARK  6 active torsions:
REMARK  status: ('A' for Active; 'I' for Inactive)
REMARK    1  A    between atoms: C_1  and  C_2
REMARK    2  A    between atoms: C_2  and  N_3
REMARK    3  A    between atoms: C_6  and  N_7
REMARK    4  A    between atoms: C_8  and  C_10
REMARK    5  A    between atoms: C_10  and  N_11
REMARK    6  A    between atoms: N_18  and  C_19
REMARK                            x       y       z     vdW  Elec       q    Type
REMARK                         _______ _______ _______ _____ _____    ______ ____
ROOT
ATOM      1  N   UNL     1       5.570   5.772  18.682  0.00  0.00    +0.000 N 
ATOM      2  C   UNL     1       4.925   4.690  19.248  0.00  0.00    +0.000 C 
ATOM      3  O   UNL     1       5.502   3.685  19.643  0.00  0.00    +0.000 OA
ATOM      4  H   UNL     1       4.990   6.432  18.179  0.00  0.00    +0.000 HD
ENDROOT
BRANCH   1   8
ATOM      5  N   UNL     1       7.526   5.400  15.560  0.00  0.00    +0.000 NA
ATOM      6  C   UNL     1       6.971   6.661  16.069  0.00  0.00    +0.000 C 
ATOM      7  C   UNL     1       7.405   6.915  17.509  0.00  0.00    +0.000 C 
ATOM      8  C   UNL     1       7.010   5.768  18.435  0.00  0.00    +0.000 C 
ATOM      9  C   UNL     1       7.495   4.436  17.858  0.00  0.00    +0.000 C 
ATOM     10  C   UNL     1       7.093   4.260  16.390  0.00  0.00    +0.000 C 
BRANCH   5  12
ATOM     11  C   UNL     1       6.210   3.988  13.962  0.00  0.00    +0.000 C 
ATOM     12  C   UNL     1       7.162   5.166  14.151  0.00  0.00    +0.000 C 
ENDBRANCH   5  12
ENDBRANCH   1   8
BRANCH   2  13
ATOM     13  C   UNL     1       3.401   4.845  19.347  0.00  0.00    +0.000 C 
BRANCH  13  14
ATOM     14  N   UNL     1       3.006   6.254  19.563  0.00  0.00    +0.000 NA
ATOM     15  C   UNL     1       1.837   6.309  20.489  0.00  0.00    +0.000 C 
ATOM     16  C   UNL     1       1.479   7.762  20.919  0.00  0.00    +0.000 C 
ATOM     17  C   UNL     1       1.500   8.622  19.715  0.00  0.00    +0.000 A 
ATOM     18  C   UNL     1       2.050   8.247  18.510  0.00  0.00    +0.000 A 
ATOM     19  N   UNL     1       1.932   9.256  17.591  0.00  0.00    +0.000 NA
ATOM     20  C   UNL     1       1.345  10.240  18.242  0.00  0.00    +0.000 A 
ATOM     21  N   UNL     1       1.072   9.902  19.541  0.00  0.00    +0.000 N 
ATOM     22  C   UNL     1       0.473  10.759  20.530  0.00  0.00    +0.000 C 
ATOM     23  C   UNL     1       2.662   6.905  18.254  0.00  0.00    +0.000 C 
ENDBRANCH  13  14
ENDBRANCH   2  13
TORSDOF 4
ENDMDL
MODEL 3
REMARK VINA RESULT:      -6.4      0.703      1.587
REMARK  Name = 
REMARK  6 active torsions:
REMARK  status: ('A' for Active; 'I' for Inactive)
REMARK    1  A    between atoms: C_1  and  C_2
REMARK    2  A    between atoms: C_2  and  N_3
REMARK    3  A    between atoms: C_6  and  N_7
REMARK    4  A    between atoms: C_8  and  C_10
REMARK    5  A    between atoms: C_10  and  N_11
REMARK    6  A    between atoms: N_18  and  C_19
REMARK                            x       y       z     vdW  Elec       q    Type
REMARK                         _______ _______ _______ _____ _____    ______ ____
ROOT
ATOM      1  N   UNL     1       5.249   4.629  18.545  0.00  0.00    +0.000 N 
ATOM      2  C   UNL     1       4.004   4.080  18.308  0.00  0.00    +0.000 C 
ATOM      3  O   UNL     1       3.716   3.464  17.289  0.00  0.00    +0.000 OA
ATOM      4  H   UNL     1       5.308   5.310  19.292  0.00  0.00    +0.000 HD
ENDROOT
BRANCH   1   8
ATOM      5  N   UNL     1       7.545   7.246  17.284  0.00  0.00    +0.000 NA
ATOM      6  C   UNL     1       7.764   6.432  18.486  0.00  0.00    +0.000 C 
ATOM      7  C   UNL     1       7.660   4.942  18.173  0.00  0.00    +0.000 C 
ATOM      8  C   UNL     1       6.315   4.584  17.548  0.00  0.00    +0.000 C 
ATOM      9  C   UNL     1       6.030   5.499  16.354  0.00  0.00    +0.000 C 
ATOM     10  C   UNL     1       6.216   6.979  16.701  0.00  0.00    +0.000 C 
BRANCH   5  12
ATOM     11  C   UNL     1       8.707   8.985  18.662  0.00  0.00    +0.000 C 
ATOM     12  C   UNL     1       7.698   8.686  17.557  0.00  0.00    +0.000 C 
ENDBRANCH   5  12
ENDBRANCH   1   8
BRANCH   2  13
ATOM     13  C   UNL     1       2.990   4.304  19.438  0.00  0.00    +0.000 C 
BRANCH  13  14
ATOM     14  N   UNL     1       2.292   5.600  19.299  0.00  0.00    +0.000 NA
ATOM     15  C   UNL     1       3.099   6.512  18.435  0.00  0.00    +0.000 C 
ATOM     16  C   UNL     1       2.345   7.828  18.083  0.00  0.00    +0.000 C 
ATOM     17  C   UNL     1       1.722   8.352  19.319  0.00  0.00    +0.000 A 
ATOM     18  C   UNL     1       1.581   7.624  20.479  0.00  0.00    +0.000 A 
ATOM     19  N   UNL     1       0.955   8.370  21.443  0.00  0.00    +0.000 NA
ATOM     20  C   UNL     1       0.695   9.524  20.863  0.00  0.00    +0.000 A 
ATOM     21  N   UNL     1       1.135   9.555  19.567  0.00  0.00    +0.000 N 
ATOM     22  C   UNL     1       0.974  10.648  18.644  0.00  0.00    +0.000 C 
ATOM     23  C   UNL     1       2.076   6.222  20.649  0.00  0.00    +0.000 C 
ENDBRANCH  13  14
ENDBRANCH   2  13
TORSDOF 4
ENDMDL
MODEL 4
REMARK VINA RESULT:      -6.2      2.518      4.365
REMARK  Name = 
REMARK  6 active torsions:
REMARK  status: ('A' for Active; 'I' for Inactive)
REMARK    1  A    between atoms: C_1  and  C_2
REMARK    2  A    between atoms: C_2  and  N_3
REMARK    3  A    between atoms: C_6  and  N_7
REMARK    4  A    between atoms: C_8  and  C_10
REMARK    5  A    between atoms: C_10  and  N_11
REMARK    6  A    between atoms: N_18  and  C_19
REMARK                            x       y       z     vdW  Elec       q    Type
REMARK                         _______ _______ _______ _____ _____    ______ ____
ROOT
ATOM      1  N   UNL     1       3.035   6.711  18.015  0.00  0.00    +0.000 N 
ATOM      2  C   UNL     1       2.359   7.652  18.765  0.00  0.00    +0.000 C 
ATOM      3  O   UNL     1       2.068   7.500  19.945  0.00  0.00    +0.000 OA
ATOM      4  H   UNL     1       3.012   6.830  17.010  0.00  0.00    +0.000 HD
ENDROOT
BRANCH   1   8
ATOM      5  N   UNL     1       5.917   4.482  17.354  0.00  0.00    +0.000 NA
ATOM      6  C   UNL     1       5.906   5.591  18.316  0.00  0.00    +0.000 C 
ATOM      7  C   UNL     1       4.735   5.468  19.288  0.00  0.00    +0.000 C 
ATOM      8  C   UNL     1       3.395   5.404  18.560  0.00  0.00    +0.000 C 
ATOM      9  C   UNL     1       3.434   4.318  17.483  0.00  0.00    +0.000 C 
ATOM     10  C   UNL     1       4.664   4.443  16.578  0.00  0.00    +0.000 C 
BRANCH   5  12
ATOM     11  C   UNL     1       6.683   4.525  14.969  0.00  0.00    +0.000 C 
ATOM     12  C   UNL     1       7.075   4.554  16.443  0.00  0.00    +0.000 C 
ENDBRANCH   5  12
ENDBRANCH   1   8
BRANCH   2  13
ATOM     13  C   UNL     1       1.992   8.928  17.994  0.00  0.00    +0.000 C 
BRANCH  13  14
ATOM     14  N   UNL     1       0.952   9.712  18.694  0.00  0.00    +0.000 NA
ATOM     15  C   UNL     1      -0.304   9.708  17.887  0.00  0.00    +0.000 C 
ATOM     16  C   UNL     1      -1.505  10.349  18.643  0.00  0.00    +0.000 C 
ATOM     17  C   UNL     1      -1.042  11.607  19.271  0.00  0.00    +0.000 A 
ATOM     18  C   UNL     1       0.282  11.954  19.413  0.00  0.00    +0.000 A 
ATOM     19  N   UNL     1       0.398  13.166  20.042  0.00  0.00    +0.000 NA
ATOM     20  C   UNL     1      -0.841  13.531  20.303  0.00  0.00    +0.000 A 
ATOM     21  N   UNL     1      -1.750  12.608  19.860  0.00  0.00    +0.000 N 
ATOM     22  C   UNL     1      -3.178  12.683  20.021  0.00  0.00    +0.000 C 
ATOM     23  C   UNL     1       1.422  11.121  18.915  0.00  0.00    +0.000 C 
ENDBRANCH  13  14
ENDBRANCH   2  13
TORSDOF 4
ENDMDL
MODEL 5
REMARK VINA RESULT:      -5.9      3.127      7.044
REMARK  Name = 
REMARK  6 active torsions:
REMARK  status: ('A' for Active; 'I' for Inactive)
REMARK    1  A    between atoms: C_1  and  C_2
REMARK    2  A    between atoms: C_2  and  N_3
REMARK    3  A    between atoms: C_6  and  N_7
REMARK    4  A    between atoms: C_8  and  C_10
REMARK    5  A    between atoms: C_10  and  N_11
REMARK    6  A    between atoms: N_18  and  C_19
REMARK                            x       y       z     vdW  Elec       q    Type
REMARK                         _______ _______ _______ _____ _____    ______ ____
ROOT
ATOM      1  N   UNL     1       1.674  10.327  18.594  0.00  0.00    +0.000 N 
ATOM      2  C   UNL     1       1.625   9.146  17.880  0.00  0.00    +0.000 C 
ATOM      3  O   UNL     1       0.665   8.800  17.204  0.00  0.00    +0.000 OA
ATOM      4  H   UNL     1       2.399  10.401  19.297  0.00  0.00    +0.000 HD
ENDROOT
BRANCH   1   8
ATOM      5  N   UNL     1      -0.569  11.245  21.393  0.00  0.00    +0.000 NA
ATOM      6  C   UNL     1       0.725  11.873  21.102  0.00  0.00    +0.000 C 
ATOM      7  C   UNL     1       0.792  12.362  19.658  0.00  0.00    +0.000 C 
ATOM      8  C   UNL     1       0.532  11.235  18.662  0.00  0.00    +0.000 C 
ATOM      9  C   UNL     1      -0.766  10.506  19.021  0.00  0.00    +0.000 C 
ATOM     10  C   UNL     1      -0.813  10.098  20.497  0.00  0.00    +0.000 C 
BRANCH   5  12
ATOM     11  C   UNL     1       0.055   9.506  23.085  0.00  0.00    +0.000 C 
ATOM     12  C   UNL     1      -0.671  10.817  22.800  0.00  0.00    +0.000 C 
ENDBRANCH   5  12
ENDBRANCH   1   8
BRANCH   2  13
ATOM     13  C   UNL     1       2.890   8.284  17.998  0.00  0.00    +0.000 C 
BRANCH  13  14
ATOM     14  N   UNL     1       2.592   6.947  18.554  0.00  0.00    +0.000 NA
ATOM     15  C   UNL     1       2.166   7.081  19.978  0.00  0.00    +0.000 C 
ATOM     16  C   UNL     1       1.651   5.741  20.579  0.00  0.00    +0.000 C 
ATOM     17  C   UNL     1       2.593   4.666  20.196  0.00  0.00    +0.000 A 
ATOM     18  C   UNL     1       3.557   4.799  19.223  0.00  0.00    +0.000 A 
ATOM     19  N   UNL     1       4.265   3.633  19.083  0.00  0.00    +0.000 NA
ATOM     20  C   UNL     1       3.714   2.798  19.940  0.00  0.00    +0.000 A 
ATOM     21  N   UNL     1       2.686   3.380  20.633  0.00  0.00    +0.000 N 
ATOM     22  C   UNL     1       1.853   2.734  21.612  0.00  0.00    +0.000 C 
ATOM     23  C   UNL     1       3.801   6.061  18.456  0.00  0.00    +0.000 C 
ENDBRANCH  13  14
ENDBRANCH   2  13
TORSDOF 4
ENDMDL
MODEL 6
REMARK VINA RESULT:      -5.9      2.543      4.653
REMARK  Name = 
REMARK  6 active torsions:
REMARK  status: ('A' for Active; 'I' for Inactive)
REMARK    1  A    between atoms: C_1  and  C_2
REMARK    2  A    between atoms: C_2  and  N_3
REMARK    3  A    between atoms: C_6  and  N_7
REMARK    4  A    between atoms: C_8  and  C_10
REMARK    5  A    between atoms: C_10  and  N_11
REMARK    6  A    between atoms: N_18  and  C_19
REMARK                            x       y       z     vdW  Elec       q    Type
REMARK                         _______ _______ _______ _____ _____    ______ ____
ROOT
ATOM      1  N   UNL     1       2.800   6.753  18.577  0.00  0.00    +0.000 N 
ATOM      2  C   UNL     1       2.080   7.635  19.358  0.00  0.00    +0.000 C 
ATOM      3  O   UNL     1       1.750   7.404  20.515  0.00  0.00    +0.000 OA
ATOM      4  H   UNL     1       2.811   6.935  17.581  0.00  0.00    +0.000 HD
ENDROOT
BRANCH   1   8
ATOM      5  N   UNL     1       5.256   4.282  17.323  0.00  0.00    +0.000 NA
ATOM      6  C   UNL     1       5.558   5.389  18.240  0.00  0.00    +0.000 C 
ATOM      7  C   UNL     1       4.635   5.369  19.454  0.00  0.00    +0.000 C 
ATOM      8  C   UNL     1       3.163   5.420  19.053  0.00  0.00    +0.000 C 
ATOM      9  C   UNL     1       2.864   4.334  18.017  0.00  0.00    +0.000 C 
ATOM     10  C   UNL     1       3.860   4.352  16.853  0.00  0.00    +0.000 C 
BRANCH   5  12
ATOM     11  C   UNL     1       5.676   5.066  14.981  0.00  0.00    +0.000 C 
ATOM     12  C   UNL     1       6.176   4.253  16.171  0.00  0.00    +0.000 C 
ENDBRANCH   5  12
ENDBRANCH   1   8
BRANCH   2  13
ATOM     13  C   UNL     1       1.718   8.950  18.655  0.00  0.00    +0.000 C 
BRANCH  13  14
ATOM     14  N   UNL     1       0.596   9.640  19.327  0.00  0.00    +0.000 NA
ATOM     15  C   UNL     1      -0.275  10.290  18.303  0.00  0.00    +0.000 C 
ATOM     16  C   UNL     1      -1.583  10.875  18.912  0.00  0.00    +0.000 C 
ATOM     17  C   UNL     1      -1.233  11.610  20.148  0.00  0.00    +0.000 A 
ATOM     18  C   UNL     1      -0.019  11.507  20.787  0.00  0.00    +0.000 A 
ATOM     19  N   UNL     1       0.004  12.292  21.909  0.00  0.00    +0.000 NA
ATOM     20  C   UNL     1      -1.193  12.841  21.963  0.00  0.00    +0.000 A 
ATOM     21  N   UNL     1      -1.983  12.446  20.916  0.00  0.00    +0.000 N 
ATOM     22  C   UNL     1      -3.353  12.829  20.699  0.00  0.00    +0.000 C 
ATOM     23  C   UNL     1       1.117  10.667  20.291  0.00  0.00    +0.000 C 
ENDBRANCH  13  14
ENDBRANCH   2  13
TORSDOF 4
ENDMDL
MODEL 7
REMARK VINA RESULT:      -5.9      3.157      5.812
REMARK  Name = 
REMARK  6 active torsions:
REMARK  status: ('A' for Active; 'I' for Inactive)
REMARK    1  A    between atoms: C_1  and  C_2
REMARK    2  A    between atoms: C_2  and  N_3
REMARK    3  A    between atoms: C_6  and  N_7
REMARK    4  A    between atoms: C_8  and  C_10
REMARK    5  A    between atoms: C_10  and  N_11
REMARK    6  A    between atoms: N_18  and  C_19
REMARK                            x       y       z     vdW  Elec       q    Type
REMARK                         _______ _______ _______ _____ _____    ______ ____
ROOT
ATOM      1  N   UNL     1       2.088   7.178  18.835  0.00  0.00    +0.000 N 
ATOM      2  C   UNL     1       2.039   8.506  18.462  0.00  0.00    +0.000 C 
ATOM      3  O   UNL     1       2.401   8.919  17.367  0.00  0.00    +0.000 OA
ATOM      4  H   UNL     1       1.995   6.982  19.824  0.00  0.00    +0.000 HD
ENDROOT
BRANCH   1   8
ATOM      5  N   UNL     1       3.121   3.685  19.503  0.00  0.00    +0.000 NA
ATOM      6  C   UNL     1       1.759   4.117  19.166  0.00  0.00    +0.000 C 
ATOM      7  C   UNL     1       1.740   4.937  17.880  0.00  0.00    +0.000 C 
ATOM      8  C   UNL     1       2.660   6.153  17.965  0.00  0.00    +0.000 C 
ATOM      9  C   UNL     1       4.057   5.723  18.417  0.00  0.00    +0.000 C 
ATOM     10  C   UNL     1       4.017   4.845  19.671  0.00  0.00    +0.000 C 
BRANCH   5  12
ATOM     11  C   UNL     1       1.802   2.769  21.426  0.00  0.00    +0.000 C 
ATOM     12  C   UNL     1       3.150   2.844  20.713  0.00  0.00    +0.000 C 
ENDBRANCH   5  12
ENDBRANCH   1   8
BRANCH   2  13
ATOM     13  C   UNL     1       1.485   9.445  19.542  0.00  0.00    +0.000 C 
BRANCH  13  14
ATOM     14  N   UNL     1       0.062   9.771  19.307  0.00  0.00    +0.000 NA
ATOM     15  C   UNL     1      -0.178   9.936  17.843  0.00  0.00    +0.000 C 
ATOM     16  C   UNL     1      -1.687  10.092  17.495  0.00  0.00    +0.000 C 
ATOM     17  C   UNL     1      -2.287  11.053  18.447  0.00  0.00    +0.000 A 
ATOM     18  C   UNL     1      -1.677  11.468  19.609  0.00  0.00    +0.000 A 
ATOM     19  N   UNL     1      -2.480  12.347  20.289  0.00  0.00    +0.000 NA
ATOM     20  C   UNL     1      -3.574  12.437  19.560  0.00  0.00    +0.000 A 
ATOM     21  N   UNL     1      -3.505  11.660  18.435  0.00  0.00    +0.000 N 
ATOM     22  C   UNL     1      -4.544  11.502  17.451  0.00  0.00    +0.000 C 
ATOM     23  C   UNL     1      -0.312  11.029  20.038  0.00  0.00    +0.000 C 
ENDBRANCH  13  14
ENDBRANCH   2  13
TORSDOF 4
ENDMDL
MODEL 8
REMARK VINA RESULT:      -5.9      2.456      4.449
REMARK  Name = 
REMARK  6 active torsions:
REMARK  status: ('A' for Active; 'I' for Inactive)
REMARK    1  A    between atoms: C_1  and  C_2
REMARK    2  A    between atoms: C_2  and  N_3
REMARK    3  A    between atoms: C_6  and  N_7
REMARK    4  A    between atoms: C_8  and  C_10
REMARK    5  A    between atoms: C_10  and  N_11
REMARK    6  A    between atoms: N_18  and  C_19
REMARK                            x       y       z     vdW  Elec       q    Type
REMARK                         _______ _______ _______ _____ _____    ______ ____
ROOT
ATOM      1  N   UNL     1       2.572   6.634  18.393  0.00  0.00    +0.000 N 
ATOM      2  C   UNL     1       2.038   7.470  19.354  0.00  0.00    +0.000 C 
ATOM      3  O   UNL     1       1.764   7.110  20.492  0.00  0.00    +0.000 OA
ATOM      4  H   UNL     1       2.535   6.963  17.436  0.00  0.00    +0.000 HD
ENDROOT
BRANCH   1   8
ATOM      5  N   UNL     1       5.569   4.493  18.014  0.00  0.00    +0.000 NA
ATOM      6  C   UNL     1       5.249   5.303  19.196  0.00  0.00    +0.000 C 
ATOM      7  C   UNL     1       3.847   4.997  19.714  0.00  0.00    +0.000 C 
ATOM      8  C   UNL     1       2.783   5.210  18.641  0.00  0.00    +0.000 C 
ATOM      9  C   UNL     1       3.163   4.451  17.367  0.00  0.00    +0.000 C 
ATOM     10  C   UNL     1       4.601   4.739  16.928  0.00  0.00    +0.000 C 
BRANCH   5  12
ATOM     11  C   UNL     1       7.716   5.724  18.401  0.00  0.00    +0.000 C 
ATOM     12  C   UNL     1       6.941   4.736  17.534  0.00  0.00    +0.000 C 
ENDBRANCH   5  12
ENDBRANCH   1   8
BRANCH   2  13
ATOM     13  C   UNL     1       1.810   8.912  18.879  0.00  0.00    +0.000 C 
BRANCH  13  14
ATOM     14  N   UNL     1       0.644   9.530  19.546  0.00  0.00    +0.000 NA
ATOM     15  C   UNL     1       0.153  10.680  18.730  0.00  0.00    +0.000 C 
ATOM     16  C   UNL     1      -1.187  11.266  19.263  0.00  0.00    +0.000 C 
ATOM     17  C   UNL     1      -1.083  11.404  20.733  0.00  0.00    +0.000 A 
ATOM     18  C   UNL     1      -0.097  10.816  21.493  0.00  0.00    +0.000 A 
ATOM     19  N   UNL     1      -0.271  11.112  22.820  0.00  0.00    +0.000 NA
ATOM     20  C   UNL     1      -1.366  11.844  22.863  0.00  0.00    +0.000 A 
ATOM     21  N   UNL     1      -1.899  12.040  21.617  0.00  0.00    +0.000 N 
ATOM     22  C   UNL     1      -3.110  12.758  21.318  0.00  0.00    +0.000 C 
ATOM     23  C   UNL     1       1.018   9.995  20.924  0.00  0.00    +0.000 C 
ENDBRANCH  13  14
ENDBRANCH   2  13
TORSDOF 4
ENDMDL
MODEL 9
REMARK VINA RESULT:      -5.9      2.518      4.525
REMARK  Name = 
REMARK  6 active torsions:
REMARK  status: ('A' for Active; 'I' for Inactive)
REMARK    1  A    between atoms: C_1  and  C_2
REMARK    2  A    between atoms: C_2  and  N_3
REMARK    3  A    between atoms: C_6  and  N_7
REMARK    4  A    between atoms: C_8  and  C_10
REMARK    5  A    between atoms: C_10  and  N_11
REMARK    6  A    between atoms: N_18  and  C_19
REMARK                            x       y       z     vdW  Elec       q    Type
REMARK                         _______ _______ _______ _____ _____    ______ ____
ROOT
ATOM      1  N   UNL     1       3.852   5.299  17.245  0.00  0.00    +0.000 N 
ATOM      2  C   UNL     1       4.424   6.552  17.349  0.00  0.00    +0.000 C 
ATOM      3  O   UNL     1       5.588   6.742  17.679  0.00  0.00    +0.000 OA
ATOM      4  H   UNL     1       2.842   5.265  17.200  0.00  0.00    +0.000 HD
ENDROOT
BRANCH   1   8
ATOM      5  N   UNL     1       3.020   2.522  19.547  0.00  0.00    +0.000 NA
ATOM      6  C   UNL     1       2.596   2.617  18.144  0.00  0.00    +0.000 C 
ATOM      7  C   UNL     1       3.789   2.840  17.220  0.00  0.00    +0.000 C 
ATOM      8  C   UNL     1       4.583   4.086  17.603  0.00  0.00    +0.000 C 
ATOM      9  C   UNL     1       4.939   4.043  19.091  0.00  0.00    +0.000 C 
ATOM     10  C   UNL     1       3.721   3.748  19.971  0.00  0.00    +0.000 C 
BRANCH   5  12
ATOM     11  C   UNL     1       0.821   3.343  20.423  0.00  0.00    +0.000 C 
ATOM     12  C   UNL     1       1.886   2.250  20.449  0.00  0.00    +0.000 C 
ENDBRANCH   5  12
ENDBRANCH   1   8
BRANCH   2  13
ATOM     13  C   UNL     1       3.474   7.709  17.011  0.00  0.00    +0.000 C 
BRANCH  13  14
ATOM     14  N   UNL     1       2.862   8.288  18.226  0.00  0.00    +0.000 NA
ATOM     15  C   UNL     1       2.285   7.196  19.063  0.00  0.00    +0.000 C 
ATOM     16  C   UNL     1       1.791   7.701  20.451  0.00  0.00    +0.000 C 
ATOM     17  C   UNL     1       1.024   8.949  20.246  0.00  0.00    +0.000 A 
ATOM     18  C   UNL     1       1.035   9.677  19.078  0.00  0.00    +0.000 A 
ATOM     19  N   UNL     1       0.241  10.788  19.194  0.00  0.00    +0.000 NA
ATOM     20  C   UNL     1      -0.220  10.747  20.428  0.00  0.00    +0.000 A 
ATOM     21  N   UNL     1       0.238   9.651  21.108  0.00  0.00    +0.000 N 
ATOM     22  C   UNL     1      -0.043   9.330  22.483  0.00  0.00    +0.000 C 
ATOM     23  C   UNL     1       1.794   9.275  17.852  0.00  0.00    +0.000 C 
ENDBRANCH  13  14
ENDBRANCH   2  13
TORSDOF 4
ENDMDL
