MODEL 1
REMARK VINA RESULT:      -7.3      0.000      0.000
REMARK  Name = 
REMARK  5 active torsions:
REMARK  status: ('A' for Active; 'I' for Inactive)
REMARK    1  A    between atoms: C_1  and  N_2
REMARK    2  A    between atoms: N_2  and  C_3
REMARK    3  A    between atoms: C_3  and  C_4
REMARK    4  A    between atoms: C_9  and  C_11
REMARK    5  A    between atoms: C_11  and  N_12
REMARK                            x       y       z     vdW  Elec       q    Type
REMARK                         _______ _______ _______ _____ _____    ______ ____
ROOT
ATOM      1  N   UNL     1       3.048   7.620  18.363  0.00  0.00    +0.000 N 
ATOM      2  C   UNL     1       2.084   8.576  18.243  0.00  0.00    +0.000 C 
ATOM      3  O   UNL     1       1.949   9.222  17.205  0.00  0.00    +0.000 OA
ATOM      4  N   UNL     1       1.298   8.802  19.360  0.00  0.00    +0.000 N 
ATOM      5  C   UNL     1       1.443   8.121  20.653  0.00  0.00    +0.000 C 
ATOM      6  C   UNL     1       0.204   8.215  21.549  0.00  0.00    +0.000 C 
ATOM      7  C   UNL     1      -0.193   9.652  21.716  0.00  0.00    +0.000 A 
ATOM      8  C   UNL     1      -0.682  10.149  22.929  0.00  0.00    +0.000 A 
ATOM      9  C   UNL     1      -1.048  11.490  23.037  0.00  0.00    +0.000 A 
ATOM     10  C   UNL     1      -0.942  12.334  21.933  0.00  0.00    +0.000 A 
ATOM     11  C   UNL     1      -0.473  11.837  20.715  0.00  0.00    +0.000 A 
ATOM     12  C   UNL     1      -0.088  10.495  20.599  0.00  0.00    +0.000 A 
ATOM     13  C   UNL     1       0.365   9.932  19.272  0.00  0.00    +0.000 C 
ATOM     14  H   UNL     1       3.091   7.019  19.168  0.00  0.00    +0.000 HD
ENDROOT
BRANCH   1  15
ATOM     15  C   UNL     1       4.033   7.373  17.323  0.00  0.00    +0.000 C 
BRANCH  15  18
ATOM     16  C   UNL     1       5.511   3.919  18.217  0.00  0.00    +0.000 C 
ATOM     17  N   UNL     1       4.574   4.949  17.789  0.00  0.00    +0.000 N 
ATOM     18  C   UNL     1       5.003   6.271  17.771  0.00  0.00    +0.000 C 
ATOM     19  O   UNL     1       6.171   6.580  18.034  0.00  0.00    +0.000 OA
BRANCH  17  20
ATOM     20  C   UNL     1       3.249   4.503  17.364  0.00  0.00    +0.000 C 
BRANCH  20  21
ATOM     21  C   UNL     1       2.394   3.985  18.484  0.00  0.00    +0.000 A 
ATOM     22  C   UNL     1       1.537   2.841  18.336  0.00  0.00    +0.000 A 
ATOM     23  C   UNL     1       0.896   2.488  19.500  0.00  0.00    +0.000 A 
ATOM     24  S   UNL     1       1.291   3.540  20.785  0.00  0.00    +0.000 S 
ATOM     25  C   UNL     1       2.332   4.461  19.785  0.00  0.00    +0.000 A 
ENDBRANCH  20  21
ENDBRANCH  17  20
ENDBRANCH  15  18
ENDBRANCH   1  15
TORSDOF 4
ENDMDL
MODEL 2
REMARK VINA RESULT:      -7.2      2.976      7.363
REMARK  Name = 
REMARK  5 active torsions:
REMARK  status: ('A' for Active; 'I' for Inactive)
REMARK    1  A    between atoms: C_1  and  N_2
REMARK    2  A    between atoms: N_2  and  C_3
REMARK    3  A    between atoms: C_3  and  C_4
REMARK    4  A    between atoms: C_9  and  C_11
REMARK    5  A    between atoms: C_11  and  N_12
REMARK                            x       y       z     vdW  Elec       q    Type
REMARK                         _______ _______ _______ _____ _____    ______ ____
ROOT
ATOM      1  N   UNL     1       1.726   9.249  18.817  0.00  0.00    +0.000 N 
ATOM      2  C   UNL     1       2.403   8.251  18.182  0.00  0.00    +0.000 C 
ATOM      3  O   UNL     1       2.946   8.437  17.094  0.00  0.00    +0.000 OA
ATOM      4  N   UNL     1       2.413   7.017  18.809  0.00  0.00    +0.000 N 
ATOM      5  C   UNL     1       1.733   6.700  20.071  0.00  0.00    +0.000 C 
ATOM      6  C   UNL     1       2.259   5.438  20.763  0.00  0.00    +0.000 C 
ATOM      7  C   UNL     1       2.225   4.283  19.805  0.00  0.00    +0.000 A 
ATOM      8  C   UNL     1       1.887   2.990  20.216  0.00  0.00    +0.000 A 
ATOM      9  C   UNL     1       1.876   1.945  19.294  0.00  0.00    +0.000 A 
ATOM     10  C   UNL     1       2.217   2.184  17.963  0.00  0.00    +0.000 A 
ATOM     11  C   UNL     1       2.575   3.470  17.554  0.00  0.00    +0.000 A 
ATOM     12  C   UNL     1       2.574   4.531  18.468  0.00  0.00    +0.000 A 
ATOM     13  C   UNL     1       3.014   5.914  18.050  0.00  0.00    +0.000 C 
ATOM     14  H   UNL     1       1.376   9.130  19.752  0.00  0.00    +0.000 HD
ENDROOT
BRANCH   1  15
ATOM     15  C   UNL     1       1.516  10.554  18.212  0.00  0.00    +0.000 C 
BRANCH  15  18
ATOM     16  C   UNL     1      -0.905  12.250  20.698  0.00  0.00    +0.000 C 
ATOM     17  N   UNL     1      -0.367  11.321  19.714  0.00  0.00    +0.000 N 
ATOM     18  C   UNL     1       0.928  11.522  19.248  0.00  0.00    +0.000 C 
ATOM     19  O   UNL     1       1.651  12.416  19.701  0.00  0.00    +0.000 OA
BRANCH  17  20
ATOM     20  C   UNL     1      -1.224  10.206  19.318  0.00  0.00    +0.000 C 
BRANCH  20  21
ATOM     21  C   UNL     1      -2.140  10.523  18.170  0.00  0.00    +0.000 A 
ATOM     22  C   UNL     1      -1.929  10.002  16.848  0.00  0.00    +0.000 A 
ATOM     23  C   UNL     1      -2.921  10.352  15.961  0.00  0.00    +0.000 A 
ATOM     24  S   UNL     1      -4.108  11.334  16.696  0.00  0.00    +0.000 S 
ATOM     25  C   UNL     1      -3.301  11.280  18.205  0.00  0.00    +0.000 A 
ENDBRANCH  20  21
ENDBRANCH  17  20
ENDBRANCH  15  18
ENDBRANCH   1  15
TORSDOF 4
ENDMDL
MODEL 3
REMARK VINA RESULT:      -7.1      1.000      1.132
REMARK  Name = 
REMARK  5 active torsions:
REMARK  status: ('A' for Active; 'I' for Inactive)
REMARK    1  A    between atoms: C_1  and  N_2
REMARK    2  A    between atoms: N_2  and  C_3
REMARK    3  A    between atoms: C_3  and  C_4
REMARK    4  A    between atoms: C_9  and  C_11
REMARK    5  A    between atoms: C_11  and  N_12
REMARK                            x       y       z     vdW  Elec       q    Type
REMARK                         _______ _______ _______ _____ _____    ______ ____
ROOT
ATOM      1  N   UNL     1       3.391   7.495  18.048  0.00  0.00    +0.000 N 
ATOM      2  C   UNL     1       2.394   8.424  18.036  0.00  0.00    +0.000 C 
ATOM      3  O   UNL     1       2.221   9.165  17.069  0.00  0.00    +0.000 OA
ATOM      4  N   UNL     1       1.617   8.510  19.179  0.00  0.00    +0.000 N 
ATOM      5  C   UNL     1       1.803   7.710  20.395  0.00  0.00    +0.000 C 
ATOM      6  C   UNL     1       0.576   7.671  21.310  0.00  0.00    +0.000 C 
ATOM      7  C   UNL     1       0.133   9.070  21.625  0.00  0.00    +0.000 A 
ATOM      8  C   UNL     1      -0.354   9.427  22.887  0.00  0.00    +0.000 A 
ATOM      9  C   UNL     1      -0.762  10.737  23.132  0.00  0.00    +0.000 A 
ATOM     10  C   UNL     1      -0.701  11.689  22.117  0.00  0.00    +0.000 A 
ATOM     11  C   UNL     1      -0.234  11.332  20.850  0.00  0.00    +0.000 A 
ATOM     12  C   UNL     1       0.194  10.022  20.596  0.00  0.00    +0.000 A 
ATOM     13  C   UNL     1       0.646   9.610  19.215  0.00  0.00    +0.000 C 
ATOM     14  H   UNL     1       3.465   6.818  18.789  0.00  0.00    +0.000 HD
ENDROOT
BRANCH   1  15
ATOM     15  C   UNL     1       4.367   7.386  16.978  0.00  0.00    +0.000 C 
BRANCH  15  18
ATOM     16  C   UNL     1       6.650   4.334  17.600  0.00  0.00    +0.000 C 
ATOM     17  N   UNL     1       5.522   5.146  17.164  0.00  0.00    +0.000 N 
ATOM     18  C   UNL     1       5.544   6.511  17.429  0.00  0.00    +0.000 C 
ATOM     19  O   UNL     1       6.523   7.056  17.952  0.00  0.00    +0.000 OA
BRANCH  17  20
ATOM     20  C   UNL     1       4.458   4.463  16.433  0.00  0.00    +0.000 C 
BRANCH  20  21
ATOM     21  C   UNL     1       3.451   3.785  17.317  0.00  0.00    +0.000 A 
ATOM     22  C   UNL     1       3.681   2.489  17.895  0.00  0.00    +0.000 A 
ATOM     23  C   UNL     1       2.667   2.080  18.730  0.00  0.00    +0.000 A 
ATOM     24  S   UNL     1       1.412   3.233  18.815  0.00  0.00    +0.000 S 
ATOM     25  C   UNL     1       2.230   4.287  17.742  0.00  0.00    +0.000 A 
ENDBRANCH  20  21
ENDBRANCH  17  20
ENDBRANCH  15  18
ENDBRANCH   1  15
TORSDOF 4
ENDMDL
MODEL 4
REMARK VINA RESULT:      -7.1      2.589      3.793
REMARK  Name = 
REMARK  5 active torsions:
REMARK  status: ('A' for Active; 'I' for Inactive)
REMARK    1  A    between atoms: C_1  and  N_2
REMARK    2  A    between atoms: N_2  and  C_3
REMARK    3  A    between atoms: C_3  and  C_4
REMARK    4  A    between atoms: C_9  and  C_11
REMARK    5  A    between atoms: C_11  and  N_12
REMARK                            x       y       z     vdW  Elec       q    Type
REMARK                         _______ _______ _______ _____ _____    ______ ____
ROOT
ATOM      1  N   UNL     1       2.162   6.520  20.248  0.00  0.00    +0.000 N 
ATOM      2  C   UNL     1       2.329   7.367  19.193  0.00  0.00    +0.000 C 
ATOM      3  O   UNL     1       3.055   7.073  18.245  0.00  0.00    +0.000 OA
ATOM      4  N   UNL     1       1.669   8.581  19.267  0.00  0.00    +0.000 N 
ATOM      5  C   UNL     1       0.841   9.032  20.393  0.00  0.00    +0.000 C 
ATOM      6  C   UNL     1      -0.115  10.176  20.045  0.00  0.00    +0.000 C 
ATOM      7  C   UNL     1       0.652  11.309  19.429  0.00  0.00    +0.000 A 
ATOM      8  C   UNL     1       0.339  12.646  19.693  0.00  0.00    +0.000 A 
ATOM      9  C   UNL     1       1.073  13.667  19.092  0.00  0.00    +0.000 A 
ATOM     10  C   UNL     1       2.111  13.357  18.214  0.00  0.00    +0.000 A 
ATOM     11  C   UNL     1       2.413  12.024  17.932  0.00  0.00    +0.000 A 
ATOM     12  C   UNL     1       1.692  10.989  18.543  0.00  0.00    +0.000 A 
ATOM     13  C   UNL     1       1.972   9.545  18.201  0.00  0.00    +0.000 C 
ATOM     14  H   UNL     1       1.487   6.710  20.969  0.00  0.00    +0.000 HD
ENDROOT
BRANCH   1  15
ATOM     15  C   UNL     1       2.899   5.274  20.370  0.00  0.00    +0.000 C 
BRANCH  15  18
ATOM     16  C   UNL     1       2.301   2.211  18.095  0.00  0.00    +0.000 C 
ATOM     17  N   UNL     1       2.978   3.248  18.861  0.00  0.00    +0.000 N 
ATOM     18  C   UNL     1       2.207   4.173  19.555  0.00  0.00    +0.000 C 
ATOM     19  O   UNL     1       0.974   4.089  19.599  0.00  0.00    +0.000 OA
BRANCH  17  20
ATOM     20  C   UNL     1       4.439   3.212  18.877  0.00  0.00    +0.000 C 
BRANCH  20  21
ATOM     21  C   UNL     1       5.081   4.223  17.970  0.00  0.00    +0.000 A 
ATOM     22  C   UNL     1       4.728   4.350  16.583  0.00  0.00    +0.000 A 
ATOM     23  C   UNL     1       5.380   5.382  15.949  0.00  0.00    +0.000 A 
ATOM     24  S   UNL     1       6.447   6.199  17.003  0.00  0.00    +0.000 S 
ATOM     25  C   UNL     1       6.026   5.178  18.312  0.00  0.00    +0.000 A 
ENDBRANCH  20  21
ENDBRANCH  17  20
ENDBRANCH  15  18
ENDBRANCH   1  15
TORSDOF 4
ENDMDL
MODEL 5
REMARK VINA RESULT:      -7.0      3.003      4.349
REMARK  Name = 
REMARK  5 active torsions:
REMARK  status: ('A' for Active; 'I' for Inactive)
REMARK    1  A    between atoms: C_1  and  N_2
REMARK    2  A    between atoms: N_2  and  C_3
REMARK    3  A    between atoms: C_3  and  C_4
REMARK    4  A    between atoms: C_9  and  C_11
REMARK    5  A    between atoms: C_11  and  N_12
REMARK                            x       y       z     vdW  Elec       q    Type
REMARK                         _______ _______ _______ _____ _____    ______ ____
ROOT
ATOM      1  N   UNL     1       1.160   9.064  17.854  0.00  0.00    +0.000 N 
ATOM      2  C   UNL     1       0.752  10.237  18.416  0.00  0.00    +0.000 C 
ATOM      3  O   UNL     1       1.501  10.897  19.132  0.00  0.00    +0.000 OA
ATOM      4  N   UNL     1      -0.555  10.618  18.165  0.00  0.00    +0.000 N 
ATOM      5  C   UNL     1      -1.528   9.852  17.377  0.00  0.00    +0.000 C 
ATOM      6  C   UNL     1      -2.719  10.678  16.882  0.00  0.00    +0.000 C 
ATOM      7  C   UNL     1      -3.366  11.380  18.040  0.00  0.00    +0.000 A 
ATOM      8  C   UNL     1      -4.753  11.538  18.128  0.00  0.00    +0.000 A 
ATOM      9  C   UNL     1      -5.311  12.205  19.218  0.00  0.00    +0.000 A 
ATOM     10  C   UNL     1      -4.488  12.727  20.213  0.00  0.00    +0.000 A 
ATOM     11  C   UNL     1      -3.102  12.589  20.118  0.00  0.00    +0.000 A 
ATOM     12  C   UNL     1      -2.530  11.907  19.036  0.00  0.00    +0.000 A 
ATOM     13  C   UNL     1      -1.031  11.801  18.893  0.00  0.00    +0.000 C 
ATOM     14  H   UNL     1       0.588   8.579  17.183  0.00  0.00    +0.000 HD
ENDROOT
BRANCH   1  15
ATOM     15  C   UNL     1       2.455   8.472  18.142  0.00  0.00    +0.000 C 
BRANCH  15  18
ATOM     16  C   UNL     1       2.641   5.151  20.104  0.00  0.00    +0.000 C 
ATOM     17  N   UNL     1       2.782   6.131  19.036  0.00  0.00    +0.000 N 
ATOM     18  C   UNL     1       2.316   7.422  19.253  0.00  0.00    +0.000 C 
ATOM     19  O   UNL     1       1.859   7.773  20.347  0.00  0.00    +0.000 OA
BRANCH  17  20
ATOM     20  C   UNL     1       3.452   5.688  17.815  0.00  0.00    +0.000 C 
BRANCH  20  21
ATOM     21  C   UNL     1       4.948   5.812  17.864  0.00  0.00    +0.000 A 
ATOM     22  C   UNL     1       5.657   6.872  17.199  0.00  0.00    +0.000 A 
ATOM     23  C   UNL     1       7.012   6.845  17.429  0.00  0.00    +0.000 A 
ATOM     24  S   UNL     1       7.461   5.532  18.423  0.00  0.00    +0.000 S 
ATOM     25  C   UNL     1       5.837   5.006  18.558  0.00  0.00    +0.000 A 
ENDBRANCH  20  21
ENDBRANCH  17  20
ENDBRANCH  15  18
ENDBRANCH   1  15
TORSDOF 4
ENDMDL
MODEL 6
REMARK VINA RESULT:      -7.0      3.008      7.731
REMARK  Name = 
REMARK  5 active torsions:
REMARK  status: ('A' for Active; 'I' for Inactive)
REMARK    1  A    between atoms: C_1  and  N_2
REMARK    2  A    between atoms: N_2  and  C_3
REMARK    3  A    between atoms: C_3  and  C_4
REMARK    4  A    between atoms: C_9  and  C_11
REMARK    5  A    between atoms: C_11  and  N_12
REMARK                            x       y       z     vdW  Elec       q    Type
REMARK                         _______ _______ _______ _____ _____    ______ ____
ROOT
ATOM      1  N   UNL     1       1.275   8.881  20.091  0.00  0.00    +0.000 N 
ATOM      2  C   UNL     1       2.019   8.146  19.216  0.00  0.00    +0.000 C 
ATOM      3  O   UNL     1       2.484   8.646  18.194  0.00  0.00    +0.000 OA
ATOM      4  N   UNL     1       2.188   6.807  19.525  0.00  0.00    +0.000 N 
ATOM      5  C   UNL     1       1.609   6.123  20.687  0.00  0.00    +0.000 C 
ATOM      6  C   UNL     1       2.296   4.800  21.038  0.00  0.00    +0.000 C 
ATOM      7  C   UNL     1       2.333   3.911  19.829  0.00  0.00    +0.000 A 
ATOM      8  C   UNL     1       2.151   2.527  19.922  0.00  0.00    +0.000 A 
ATOM      9  C   UNL     1       2.202   1.739  18.773  0.00  0.00    +0.000 A 
ATOM     10  C   UNL     1       2.450   2.326  17.533  0.00  0.00    +0.000 A 
ATOM     11  C   UNL     1       2.651   3.704  17.440  0.00  0.00    +0.000 A 
ATOM     12  C   UNL     1       2.587   4.509  18.585  0.00  0.00    +0.000 A 
ATOM     13  C   UNL     1       2.861   5.992  18.505  0.00  0.00    +0.000 C 
ATOM     14  H   UNL     1       0.987   8.503  20.977  0.00  0.00    +0.000 HD
ENDROOT
BRANCH   1  15
ATOM     15  C   UNL     1       0.902  10.260  19.827  0.00  0.00    +0.000 C 
BRANCH  15  18
ATOM     16  C   UNL     1      -1.795  12.222  21.774  0.00  0.00    +0.000 C 
ATOM     17  N   UNL     1      -0.963  11.735  20.682  0.00  0.00    +0.000 N 
ATOM     18  C   UNL     1       0.015  10.788  20.963  0.00  0.00    +0.000 C 
ATOM     19  O   UNL     1       0.142  10.299  22.091  0.00  0.00    +0.000 OA
BRANCH  17  20
ATOM     20  C   UNL     1      -1.253  12.255  19.347  0.00  0.00    +0.000 C 
BRANCH  20  21
ATOM     21  C   UNL     1      -2.391  11.558  18.658  0.00  0.00    +0.000 A 
ATOM     22  C   UNL     1      -2.208  10.365  17.879  0.00  0.00    +0.000 A 
ATOM     23  C   UNL     1      -3.386   9.847  17.394  0.00  0.00    +0.000 A 
ATOM     24  S   UNL     1      -4.729  10.799  17.844  0.00  0.00    +0.000 S 
ATOM     25  C   UNL     1      -3.735  11.899  18.699  0.00  0.00    +0.000 A 
ENDBRANCH  20  21
ENDBRANCH  17  20
ENDBRANCH  15  18
ENDBRANCH   1  15
TORSDOF 4
ENDMDL
MODEL 7
REMARK VINA RESULT:      -7.0      2.392      3.219
REMARK  Name = 
REMARK  5 active torsions:
REMARK  status: ('A' for Active; 'I' for Inactive)
REMARK    1  A    between atoms: C_1  and  N_2
REMARK    2  A    between atoms: N_2  and  C_3
REMARK    3  A    between atoms: C_3  and  C_4
REMARK    4  A    between atoms: C_9  and  C_11
REMARK    5  A    between atoms: C_11  and  N_12
REMARK                            x       y       z     vdW  Elec       q    Type
REMARK                         _______ _______ _______ _____ _____    ______ ____
ROOT
ATOM      1  N   UNL     1       2.391   6.924  20.133  0.00  0.00    +0.000 N 
ATOM      2  C   UNL     1       1.813   8.024  19.573  0.00  0.00    +0.000 C 
ATOM      3  O   UNL     1       2.053   8.352  18.412  0.00  0.00    +0.000 OA
ATOM      4  N   UNL     1       0.977   8.764  20.391  0.00  0.00    +0.000 N 
ATOM      5  C   UNL     1       0.696   8.476  21.803  0.00  0.00    +0.000 C 
ATOM      6  C   UNL     1      -0.571   9.151  22.337  0.00  0.00    +0.000 C 
ATOM      7  C   UNL     1      -0.510  10.627  22.070  0.00  0.00    +0.000 A 
ATOM      8  C   UNL     1      -0.996  11.566  22.986  0.00  0.00    +0.000 A 
ATOM      9  C   UNL     1      -0.927  12.927  22.693  0.00  0.00    +0.000 A 
ATOM     10  C   UNL     1      -0.388  13.354  21.480  0.00  0.00    +0.000 A 
ATOM     11  C   UNL     1       0.080  12.419  20.555  0.00  0.00    +0.000 A 
ATOM     12  C   UNL     1       0.030  11.049  20.845  0.00  0.00    +0.000 A 
ATOM     13  C   UNL     1       0.479  10.026  19.829  0.00  0.00    +0.000 C 
ATOM     14  H   UNL     1       2.115   6.593  21.041  0.00  0.00    +0.000 HD
ENDROOT
BRANCH   1  15
ATOM     15  C   UNL     1       3.394   6.133  19.439  0.00  0.00    +0.000 C 
BRANCH  15  18
ATOM     16  C   UNL     1       3.230   2.360  18.632  0.00  0.00    +0.000 C 
ATOM     17  N   UNL     1       3.754   3.700  18.859  0.00  0.00    +0.000 N 
ATOM     18  C   UNL     1       2.863   4.714  19.193  0.00  0.00    +0.000 C 
ATOM     19  O   UNL     1       1.661   4.490  19.375  0.00  0.00    +0.000 OA
BRANCH  17  20
ATOM     20  C   UNL     1       5.201   3.870  18.759  0.00  0.00    +0.000 C 
BRANCH  20  21
ATOM     21  C   UNL     1       5.684   4.167  17.368  0.00  0.00    +0.000 A 
ATOM     22  C   UNL     1       4.843   4.020  16.212  0.00  0.00    +0.000 A 
ATOM     23  C   UNL     1       5.453   4.413  15.044  0.00  0.00    +0.000 A 
ATOM     24  S   UNL     1       7.055   4.939  15.311  0.00  0.00    +0.000 S 
ATOM     25  C   UNL     1       6.927   4.653  16.995  0.00  0.00    +0.000 A 
ENDBRANCH  20  21
ENDBRANCH  17  20
ENDBRANCH  15  18
ENDBRANCH   1  15
TORSDOF 4
ENDMDL
MODEL 8
REMARK VINA RESULT:      -6.9      3.620      8.362
REMARK  Name = 
REMARK  5 active torsions:
REMARK  status: ('A' for Active; 'I' for Inactive)
REMARK    1  A    between atoms: C_1  and  N_2
REMARK    2  A    between atoms: N_2  and  C_3
REMARK    3  A    between atoms: C_3  and  C_4
REMARK    4  A    between atoms: C_9  and  C_11
REMARK    5  A    between atoms: C_11  and  N_12
REMARK                            x       y       z     vdW  Elec       q    Type
REMARK                         _______ _______ _______ _____ _____    ______ ____
ROOT
ATOM      1  N   UNL     1       1.344   9.139  19.645  0.00  0.00    +0.000 N 
ATOM      2  C   UNL     1       2.064   8.306  18.843  0.00  0.00    +0.000 C 
ATOM      3  O   UNL     1       2.543   8.698  17.780  0.00  0.00    +0.000 OA
ATOM      4  N   UNL     1       2.193   6.996  19.271  0.00  0.00    +0.000 N 
ATOM      5  C   UNL     1       1.595   6.438  20.490  0.00  0.00    +0.000 C 
ATOM      6  C   UNL     1       2.242   5.132  20.961  0.00  0.00    +0.000 C 
ATOM      7  C   UNL     1       2.252   4.137  19.838  0.00  0.00    +0.000 A 
ATOM      8  C   UNL     1       2.029   2.773  20.055  0.00  0.00    +0.000 A 
ATOM      9  C   UNL     1       2.056   1.883  18.983  0.00  0.00    +0.000 A 
ATOM     10  C   UNL     1       2.319   2.347  17.695  0.00  0.00    +0.000 A 
ATOM     11  C   UNL     1       2.562   3.705  17.478  0.00  0.00    +0.000 A 
ATOM     12  C   UNL     1       2.523   4.612  18.545  0.00  0.00    +0.000 A 
ATOM     13  C   UNL     1       2.841   6.072  18.331  0.00  0.00    +0.000 C 
ATOM     14  H   UNL     1       1.045   8.852  20.562  0.00  0.00    +0.000 HD
ENDROOT
BRANCH   1  15
ATOM     15  C   UNL     1       1.011  10.499  19.257  0.00  0.00    +0.000 C 
BRANCH  15  18
ATOM     16  C   UNL     1       0.507  13.561  21.556  0.00  0.00    +0.000 C 
ATOM     17  N   UNL     1       0.642  12.744  20.358  0.00  0.00    +0.000 N 
ATOM     18  C   UNL     1       0.867  11.380  20.506  0.00  0.00    +0.000 C 
ATOM     19  O   UNL     1       0.879  10.839  21.617  0.00  0.00    +0.000 OA
BRANCH  17  20
ATOM     20  C   UNL     1       0.485  13.422  19.073  0.00  0.00    +0.000 C 
BRANCH  20  21
ATOM     21  C   UNL     1       1.670  14.256  18.677  0.00  0.00    +0.000 A 
ATOM     22  C   UNL     1       1.641  15.693  18.691  0.00  0.00    +0.000 A 
ATOM     23  C   UNL     1       2.849  16.263  18.365  0.00  0.00    +0.000 A 
ATOM     24  S   UNL     1       4.031  15.084  18.011  0.00  0.00    +0.000 S 
ATOM     25  C   UNL     1       2.928  13.808  18.307  0.00  0.00    +0.000 A 
ENDBRANCH  20  21
ENDBRANCH  17  20
ENDBRANCH  15  18
ENDBRANCH   1  15
TORSDOF 4
ENDMDL
MODEL 9
REMARK VINA RESULT:      -6.9      2.670      7.844
REMARK  Name = 
REMARK  5 active torsions:
REMARK  status: ('A' for Active; 'I' for Inactive)
REMARK    1  A    between atoms: C_1  and  N_2
REMARK    2  A    between atoms: N_2  and  C_3
REMARK    3  A    between atoms: C_3  and  C_4
REMARK    4  A    between atoms: C_9  and  C_11
REMARK    5  A    between atoms: C_11  and  N_12
REMARK                            x       y       z     vdW  Elec       q    Type
REMARK                         _______ _______ _______ _____ _____    ______ ____
ROOT
ATOM      1  N   UNL     1       1.229   9.290  19.284  0.00  0.00    +0.000 N 
ATOM      2  C   UNL     1       1.956   8.428  18.518  0.00  0.00    +0.000 C 
ATOM      3  O   UNL     1       2.396   8.764  17.420  0.00  0.00    +0.000 OA
ATOM      4  N   UNL     1       2.139   7.154  19.028  0.00  0.00    +0.000 N 
ATOM      5  C   UNL     1       1.589   6.659  20.296  0.00  0.00    +0.000 C 
ATOM      6  C   UNL     1       2.291   5.408  20.833  0.00  0.00    +0.000 C 
ATOM      7  C   UNL     1       2.305   4.342  19.777  0.00  0.00    +0.000 A 
ATOM      8  C   UNL     1       2.133   2.989  20.088  0.00  0.00    +0.000 A 
ATOM      9  C   UNL     1       2.162   2.031  19.076  0.00  0.00    +0.000 A 
ATOM     10  C   UNL     1       2.379   2.418  17.754  0.00  0.00    +0.000 A 
ATOM     11  C   UNL     1       2.572   3.765  17.443  0.00  0.00    +0.000 A 
ATOM     12  C   UNL     1       2.529   4.738  18.450  0.00  0.00    +0.000 A 
ATOM     13  C   UNL     1       2.793   6.191  18.133  0.00  0.00    +0.000 C 
ATOM     14  H   UNL     1       0.962   9.055  20.224  0.00  0.00    +0.000 HD
ENDROOT
BRANCH   1  15
ATOM     15  C   UNL     1       0.842  10.610  18.817  0.00  0.00    +0.000 C 
BRANCH  15  18
ATOM     16  C   UNL     1      -2.825  11.485  17.976  0.00  0.00    +0.000 C 
ATOM     17  N   UNL     1      -1.490  11.549  18.555  0.00  0.00    +0.000 N 
ATOM     18  C   UNL     1      -0.571  10.561  18.219  0.00  0.00    +0.000 C 
ATOM     19  O   UNL     1      -0.834   9.683  17.389  0.00  0.00    +0.000 OA
BRANCH  17  20
ATOM     20  C   UNL     1      -1.200  12.687  19.425  0.00  0.00    +0.000 C 
BRANCH  20  21
ATOM     21  C   UNL     1      -1.747  12.543  20.816  0.00  0.00    +0.000 A 
ATOM     22  C   UNL     1      -3.021  13.083  21.204  0.00  0.00    +0.000 A 
ATOM     23  C   UNL     1      -3.368  12.779  22.500  0.00  0.00    +0.000 A 
ATOM     24  S   UNL     1      -2.157  11.863  23.281  0.00  0.00    +0.000 S 
ATOM     25  C   UNL     1      -1.174  11.862  21.879  0.00  0.00    +0.000 A 
ENDBRANCH  20  21
ENDBRANCH  17  20
ENDBRANCH  15  18
ENDBRANCH   1  15
TORSDOF 4
ENDMDL
