MODEL 1
REMARK VINA RESULT:      -6.7      0.000      0.000
REMARK  Name = 
REMARK  4 active torsions:
REMARK  status: ('A' for Active; 'I' for Inactive)
REMARK    1  A    between atoms: N_18  and  C_19
REMARK    2  A    between atoms: C_19  and  C_20
REMARK    3  A    between atoms: C_20  and  C_21
REMARK    4  A    between atoms: C_21  and  O_22
REMARK                            x       y       z     vdW  Elec       q    Type
REMARK                         _______ _______ _______ _____ _____    ______ ____
ROOT
ATOM      1  O   UNL     1      -7.481  12.294  17.634  0.00  0.00    +0.000 OA
ATOM      2  C   UNL     1      -6.318  11.955  17.835  0.00  0.00    +0.000 C 
ATOM      3  N   UNL     1      -5.424  11.654  16.807  0.00  0.00    +0.000 N 
ATOM      4  C   UNL     1      -4.040  11.450  17.175  0.00  0.00    +0.000 C 
ATOM      5  C   UNL     1      -4.141  11.765  18.596  0.00  0.00    +0.000 A 
ATOM      6  C   UNL     1      -5.503  12.020  19.043  0.00  0.00    +0.000 A 
ATOM      7  C   UNL     1      -5.707  12.708  20.256  0.00  0.00    +0.000 A 
ATOM      8  C   UNL     1      -4.707  13.685  20.329  0.00  0.00    +0.000 A 
ATOM      9  C   UNL     1      -3.469  13.135  20.420  0.00  0.00    +0.000 A 
ATOM     10  C   UNL     1      -3.118  12.215  19.472  0.00  0.00    +0.000 A 
ATOM     11  C   UNL     1      -1.922  11.587  19.701  0.00  0.00    +0.000 A 
ATOM     12  C   UNL     1      -1.034  10.756  18.998  0.00  0.00    +0.000 A 
ATOM     13  C   UNL     1       0.100  10.286  19.658  0.00  0.00    +0.000 A 
ATOM     14 BR   UNL     1       1.408   9.327  18.685  0.00  0.00    +0.000 Br
ATOM     15  C   UNL     1       0.302  10.527  21.010  0.00  0.00    +0.000 A 
ATOM     16  C   UNL     1      -0.598  11.301  21.742  0.00  0.00    +0.000 A 
ATOM     17  C   UNL     1      -1.685  11.879  21.070  0.00  0.00    +0.000 A 
ATOM     18  N   UNL     1      -2.752  12.669  21.535  0.00  0.00    +0.000 N 
ATOM     19  C   UNL     1      -5.297  14.985  20.648  0.00  0.00    +0.000 C 
ATOM     20  C   UNL     1      -6.273  14.486  21.675  0.00  0.00    +0.000 A 
ATOM     21  C   UNL     1      -6.245  15.049  22.952  0.00  0.00    +0.000 A 
ATOM     22  C   UNL     1      -6.444  14.206  24.028  0.00  0.00    +0.000 A 
ATOM     23  C   UNL     1      -6.773  12.857  23.798  0.00  0.00    +0.000 A 
ATOM     24  C   UNL     1      -6.873  12.316  22.481  0.00  0.00    +0.000 A 
ATOM     25  C   UNL     1      -6.592  13.115  21.359  0.00  0.00    +0.000 A 
ATOM     26  H   UNL     1      -5.680  11.936  15.873  0.00  0.00    +0.000 HD
ENDROOT
BRANCH  18  27
ATOM     27  C   UNL     1      -3.394  12.549  22.845  0.00  0.00    +0.000 C 
BRANCH  27  28
ATOM     28  C   UNL     1      -3.052  13.479  24.004  0.00  0.00    +0.000 C 
BRANCH  28  29
ATOM     29  C   UNL     1      -2.150  14.624  23.574  0.00  0.00    +0.000 C 
BRANCH  29  30
ATOM     30  O   UNL     1      -0.805  14.316  23.906  0.00  0.00    +0.000 OA
ATOM     31  H   UNL     1      -0.589  14.785  24.729  0.00  0.00    +0.000 HD
ENDBRANCH  29  30
ENDBRANCH  28  29
ENDBRANCH  27  28
ENDBRANCH  18  27
TORSDOF 4
ENDMDL
MODEL 2
REMARK VINA RESULT:      -6.6      2.266      4.973
REMARK  Name = 
REMARK  4 active torsions:
REMARK  status: ('A' for Active; 'I' for Inactive)
REMARK    1  A    between atoms: N_18  and  C_19
REMARK    2  A    between atoms: C_19  and  C_20
REMARK    3  A    between atoms: C_20  and  C_21
REMARK    4  A    between atoms: C_21  and  O_22
REMARK                            x       y       z     vdW  Elec       q    Type
REMARK                         _______ _______ _______ _____ _____    ______ ____
ROOT
ATOM      1  O   UNL     1       1.725  13.946  21.943  0.00  0.00    +0.000 OA
ATOM      2  C   UNL     1       1.040  13.458  21.049  0.00  0.00    +0.000 C 
ATOM      3  N   UNL     1       1.532  12.522  20.137  0.00  0.00    +0.000 N 
ATOM      4  C   UNL     1       0.573  11.893  19.255  0.00  0.00    +0.000 C 
ATOM      5  C   UNL     1      -0.646  12.484  19.798  0.00  0.00    +0.000 A 
ATOM      6  C   UNL     1      -0.404  13.471  20.840  0.00  0.00    +0.000 A 
ATOM      7  C   UNL     1      -1.457  13.820  21.709  0.00  0.00    +0.000 A 
ATOM      8  C   UNL     1      -2.173  12.643  21.954  0.00  0.00    +0.000 A 
ATOM      9  C   UNL     1      -2.765  12.168  20.829  0.00  0.00    +0.000 A 
ATOM     10  C   UNL     1      -1.972  11.980  19.732  0.00  0.00    +0.000 A 
ATOM     11  C   UNL     1      -2.649  11.645  18.588  0.00  0.00    +0.000 A 
ATOM     12  C   UNL     1      -2.343  11.170  17.302  0.00  0.00    +0.000 A 
ATOM     13  C   UNL     1      -3.385  11.001  16.392  0.00  0.00    +0.000 A 
ATOM     14 BR   UNL     1      -3.033  10.183  14.723  0.00  0.00    +0.000 Br
ATOM     15  C   UNL     1      -4.681  11.396  16.693  0.00  0.00    +0.000 A 
ATOM     16  C   UNL     1      -4.996  11.925  17.944  0.00  0.00    +0.000 A 
ATOM     17  C   UNL     1      -3.985  11.997  18.915  0.00  0.00    +0.000 A 
ATOM     18  N   UNL     1      -3.993  12.498  20.230  0.00  0.00    +0.000 N 
ATOM     19  C   UNL     1      -2.374  12.468  23.393  0.00  0.00    +0.000 C 
ATOM     20  C   UNL     1      -2.691  13.904  23.700  0.00  0.00    +0.000 A 
ATOM     21  C   UNL     1      -3.892  14.199  24.349  0.00  0.00    +0.000 A 
ATOM     22  C   UNL     1      -4.573  15.332  23.949  0.00  0.00    +0.000 A 
ATOM     23  C   UNL     1      -3.989  16.191  23.000  0.00  0.00    +0.000 A 
ATOM     24  C   UNL     1      -2.723  15.913  22.404  0.00  0.00    +0.000 A 
ATOM     25  C   UNL     1      -2.034  14.727  22.714  0.00  0.00    +0.000 A 
ATOM     26  H   UNL     1       2.409  12.076  20.358  0.00  0.00    +0.000 HD
ENDROOT
BRANCH  18  27
ATOM     27  C   UNL     1      -4.779  13.638  20.703  0.00  0.00    +0.000 C 
BRANCH  27  28
ATOM     28  C   UNL     1      -6.299  13.589  20.804  0.00  0.00    +0.000 C 
BRANCH  28  29
ATOM     29  C   UNL     1      -6.787  12.332  21.506  0.00  0.00    +0.000 C 
BRANCH  29  30
ATOM     30  O   UNL     1      -6.059  12.150  22.710  0.00  0.00    +0.000 OA
ATOM     31  H   UNL     1      -5.160  12.491  22.567  0.00  0.00    +0.000 HD
ENDBRANCH  29  30
ENDBRANCH  28  29
ENDBRANCH  27  28
ENDBRANCH  18  27
TORSDOF 4
ENDMDL
MODEL 3
REMARK VINA RESULT:      -6.5      1.109      1.166
REMARK  Name = 
REMARK  4 active torsions:
REMARK  status: ('A' for Active; 'I' for Inactive)
REMARK    1  A    between atoms: N_18  and  C_19
REMARK    2  A    between atoms: C_19  and  C_20
REMARK    3  A    between atoms: C_20  and  C_21
REMARK    4  A    between atoms: C_21  and  O_22
REMARK                            x       y       z     vdW  Elec       q    Type
REMARK                         _______ _______ _______ _____ _____    ______ ____
ROOT
ATOM      1  O   UNL     1      -6.631  12.723  17.188  0.00  0.00    +0.000 OA
ATOM      2  C   UNL     1      -5.590  12.295  17.680  0.00  0.00    +0.000 C 
ATOM      3  N   UNL     1      -4.470  11.956  16.920  0.00  0.00    +0.000 N 
ATOM      4  C   UNL     1      -3.254  11.643  17.640  0.00  0.00    +0.000 C 
ATOM      5  C   UNL     1      -3.720  11.928  18.993  0.00  0.00    +0.000 A 
ATOM      6  C   UNL     1      -5.133  12.270  19.065  0.00  0.00    +0.000 A 
ATOM      7  C   UNL     1      -5.617  12.940  20.207  0.00  0.00    +0.000 A 
ATOM      8  C   UNL     1      -4.615  13.840  20.591  0.00  0.00    +0.000 A 
ATOM      9  C   UNL     1      -3.486  13.200  20.989  0.00  0.00    +0.000 A 
ATOM     10  C   UNL     1      -2.948  12.282  20.132  0.00  0.00    +0.000 A 
ATOM     11  C   UNL     1      -1.902  11.562  20.648  0.00  0.00    +0.000 A 
ATOM     12  C   UNL     1      -0.910  10.687  20.175  0.00  0.00    +0.000 A 
ATOM     13  C   UNL     1      -0.031  10.120  21.096  0.00  0.00    +0.000 A 
ATOM     14 BR   UNL     1       1.430   9.093  20.472  0.00  0.00    +0.000 Br
ATOM     15  C   UNL     1      -0.191  10.312  22.462  0.00  0.00    +0.000 A 
ATOM     16  C   UNL     1      -1.206  11.130  22.956  0.00  0.00    +0.000 A 
ATOM     17  C   UNL     1      -2.030  11.803  22.041  0.00  0.00    +0.000 A 
ATOM     18  N   UNL     1      -3.131  12.656  22.235  0.00  0.00    +0.000 N 
ATOM     19  C   UNL     1      -5.187  15.172  20.795  0.00  0.00    +0.000 C 
ATOM     20  C   UNL     1      -6.436  14.719  21.497  0.00  0.00    +0.000 A 
ATOM     21  C   UNL     1      -6.722  15.246  22.757  0.00  0.00    +0.000 A 
ATOM     22  C   UNL     1      -7.259  14.393  23.701  0.00  0.00    +0.000 A 
ATOM     23  C   UNL     1      -7.597  13.078  23.332  0.00  0.00    +0.000 A 
ATOM     24  C   UNL     1      -7.368  12.579  22.015  0.00  0.00    +0.000 A 
ATOM     25  C   UNL     1      -6.742  13.382  21.046  0.00  0.00    +0.000 A 
ATOM     26  H   UNL     1      -4.443  12.279  15.965  0.00  0.00    +0.000 HD
ENDROOT
BRANCH  18  27
ATOM     27  C   UNL     1      -4.113  12.550  23.316  0.00  0.00    +0.000 C 
BRANCH  27  28
ATOM     28  C   UNL     1      -3.853  13.122  24.705  0.00  0.00    +0.000 C 
BRANCH  28  29
ATOM     29  C   UNL     1      -3.167  14.477  24.649  0.00  0.00    +0.000 C 
BRANCH  29  30
ATOM     30  O   UNL     1      -4.084  15.487  25.041  0.00  0.00    +0.000 OA
ATOM     31  H   UNL     1      -4.977  15.106  25.004  0.00  0.00    +0.000 HD
ENDBRANCH  29  30
ENDBRANCH  28  29
ENDBRANCH  27  28
ENDBRANCH  18  27
TORSDOF 4
ENDMDL
MODEL 4
REMARK VINA RESULT:      -6.5      9.731     13.301
REMARK  Name = 
REMARK  4 active torsions:
REMARK  status: ('A' for Active; 'I' for Inactive)
REMARK    1  A    between atoms: N_18  and  C_19
REMARK    2  A    between atoms: C_19  and  C_20
REMARK    3  A    between atoms: C_20  and  C_21
REMARK    4  A    between atoms: C_21  and  O_22
REMARK                            x       y       z     vdW  Elec       q    Type
REMARK                         _______ _______ _______ _____ _____    ______ ____
ROOT
ATOM      1  O   UNL     1       8.044  11.279  24.584  0.00  0.00    +0.000 OA
ATOM      2  C   UNL     1       7.330  12.040  23.937  0.00  0.00    +0.000 C 
ATOM      3  N   UNL     1       6.371  12.868  24.523  0.00  0.00    +0.000 N 
ATOM      4  C   UNL     1       5.732  13.845  23.668  0.00  0.00    +0.000 C 
ATOM      5  C   UNL     1       6.494  13.602  22.448  0.00  0.00    +0.000 A 
ATOM      6  C   UNL     1       7.426  12.489  22.552  0.00  0.00    +0.000 A 
ATOM      7  C   UNL     1       8.482  12.391  21.624  0.00  0.00    +0.000 A 
ATOM      8  C   UNL     1       8.914  13.700  21.378  0.00  0.00    +0.000 A 
ATOM      9  C   UNL     1       7.955  14.443  20.771  0.00  0.00    +0.000 A 
ATOM     10  C   UNL     1       6.725  14.490  21.364  0.00  0.00    +0.000 A 
ATOM     11  C   UNL     1       5.761  15.129  20.629  0.00  0.00    +0.000 A 
ATOM     12  C   UNL     1       4.458  15.616  20.826  0.00  0.00    +0.000 A 
ATOM     13  C   UNL     1       3.791  16.185  19.742  0.00  0.00    +0.000 A 
ATOM     14 BR   UNL     1       2.117  17.020  20.020  0.00  0.00    +0.000 Br
ATOM     15  C   UNL     1       4.340  16.175  18.468  0.00  0.00    +0.000 A 
ATOM     16  C   UNL     1       5.609  15.644  18.239  0.00  0.00    +0.000 A 
ATOM     17  C   UNL     1       6.345  15.170  19.336  0.00  0.00    +0.000 A 
ATOM     18  N   UNL     1       7.613  14.565  19.413  0.00  0.00    +0.000 N 
ATOM     19  C   UNL     1      10.369  13.782  21.515  0.00  0.00    +0.000 C 
ATOM     20  C   UNL     1      10.682  12.487  20.819  0.00  0.00    +0.000 A 
ATOM     21  C   UNL     1      11.555  12.508  19.730  0.00  0.00    +0.000 A 
ATOM     22  C   UNL     1      11.263  11.683  18.661  0.00  0.00    +0.000 A 
ATOM     23  C   UNL     1      10.183  10.787  18.754  0.00  0.00    +0.000 A 
ATOM     24  C   UNL     1       9.347  10.725  19.908  0.00  0.00    +0.000 A 
ATOM     25  C   UNL     1       9.550  11.607  20.984  0.00  0.00    +0.000 A 
ATOM     26  H   UNL     1       6.421  13.001  25.521  0.00  0.00    +0.000 HD
ENDROOT
BRANCH  18  27
ATOM     27  C   UNL     1       8.197  13.677  18.407  0.00  0.00    +0.000 C 
BRANCH  27  28
ATOM     28  C   UNL     1       9.323  14.127  17.484  0.00  0.00    +0.000 C 
BRANCH  28  29
ATOM     29  C   UNL     1       9.874  15.490  17.873  0.00  0.00    +0.000 C 
BRANCH  29  30
ATOM     30  O   UNL     1      10.004  16.295  16.712  0.00  0.00    +0.000 OA
ATOM     31  H   UNL     1       9.319  16.983  16.750  0.00  0.00    +0.000 HD
ENDBRANCH  29  30
ENDBRANCH  28  29
ENDBRANCH  27  28
ENDBRANCH  18  27
TORSDOF 4
ENDMDL
MODEL 5
REMARK VINA RESULT:      -6.5      2.311      5.247
REMARK  Name = 
REMARK  4 active torsions:
REMARK  status: ('A' for Active; 'I' for Inactive)
REMARK    1  A    between atoms: N_18  and  C_19
REMARK    2  A    between atoms: C_19  and  C_20
REMARK    3  A    between atoms: C_20  and  C_21
REMARK    4  A    between atoms: C_21  and  O_22
REMARK                            x       y       z     vdW  Elec       q    Type
REMARK                         _______ _______ _______ _____ _____    ______ ____
ROOT
ATOM      1  O   UNL     1       2.469  13.449  21.203  0.00  0.00    +0.000 OA
ATOM      2  C   UNL     1       1.662  13.007  20.390  0.00  0.00    +0.000 C 
ATOM      3  N   UNL     1       1.990  12.041  19.437  0.00  0.00    +0.000 N 
ATOM      4  C   UNL     1       0.904  11.476  18.668  0.00  0.00    +0.000 C 
ATOM      5  C   UNL     1      -0.209  12.147  19.333  0.00  0.00    +0.000 A 
ATOM      6  C   UNL     1       0.208  13.115  20.336  0.00  0.00    +0.000 A 
ATOM      7  C   UNL     1      -0.721  13.534  21.310  0.00  0.00    +0.000 A 
ATOM      8  C   UNL     1      -1.483  12.406  21.639  0.00  0.00    +0.000 A 
ATOM      9  C   UNL     1      -2.221  11.971  20.587  0.00  0.00    +0.000 A 
ATOM     10  C   UNL     1      -1.565  11.731  19.413  0.00  0.00    +0.000 A 
ATOM     11  C   UNL     1      -2.381  11.441  18.351  0.00  0.00    +0.000 A 
ATOM     12  C   UNL     1      -2.246  10.946  17.043  0.00  0.00    +0.000 A 
ATOM     13  C   UNL     1      -3.388  10.846  16.250  0.00  0.00    +0.000 A 
ATOM     14 BR   UNL     1      -3.271  10.007  14.559  0.00  0.00    +0.000 Br
ATOM     15  C   UNL     1      -4.615  11.326  16.685  0.00  0.00    +0.000 A 
ATOM     16  C   UNL     1      -4.759  11.875  17.959  0.00  0.00    +0.000 A 
ATOM     17  C   UNL     1      -3.648  11.880  18.816  0.00  0.00    +0.000 A 
ATOM     18  N   UNL     1      -3.482  12.381  20.120  0.00  0.00    +0.000 N 
ATOM     19  C   UNL     1      -1.540  12.245  23.093  0.00  0.00    +0.000 C 
ATOM     20  C   UNL     1      -1.727  13.699  23.422  0.00  0.00    +0.000 A 
ATOM     21  C   UNL     1      -2.829  14.073  24.193  0.00  0.00    +0.000 A 
ATOM     22  C   UNL     1      -3.474  15.248  23.859  0.00  0.00    +0.000 A 
ATOM     23  C   UNL     1      -2.940  16.067  22.847  0.00  0.00    +0.000 A 
ATOM     24  C   UNL     1      -1.766  15.705  22.121  0.00  0.00    +0.000 A 
ATOM     25  C   UNL     1      -1.127  14.477  22.365  0.00  0.00    +0.000 A 
ATOM     26  H   UNL     1       2.855  11.538  19.567  0.00  0.00    +0.000 HD
ENDROOT
BRANCH  18  27
ATOM     27  C   UNL     1      -4.136  13.571  20.667  0.00  0.00    +0.000 C 
BRANCH  27  28
ATOM     28  C   UNL     1      -5.561  13.536  21.207  0.00  0.00    +0.000 C 
BRANCH  28  29
ATOM     29  C   UNL     1      -6.539  14.261  20.296  0.00  0.00    +0.000 C 
BRANCH  29  30
ATOM     30  O   UNL     1      -5.819  14.972  19.302  0.00  0.00    +0.000 OA
ATOM     31  H   UNL     1      -6.381  15.025  18.511  0.00  0.00    +0.000 HD
ENDBRANCH  29  30
ENDBRANCH  28  29
ENDBRANCH  27  28
ENDBRANCH  18  27
TORSDOF 4
ENDMDL
MODEL 6
REMARK VINA RESULT:      -6.1      7.589     11.976
REMARK  Name = 
REMARK  4 active torsions:
REMARK  status: ('A' for Active; 'I' for Inactive)
REMARK    1  A    between atoms: N_18  and  C_19
REMARK    2  A    between atoms: C_19  and  C_20
REMARK    3  A    between atoms: C_20  and  C_21
REMARK    4  A    between atoms: C_21  and  O_22
REMARK                            x       y       z     vdW  Elec       q    Type
REMARK                         _______ _______ _______ _____ _____    ______ ____
ROOT
ATOM      1  O   UNL     1       2.372   1.524  19.341  0.00  0.00    +0.000 OA
ATOM      2  C   UNL     1       2.033   2.703  19.403  0.00  0.00    +0.000 C 
ATOM      3  N   UNL     1       1.184   3.202  20.392  0.00  0.00    +0.000 N 
ATOM      4  C   UNL     1       1.017   4.637  20.456  0.00  0.00    +0.000 C 
ATOM      5  C   UNL     1       1.970   5.016  19.419  0.00  0.00    +0.000 A 
ATOM      6  C   UNL     1       2.561   3.882  18.724  0.00  0.00    +0.000 A 
ATOM      7  C   UNL     1       3.756   4.070  18.000  0.00  0.00    +0.000 A 
ATOM      8  C   UNL     1       4.529   4.972  18.741  0.00  0.00    +0.000 A 
ATOM      9  C   UNL     1       3.946   6.195  18.817  0.00  0.00    +0.000 A 
ATOM     10  C   UNL     1       2.656   6.251  19.264  0.00  0.00    +0.000 A 
ATOM     11  C   UNL     1       2.074   7.488  19.175  0.00  0.00    +0.000 A 
ATOM     12  C   UNL     1       0.914   8.126  19.644  0.00  0.00    +0.000 A 
ATOM     13  C   UNL     1       0.679   9.445  19.260  0.00  0.00    +0.000 A 
ATOM     14 BR   UNL     1      -0.768  10.390  20.027  0.00  0.00    +0.000 Br
ATOM     15  C   UNL     1       1.500  10.089  18.345  0.00  0.00    +0.000 A 
ATOM     16  C   UNL     1       2.626   9.453  17.821  0.00  0.00    +0.000 A 
ATOM     17  C   UNL     1       2.944   8.167  18.282  0.00  0.00    +0.000 A 
ATOM     18  N   UNL     1       3.978   7.282  17.926  0.00  0.00    +0.000 N 
ATOM     19  C   UNL     1       5.886   4.449  18.908  0.00  0.00    +0.000 C 
ATOM     20  C   UNL     1       6.044   3.923  17.510  0.00  0.00    +0.000 A 
ATOM     21  C   UNL     1       7.132   4.359  16.752  0.00  0.00    +0.000 A 
ATOM     22  C   UNL     1       6.920   4.598  15.408  0.00  0.00    +0.000 A 
ATOM     23  C   UNL     1       5.670   4.294  14.840  0.00  0.00    +0.000 A 
ATOM     24  C   UNL     1       4.591   3.776  15.616  0.00  0.00    +0.000 A 
ATOM     25  C   UNL     1       4.732   3.599  17.004  0.00  0.00    +0.000 A 
ATOM     26  H   UNL     1       1.023   2.621  21.200  0.00  0.00    +0.000 HD
ENDROOT
BRANCH  18  27
ATOM     27  C   UNL     1       4.561   7.143  16.591  0.00  0.00    +0.000 C 
BRANCH  27  28
ATOM     28  C   UNL     1       5.978   7.606  16.273  0.00  0.00    +0.000 C 
BRANCH  28  29
ATOM     29  C   UNL     1       6.809   7.816  17.529  0.00  0.00    +0.000 C 
BRANCH  29  30
ATOM     30  O   UNL     1       8.169   7.999  17.171  0.00  0.00    +0.000 OA
ATOM     31  H   UNL     1       8.493   8.791  17.633  0.00  0.00    +0.000 HD
ENDBRANCH  29  30
ENDBRANCH  28  29
ENDBRANCH  27  28
ENDBRANCH  18  27
TORSDOF 4
ENDMDL
MODEL 7
REMARK VINA RESULT:      -6.0      1.200      1.452
REMARK  Name = 
REMARK  4 active torsions:
REMARK  status: ('A' for Active; 'I' for Inactive)
REMARK    1  A    between atoms: N_18  and  C_19
REMARK    2  A    between atoms: C_19  and  C_20
REMARK    3  A    between atoms: C_20  and  C_21
REMARK    4  A    between atoms: C_21  and  O_22
REMARK                            x       y       z     vdW  Elec       q    Type
REMARK                         _______ _______ _______ _____ _____    ______ ____
ROOT
ATOM      1  O   UNL     1      -5.445  12.464  16.867  0.00  0.00    +0.000 OA
ATOM      2  C   UNL     1      -4.504  11.919  17.437  0.00  0.00    +0.000 C 
ATOM      3  N   UNL     1      -3.418  11.364  16.758  0.00  0.00    +0.000 N 
ATOM      4  C   UNL     1      -2.296  10.921  17.557  0.00  0.00    +0.000 C 
ATOM      5  C   UNL     1      -2.768  11.365  18.864  0.00  0.00    +0.000 A 
ATOM      6  C   UNL     1      -4.113  11.920  18.843  0.00  0.00    +0.000 A 
ATOM      7  C   UNL     1      -4.536  12.731  19.916  0.00  0.00    +0.000 A 
ATOM      8  C   UNL     1      -3.424  13.494  20.295  0.00  0.00    +0.000 A 
ATOM      9  C   UNL     1      -2.425  12.719  20.789  0.00  0.00    +0.000 A 
ATOM     10  C   UNL     1      -1.999  11.674  20.018  0.00  0.00    +0.000 A 
ATOM     11  C   UNL     1      -1.099  10.842  20.630  0.00  0.00    +0.000 A 
ATOM     12  C   UNL     1      -0.234   9.798  20.263  0.00  0.00    +0.000 A 
ATOM     13  C   UNL     1       0.508   9.168  21.261  0.00  0.00    +0.000 A 
ATOM     14 BR   UNL     1       1.818   7.893  20.777  0.00  0.00    +0.000 Br
ATOM     15  C   UNL     1       0.323   9.474  22.602  0.00  0.00    +0.000 A 
ATOM     16  C   UNL     1      -0.574  10.468  22.993  0.00  0.00    +0.000 A 
ATOM     17  C   UNL     1      -1.246  11.193  21.998  0.00  0.00    +0.000 A 
ATOM     18  N   UNL     1      -2.210  12.214  22.083  0.00  0.00    +0.000 N 
ATOM     19  C   UNL     1      -3.793  14.907  20.388  0.00  0.00    +0.000 C 
ATOM     20  C   UNL     1      -5.124  14.696  21.051  0.00  0.00    +0.000 A 
ATOM     21  C   UNL     1      -5.378  15.346  22.261  0.00  0.00    +0.000 A 
ATOM     22  C   UNL     1      -6.079  14.649  23.226  0.00  0.00    +0.000 A 
ATOM     23  C   UNL     1      -6.599  13.378  22.920  0.00  0.00    +0.000 A 
ATOM     24  C   UNL     1      -6.395  12.762  21.650  0.00  0.00    +0.000 A 
ATOM     25  C   UNL     1      -5.613  13.394  20.667  0.00  0.00    +0.000 A 
ATOM     26  H   UNL     1      -3.302  11.614  15.788  0.00  0.00    +0.000 HD
ENDROOT
BRANCH  18  27
ATOM     27  C   UNL     1      -3.240  12.331  23.116  0.00  0.00    +0.000 C 
BRANCH  27  28
ATOM     28  C   UNL     1      -3.068  13.231  24.334  0.00  0.00    +0.000 C 
BRANCH  28  29
ATOM     29  C   UNL     1      -2.351  14.527  23.993  0.00  0.00    +0.000 C 
BRANCH  29  30
ATOM     30  O   UNL     1      -0.957  14.365  24.205  0.00  0.00    +0.000 OA
ATOM     31  H   UNL     1      -0.838  13.650  24.852  0.00  0.00    +0.000 HD
ENDBRANCH  29  30
ENDBRANCH  28  29
ENDBRANCH  27  28
ENDBRANCH  18  27
TORSDOF 4
ENDMDL
MODEL 8
REMARK VINA RESULT:      -5.9     12.168     14.025
REMARK  Name = 
REMARK  4 active torsions:
REMARK  status: ('A' for Active; 'I' for Inactive)
REMARK    1  A    between atoms: N_18  and  C_19
REMARK    2  A    between atoms: C_19  and  C_20
REMARK    3  A    between atoms: C_20  and  C_21
REMARK    4  A    between atoms: C_21  and  O_22
REMARK                            x       y       z     vdW  Elec       q    Type
REMARK                         _______ _______ _______ _____ _____    ______ ____
ROOT
ATOM      1  O   UNL     1      10.359  11.709  17.413  0.00  0.00    +0.000 OA
ATOM      2  C   UNL     1       9.883  11.764  18.544  0.00  0.00    +0.000 C 
ATOM      3  N   UNL     1       9.825  10.663  19.400  0.00  0.00    +0.000 N 
ATOM      4  C   UNL     1       9.410  10.910  20.764  0.00  0.00    +0.000 C 
ATOM      5  C   UNL     1       9.301  12.363  20.702  0.00  0.00    +0.000 A 
ATOM      6  C   UNL     1       9.524  12.910  19.372  0.00  0.00    +0.000 A 
ATOM      7  C   UNL     1       9.840  14.277  19.238  0.00  0.00    +0.000 A 
ATOM      8  C   UNL     1      10.668  14.599  20.321  0.00  0.00    +0.000 A 
ATOM      9  C   UNL     1      10.017  14.484  21.506  0.00  0.00    +0.000 A 
ATOM     10  C   UNL     1       9.390  13.298  21.768  0.00  0.00    +0.000 A 
ATOM     11  C   UNL     1       8.627  13.294  22.906  0.00  0.00    +0.000 A 
ATOM     12  C   UNL     1       7.970  12.350  23.712  0.00  0.00    +0.000 A 
ATOM     13  C   UNL     1       7.236  12.807  24.806  0.00  0.00    +0.000 A 
ATOM     14 BR   UNL     1       6.501  11.554  26.017  0.00  0.00    +0.000 Br
ATOM     15  C   UNL     1       7.053  14.163  25.039  0.00  0.00    +0.000 A 
ATOM     16  C   UNL     1       7.648  15.118  24.216  0.00  0.00    +0.000 A 
ATOM     17  C   UNL     1       8.485  14.680  23.178  0.00  0.00    +0.000 A 
ATOM     18  N   UNL     1       9.188  15.391  22.189  0.00  0.00    +0.000 N 
ATOM     19  C   UNL     1      11.861  15.302  19.849  0.00  0.00    +0.000 C 
ATOM     20  C   UNL     1      11.164  16.171  18.841  0.00  0.00    +0.000 A 
ATOM     21  C   UNL     1      11.324  17.555  18.928  0.00  0.00    +0.000 A 
ATOM     22  C   UNL     1      10.221  18.344  18.665  0.00  0.00    +0.000 A 
ATOM     23  C   UNL     1       9.031  17.743  18.218  0.00  0.00    +0.000 A 
ATOM     24  C   UNL     1       8.910  16.330  18.060  0.00  0.00    +0.000 A 
ATOM     25  C   UNL     1       9.976  15.480  18.401  0.00  0.00    +0.000 A 
ATOM     26  H   UNL     1      10.388   9.861  19.163  0.00  0.00    +0.000 HD
ENDROOT
BRANCH  18  27
ATOM     27  C   UNL     1       8.742  16.630  21.549  0.00  0.00    +0.000 C 
BRANCH  27  28
ATOM     28  C   UNL     1       7.272  16.904  21.251  0.00  0.00    +0.000 C 
BRANCH  28  29
ATOM     29  C   UNL     1       6.988  18.387  21.077  0.00  0.00    +0.000 C 
BRANCH  29  30
ATOM     30  O   UNL     1       5.981  18.562  20.093  0.00  0.00    +0.000 OA
ATOM     31  H   UNL     1       6.389  18.419  19.223  0.00  0.00    +0.000 HD
ENDBRANCH  29  30
ENDBRANCH  28  29
ENDBRANCH  27  28
ENDBRANCH  18  27
TORSDOF 4
ENDMDL
MODEL 9
REMARK VINA RESULT:      -5.9      2.001      4.986
REMARK  Name = 
REMARK  4 active torsions:
REMARK  status: ('A' for Active; 'I' for Inactive)
REMARK    1  A    between atoms: N_18  and  C_19
REMARK    2  A    between atoms: C_19  and  C_20
REMARK    3  A    between atoms: C_20  and  C_21
REMARK    4  A    between atoms: C_21  and  O_22
REMARK                            x       y       z     vdW  Elec       q    Type
REMARK                         _______ _______ _______ _____ _____    ______ ____
ROOT
ATOM      1  O   UNL     1      -0.465  14.598  23.484  0.00  0.00    +0.000 OA
ATOM      2  C   UNL     1      -0.852  14.035  22.463  0.00  0.00    +0.000 C 
ATOM      3  N   UNL     1      -0.129  13.023  21.830  0.00  0.00    +0.000 N 
ATOM      4  C   UNL     1      -0.784  12.322  20.747  0.00  0.00    +0.000 C 
ATOM      5  C   UNL     1      -2.093  12.961  20.832  0.00  0.00    +0.000 A 
ATOM      6  C   UNL     1      -2.158  14.034  21.813  0.00  0.00    +0.000 A 
ATOM      7  C   UNL     1      -3.418  14.461  22.278  0.00  0.00    +0.000 A 
ATOM      8  C   UNL     1      -4.210  13.311  22.383  0.00  0.00    +0.000 A 
ATOM      9  C   UNL     1      -4.437  12.741  21.172  0.00  0.00    +0.000 A 
ATOM     10  C   UNL     1      -3.348  12.457  20.396  0.00  0.00    +0.000 A 
ATOM     11  C   UNL     1      -3.645  12.025  19.130  0.00  0.00    +0.000 A 
ATOM     12  C   UNL     1      -2.969  11.440  18.047  0.00  0.00    +0.000 A 
ATOM     13  C   UNL     1      -3.680  11.194  16.874  0.00  0.00    +0.000 A 
ATOM     14 BR   UNL     1      -2.851  10.234  15.471  0.00  0.00    +0.000 Br
ATOM     15  C   UNL     1      -4.993  11.618  16.722  0.00  0.00    +0.000 A 
ATOM     16  C   UNL     1      -5.666  12.254  17.765  0.00  0.00    +0.000 A 
ATOM     17  C   UNL     1      -5.005  12.408  18.993  0.00  0.00    +0.000 A 
ATOM     18  N   UNL     1      -5.407  13.021  20.194  0.00  0.00    +0.000 N 
ATOM     19  C   UNL     1      -4.854  13.262  23.696  0.00  0.00    +0.000 C 
ATOM     20  C   UNL     1      -5.208  14.720  23.770  0.00  0.00    +0.000 A 
ATOM     21  C   UNL     1      -6.542  15.074  23.985  0.00  0.00    +0.000 A 
ATOM     22  C   UNL     1      -7.031  16.169  23.301  0.00  0.00    +0.000 A 
ATOM     23  C   UNL     1      -6.156  16.942  22.515  0.00  0.00    +0.000 A 
ATOM     24  C   UNL     1      -4.776  16.609  22.369  0.00  0.00    +0.000 A 
ATOM     25  C   UNL     1      -4.253  15.453  22.975  0.00  0.00    +0.000 A 
ATOM     26  H   UNL     1       0.622  12.596  22.350  0.00  0.00    +0.000 HD
ENDROOT
BRANCH  18  27
ATOM     27  C   UNL     1      -6.267  14.201  20.304  0.00  0.00    +0.000 C 
BRANCH  27  28
ATOM     28  C   UNL     1      -6.120  15.400  19.374  0.00  0.00    +0.000 C 
BRANCH  28  29
ATOM     29  C   UNL     1      -7.276  15.512  18.394  0.00  0.00    +0.000 C 
BRANCH  29  30
ATOM     30  O   UNL     1      -6.771  15.524  17.068  0.00  0.00    +0.000 OA
ATOM     31  H   UNL     1      -6.221  14.731  16.954  0.00  0.00    +0.000 HD
ENDBRANCH  29  30
ENDBRANCH  28  29
ENDBRANCH  27  28
ENDBRANCH  18  27
TORSDOF 4
ENDMDL
