MODEL 1
REMARK VINA RESULT:      -7.5      0.000      0.000
REMARK  Name = 
REMARK  12 active torsions:
REMARK  status: ('A' for Active; 'I' for Inactive)
REMARK    1  A    between atoms: C_1  and  C_2
REMARK    2  A    between atoms: C_2  and  C_4
REMARK    3  A    between atoms: C_4  and  C_5
REMARK    4  A    between atoms: C_5  and  C_6
REMARK    5  A    between atoms: C_6  and  C_7
REMARK    6  A    between atoms: C_7  and  C_8
REMARK    7  A    between atoms: C_8  and  C_9
REMARK    8  A    between atoms: C_9  and  N_10
REMARK    9  A    between atoms: C_9  and  C_20
REMARK   10  A    between atoms: C_11  and  C_13
REMARK   11  A    between atoms: N_16  and  C_17
REMARK   12  A    between atoms: C_23  and  C_24
REMARK                            x       y       z     vdW  Elec       q    Type
REMARK                         _______ _______ _______ _____ _____    ______ ____
ROOT
ATOM      1  C   UNL     1       1.886   7.269  20.601  0.00  0.00    +0.000 C 
ENDROOT
BRANCH   1   2
ATOM      2  C   UNL     1       2.611   7.223  19.291  0.00  0.00    +0.000 A 
ATOM      3  N   UNL     1       2.465   8.065  18.286  0.00  0.00    +0.000 NA
ATOM      4  C   UNL     1       3.371   7.652  17.347  0.00  0.00    +0.000 A 
ATOM      5  C   UNL     1       4.067   6.532  17.751  0.00  0.00    +0.000 A 
ATOM      6  N   UNL     1       3.556   6.268  18.996  0.00  0.00    +0.000 N 
ATOM      7  H   UNL     1       3.838   5.517  19.616  0.00  0.00    +0.000 HD
BRANCH   5   8
ATOM      8  C   UNL     1       5.101   5.758  17.061  0.00  0.00    +0.000 A 
ATOM      9  C   UNL     1       4.936   5.547  15.679  0.00  0.00    +0.000 A 
ATOM     10  C   UNL     1       5.928   4.934  14.914  0.00  0.00    +0.000 A 
ATOM     11  C   UNL     1       7.105   4.512  15.520  0.00  0.00    +0.000 A 
ATOM     12  C   UNL     1       7.275   4.674  16.893  0.00  0.00    +0.000 A 
ATOM     13  C   UNL     1       6.279   5.286  17.668  0.00  0.00    +0.000 A 
ATOM     14 CL   UNL     1       6.603   5.465  19.360  0.00  0.00    +0.000 Cl
ENDBRANCH   5   8
ENDBRANCH   1   2
BRANCH   1  15
ATOM     15  N   UNL     1       1.121   8.502  20.671  0.00  0.00    +0.000 N 
ATOM     16  C   UNL     1       1.114   9.319  21.774  0.00  0.00    +0.000 C 
ATOM     17  O   UNL     1       1.792   9.106  22.780  0.00  0.00    +0.000 OA
ATOM     18  H   UNL     1       0.362   8.590  20.007  0.00  0.00    +0.000 HD
BRANCH  16  19
ATOM     19  C   UNL     1       0.255  10.570  21.664  0.00  0.00    +0.000 C 
ATOM     20  C   UNL     1      -0.729  10.751  22.821  0.00  0.00    +0.000 C 
ATOM     21  C   UNL     1      -1.591  12.001  22.605  0.00  0.00    +0.000 C 
ATOM     22  N   UNL     1      -2.285  11.961  21.308  0.00  0.00    +0.000 NA
ATOM     23  C   UNL     1      -3.109  13.157  21.119  0.00  0.00    +0.000 C 
ATOM     24  C   UNL     1      -1.339  11.834  20.192  0.00  0.00    +0.000 C 
ATOM     25  C   UNL     1      -0.497  10.574  20.333  0.00  0.00    +0.000 C 
ENDBRANCH  16  19
ENDBRANCH   1  15
BRANCH   1  26
ATOM     26  C   UNL     1       1.041   6.011  20.886  0.00  0.00    +0.000 C 
BRANCH  26  27
ATOM     27  C   UNL     1       1.917   4.774  21.081  0.00  0.00    +0.000 C 
BRANCH  27  28
ATOM     28  C   UNL     1       1.118   3.474  21.127  0.00  0.00    +0.000 C 
BRANCH  28  29
ATOM     29  C   UNL     1       1.820   2.448  20.239  0.00  0.00    +0.000 C 
BRANCH  29  30
ATOM     30  C   UNL     1       1.250   2.411  18.830  0.00  0.00    +0.000 C 
BRANCH  30  32
ATOM     31  C   UNL     1       3.634   2.544  17.896  0.00  0.00    +0.000 C 
ATOM     32  C   UNL     1       2.210   3.022  17.823  0.00  0.00    +0.000 C 
ATOM     33  O   UNL     1       1.871   3.862  16.997  0.00  0.00    +0.000 OA
ENDBRANCH  30  32
ENDBRANCH  29  30
ENDBRANCH  28  29
ENDBRANCH  27  28
ENDBRANCH  26  27
ENDBRANCH   1  26
TORSDOF 10
ENDMDL
MODEL 2
REMARK VINA RESULT:      -7.4      1.417      1.727
REMARK  Name = 
REMARK  12 active torsions:
REMARK  status: ('A' for Active; 'I' for Inactive)
REMARK    1  A    between atoms: C_1  and  C_2
REMARK    2  A    between atoms: C_2  and  C_4
REMARK    3  A    between atoms: C_4  and  C_5
REMARK    4  A    between atoms: C_5  and  C_6
REMARK    5  A    between atoms: C_6  and  C_7
REMARK    6  A    between atoms: C_7  and  C_8
REMARK    7  A    between atoms: C_8  and  C_9
REMARK    8  A    between atoms: C_9  and  N_10
REMARK    9  A    between atoms: C_9  and  C_20
REMARK   10  A    between atoms: C_11  and  C_13
REMARK   11  A    between atoms: N_16  and  C_17
REMARK   12  A    between atoms: C_23  and  C_24
REMARK                            x       y       z     vdW  Elec       q    Type
REMARK                         _______ _______ _______ _____ _____    ______ ____
ROOT
ATOM      1  C   UNL     1       1.870   6.721  20.517  0.00  0.00    +0.000 C 
ENDROOT
BRANCH   1   2
ATOM      2  C   UNL     1       2.653   6.879  19.249  0.00  0.00    +0.000 A 
ATOM      3  N   UNL     1       2.622   7.916  18.436  0.00  0.00    +0.000 NA
ATOM      4  C   UNL     1       3.537   7.625  17.460  0.00  0.00    +0.000 A 
ATOM      5  C   UNL     1       4.121   6.389  17.645  0.00  0.00    +0.000 A 
ATOM      6  N   UNL     1       3.531   5.924  18.792  0.00  0.00    +0.000 N 
ATOM      7  H   UNL     1       3.722   5.041  19.253  0.00  0.00    +0.000 HD
BRANCH   5   8
ATOM      8  C   UNL     1       5.122   5.684  16.842  0.00  0.00    +0.000 A 
ATOM      9  C   UNL     1       4.701   4.534  16.148  0.00  0.00    +0.000 A 
ATOM     10  C   UNL     1       5.547   3.871  15.260  0.00  0.00    +0.000 A 
ATOM     11  C   UNL     1       6.838   4.342  15.053  0.00  0.00    +0.000 A 
ATOM     12  C   UNL     1       7.290   5.456  15.758  0.00  0.00    +0.000 A 
ATOM     13  C   UNL     1       6.445   6.124  16.656  0.00  0.00    +0.000 A 
ATOM     14 CL   UNL     1       7.098   7.514  17.458  0.00  0.00    +0.000 Cl
ENDBRANCH   5   8
ENDBRANCH   1   2
BRANCH   1  15
ATOM     15  N   UNL     1       0.982   7.860  20.665  0.00  0.00    +0.000 N 
ATOM     16  C   UNL     1       1.115   8.791  21.665  0.00  0.00    +0.000 C 
ATOM     17  O   UNL     1       2.026   8.771  22.493  0.00  0.00    +0.000 OA
ATOM     18  H   UNL     1       0.087   7.787  20.198  0.00  0.00    +0.000 HD
BRANCH  16  19
ATOM     19  C   UNL     1       0.091   9.917  21.660  0.00  0.00    +0.000 C 
ATOM     20  C   UNL     1       0.631  11.244  21.123  0.00  0.00    +0.000 C 
ATOM     21  C   UNL     1      -0.444  12.335  21.205  0.00  0.00    +0.000 C 
ATOM     22  N   UNL     1      -0.965  12.479  22.574  0.00  0.00    +0.000 NA
ATOM     23  C   UNL     1      -1.985  13.529  22.638  0.00  0.00    +0.000 C 
ATOM     24  C   UNL     1      -1.526  11.217  23.075  0.00  0.00    +0.000 C 
ATOM     25  C   UNL     1      -0.476  10.114  23.066  0.00  0.00    +0.000 C 
ENDBRANCH  16  19
ENDBRANCH   1  15
BRANCH   1  26
ATOM     26  C   UNL     1       1.147   5.365  20.635  0.00  0.00    +0.000 C 
BRANCH  26  27
ATOM     27  C   UNL     1       2.027   4.311  21.309  0.00  0.00    +0.000 C 
BRANCH  27  28
ATOM     28  C   UNL     1       1.739   2.892  20.826  0.00  0.00    +0.000 C 
BRANCH  28  29
ATOM     29  C   UNL     1       2.023   2.828  19.327  0.00  0.00    +0.000 C 
BRANCH  29  30
ATOM     30  C   UNL     1       3.202   1.927  18.996  0.00  0.00    +0.000 C 
BRANCH  30  32
ATOM     31  C   UNL     1       4.994   1.433  20.762  0.00  0.00    +0.000 C 
ATOM     32  C   UNL     1       4.464   2.373  19.715  0.00  0.00    +0.000 C 
ATOM     33  O   UNL     1       5.031   3.435  19.481  0.00  0.00    +0.000 OA
ENDBRANCH  30  32
ENDBRANCH  29  30
ENDBRANCH  28  29
ENDBRANCH  27  28
ENDBRANCH  26  27
ENDBRANCH   1  26
TORSDOF 10
ENDMDL
MODEL 3
REMARK VINA RESULT:      -7.2      2.808      5.974
REMARK  Name = 
REMARK  12 active torsions:
REMARK  status: ('A' for Active; 'I' for Inactive)
REMARK    1  A    between atoms: C_1  and  C_2
REMARK    2  A    between atoms: C_2  and  C_4
REMARK    3  A    between atoms: C_4  and  C_5
REMARK    4  A    between atoms: C_5  and  C_6
REMARK    5  A    between atoms: C_6  and  C_7
REMARK    6  A    between atoms: C_7  and  C_8
REMARK    7  A    between atoms: C_8  and  C_9
REMARK    8  A    between atoms: C_9  and  N_10
REMARK    9  A    between atoms: C_9  and  C_20
REMARK   10  A    between atoms: C_11  and  C_13
REMARK   11  A    between atoms: N_16  and  C_17
REMARK   12  A    between atoms: C_23  and  C_24
REMARK                            x       y       z     vdW  Elec       q    Type
REMARK                         _______ _______ _______ _____ _____    ______ ____
ROOT
ATOM      1  C   UNL     1       1.465   8.969  20.186  0.00  0.00    +0.000 C 
ENDROOT
BRANCH   1   2
ATOM      2  C   UNL     1       2.048   7.927  19.279  0.00  0.00    +0.000 A 
ATOM      3  N   UNL     1       2.722   8.148  18.167  0.00  0.00    +0.000 NA
ATOM      4  C   UNL     1       3.093   6.905  17.729  0.00  0.00    +0.000 A 
ATOM      5  C   UNL     1       2.627   5.901  18.552  0.00  0.00    +0.000 A 
ATOM      6  N   UNL     1       1.951   6.580  19.534  0.00  0.00    +0.000 N 
ATOM      7  H   UNL     1       1.479   6.171  20.334  0.00  0.00    +0.000 HD
BRANCH   5   8
ATOM      8  C   UNL     1       2.773   4.448  18.451  0.00  0.00    +0.000 A 
ATOM      9  C   UNL     1       3.757   3.957  17.573  0.00  0.00    +0.000 A 
ATOM     10  C   UNL     1       4.056   2.596  17.505  0.00  0.00    +0.000 A 
ATOM     11  C   UNL     1       3.369   1.697  18.310  0.00  0.00    +0.000 A 
ATOM     12  C   UNL     1       2.363   2.155  19.160  0.00  0.00    +0.000 A 
ATOM     13  C   UNL     1       2.056   3.521  19.229  0.00  0.00    +0.000 A 
ATOM     14 CL   UNL     1       0.808   3.987  20.338  0.00  0.00    +0.000 Cl
ENDBRANCH   5   8
ENDBRANCH   1   2
BRANCH   1  15
ATOM     15  N   UNL     1       0.309   9.562  19.537  0.00  0.00    +0.000 N 
ATOM     16  C   UNL     1       0.259  10.876  19.147  0.00  0.00    +0.000 C 
ATOM     17  O   UNL     1       1.205  11.656  19.267  0.00  0.00    +0.000 OA
ATOM     18  H   UNL     1      -0.566   9.064  19.650  0.00  0.00    +0.000 HD
BRANCH  16  19
ATOM     19  C   UNL     1      -1.035  11.320  18.480  0.00  0.00    +0.000 C 
ATOM     20  C   UNL     1      -2.130  11.735  19.465  0.00  0.00    +0.000 C 
ATOM     21  C   UNL     1      -3.413  12.112  18.715  0.00  0.00    +0.000 C 
ATOM     22  N   UNL     1      -3.864  11.024  17.833  0.00  0.00    +0.000 NA
ATOM     23  C   UNL     1      -5.095  11.396  17.129  0.00  0.00    +0.000 C 
ATOM     24  C   UNL     1      -2.832  10.655  16.856  0.00  0.00    +0.000 C 
ATOM     25  C   UNL     1      -1.553  10.217  17.556  0.00  0.00    +0.000 C 
ENDBRANCH  16  19
ENDBRANCH   1  15
BRANCH   1  26
ATOM     26  C   UNL     1       1.169   8.456  21.609  0.00  0.00    +0.000 C 
BRANCH  26  27
ATOM     27  C   UNL     1      -0.185   8.951  22.118  0.00  0.00    +0.000 C 
BRANCH  27  28
ATOM     28  C   UNL     1      -0.094  10.267  22.885  0.00  0.00    +0.000 C 
BRANCH  28  29
ATOM     29  C   UNL     1      -1.513  10.774  23.137  0.00  0.00    +0.000 C 
BRANCH  29  30
ATOM     30  C   UNL     1      -1.619  12.286  23.025  0.00  0.00    +0.000 C 
BRANCH  30  32
ATOM     31  C   UNL     1      -3.206  13.890  24.243  0.00  0.00    +0.000 C 
ATOM     32  C   UNL     1      -3.042  12.765  23.259  0.00  0.00    +0.000 C 
ATOM     33  O   UNL     1      -4.016  12.275  22.697  0.00  0.00    +0.000 OA
ENDBRANCH  30  32
ENDBRANCH  29  30
ENDBRANCH  28  29
ENDBRANCH  27  28
ENDBRANCH  26  27
ENDBRANCH   1  26
TORSDOF 10
ENDMDL
MODEL 4
REMARK VINA RESULT:      -7.1      2.334      7.714
REMARK  Name = 
REMARK  12 active torsions:
REMARK  status: ('A' for Active; 'I' for Inactive)
REMARK    1  A    between atoms: C_1  and  C_2
REMARK    2  A    between atoms: C_2  and  C_4
REMARK    3  A    between atoms: C_4  and  C_5
REMARK    4  A    between atoms: C_5  and  C_6
REMARK    5  A    between atoms: C_6  and  C_7
REMARK    6  A    between atoms: C_7  and  C_8
REMARK    7  A    between atoms: C_8  and  C_9
REMARK    8  A    between atoms: C_9  and  N_10
REMARK    9  A    between atoms: C_9  and  C_20
REMARK   10  A    between atoms: C_11  and  C_13
REMARK   11  A    between atoms: N_16  and  C_17
REMARK   12  A    between atoms: C_23  and  C_24
REMARK                            x       y       z     vdW  Elec       q    Type
REMARK                         _______ _______ _______ _____ _____    ______ ____
ROOT
ATOM      1  C   UNL     1       2.595   5.801  18.817  0.00  0.00    +0.000 C 
ENDROOT
BRANCH   1   2
ATOM      2  C   UNL     1       2.305   7.265  18.673  0.00  0.00    +0.000 A 
ATOM      3  N   UNL     1       2.677   8.040  17.673  0.00  0.00    +0.000 NA
ATOM      4  C   UNL     1       2.135   9.264  17.958  0.00  0.00    +0.000 A 
ATOM      5  C   UNL     1       1.446   9.265  19.153  0.00  0.00    +0.000 A 
ATOM      6  N   UNL     1       1.578   7.974  19.599  0.00  0.00    +0.000 N 
ATOM      7  H   UNL     1       1.185   7.588  20.451  0.00  0.00    +0.000 HD
BRANCH   5   8
ATOM      8  C   UNL     1       0.738  10.347  19.839  0.00  0.00    +0.000 A 
ATOM      9  C   UNL     1       0.153  11.346  19.039  0.00  0.00    +0.000 A 
ATOM     10  C   UNL     1      -0.649  12.344  19.592  0.00  0.00    +0.000 A 
ATOM     11  C   UNL     1      -0.875  12.367  20.963  0.00  0.00    +0.000 A 
ATOM     12  C   UNL     1      -0.275  11.411  21.781  0.00  0.00    +0.000 A 
ATOM     13  C   UNL     1       0.535  10.408  21.229  0.00  0.00    +0.000 A 
ATOM     14 CL   UNL     1       1.209   9.254  22.332  0.00  0.00    +0.000 Cl
ENDBRANCH   5   8
ENDBRANCH   1   2
BRANCH   1  15
ATOM     15  N   UNL     1       3.538   5.406  17.785  0.00  0.00    +0.000 N 
ATOM     16  C   UNL     1       4.868   5.175  18.032  0.00  0.00    +0.000 C 
ATOM     17  O   UNL     1       5.370   5.236  19.156  0.00  0.00    +0.000 OA
ATOM     18  H   UNL     1       3.255   5.595  16.832  0.00  0.00    +0.000 HD
BRANCH  16  19
ATOM     19  C   UNL     1       5.703   4.767  16.828  0.00  0.00    +0.000 C 
ATOM     20  C   UNL     1       6.928   5.652  16.593  0.00  0.00    +0.000 C 
ATOM     21  C   UNL     1       7.680   5.208  15.332  0.00  0.00    +0.000 C 
ATOM     22  N   UNL     1       6.796   5.186  14.156  0.00  0.00    +0.000 NA
ATOM     23  C   UNL     1       7.530   4.766  12.958  0.00  0.00    +0.000 C 
ATOM     24  C   UNL     1       5.643   4.300  14.361  0.00  0.00    +0.000 C 
ATOM     25  C   UNL     1       4.831   4.737  15.572  0.00  0.00    +0.000 C 
ENDBRANCH  16  19
ENDBRANCH   1  15
BRANCH   1  26
ATOM     26  C   UNL     1       3.039   5.394  20.236  0.00  0.00    +0.000 C 
BRANCH  26  27
ATOM     27  C   UNL     1       1.856   4.940  21.091  0.00  0.00    +0.000 C 
BRANCH  27  28
ATOM     28  C   UNL     1       0.833   4.116  20.311  0.00  0.00    +0.000 C 
BRANCH  28  29
ATOM     29  C   UNL     1       1.357   2.686  20.197  0.00  0.00    +0.000 C 
BRANCH  29  30
ATOM     30  C   UNL     1       1.097   2.080  18.827  0.00  0.00    +0.000 C 
BRANCH  30  32
ATOM     31  C   UNL     1       3.564   1.566  18.351  0.00  0.00    +0.000 C 
ATOM     32  C   UNL     1       2.296   2.243  17.908  0.00  0.00    +0.000 C 
ATOM     33  O   UNL     1       2.261   2.889  16.866  0.00  0.00    +0.000 OA
ENDBRANCH  30  32
ENDBRANCH  29  30
ENDBRANCH  28  29
ENDBRANCH  27  28
ENDBRANCH  26  27
ENDBRANCH   1  26
TORSDOF 10
ENDMDL
MODEL 5
REMARK VINA RESULT:      -7.1      1.185      1.689
REMARK  Name = 
REMARK  12 active torsions:
REMARK  status: ('A' for Active; 'I' for Inactive)
REMARK    1  A    between atoms: C_1  and  C_2
REMARK    2  A    between atoms: C_2  and  C_4
REMARK    3  A    between atoms: C_4  and  C_5
REMARK    4  A    between atoms: C_5  and  C_6
REMARK    5  A    between atoms: C_6  and  C_7
REMARK    6  A    between atoms: C_7  and  C_8
REMARK    7  A    between atoms: C_8  and  C_9
REMARK    8  A    between atoms: C_9  and  N_10
REMARK    9  A    between atoms: C_9  and  C_20
REMARK   10  A    between atoms: C_11  and  C_13
REMARK   11  A    between atoms: N_16  and  C_17
REMARK   12  A    between atoms: C_23  and  C_24
REMARK                            x       y       z     vdW  Elec       q    Type
REMARK                         _______ _______ _______ _____ _____    ______ ____
ROOT
ATOM      1  C   UNL     1       1.698   6.555  20.684  0.00  0.00    +0.000 C 
ENDROOT
BRANCH   1   2
ATOM      2  C   UNL     1       2.580   6.809  19.499  0.00  0.00    +0.000 A 
ATOM      3  N   UNL     1       2.489   7.822  18.660  0.00  0.00    +0.000 NA
ATOM      4  C   UNL     1       3.534   7.654  17.792  0.00  0.00    +0.000 A 
ATOM      5  C   UNL     1       4.266   6.518  18.070  0.00  0.00    +0.000 A 
ATOM      6  N   UNL     1       3.629   5.986  19.163  0.00  0.00    +0.000 N 
ATOM      7  H   UNL     1       3.895   5.146  19.665  0.00  0.00    +0.000 HD
BRANCH   5   8
ATOM      8  C   UNL     1       5.437   5.956  17.395  0.00  0.00    +0.000 A 
ATOM      9  C   UNL     1       6.345   5.221  18.180  0.00  0.00    +0.000 A 
ATOM     10  C   UNL     1       7.418   4.541  17.605  0.00  0.00    +0.000 A 
ATOM     11  C   UNL     1       7.610   4.590  16.230  0.00  0.00    +0.000 A 
ATOM     12  C   UNL     1       6.747   5.343  15.436  0.00  0.00    +0.000 A 
ATOM     13  C   UNL     1       5.668   6.032  16.010  0.00  0.00    +0.000 A 
ATOM     14 CL   UNL     1       4.640   6.914  14.929  0.00  0.00    +0.000 Cl
ENDBRANCH   5   8
ENDBRANCH   1   2
BRANCH   1  15
ATOM     15  N   UNL     1       0.733   7.635  20.791  0.00  0.00    +0.000 N 
ATOM     16  C   UNL     1       0.879   8.690  21.656  0.00  0.00    +0.000 C 
ATOM     17  O   UNL     1       1.863   8.841  22.381  0.00  0.00    +0.000 OA
ATOM     18  H   UNL     1      -0.193   7.439  20.430  0.00  0.00    +0.000 HD
BRANCH  16  19
ATOM     19  C   UNL     1      -0.233   9.729  21.627  0.00  0.00    +0.000 C 
ATOM     20  C   UNL     1       0.037  10.901  20.683  0.00  0.00    +0.000 C 
ATOM     21  C   UNL     1      -1.103  11.925  20.756  0.00  0.00    +0.000 C 
ATOM     22  N   UNL     1      -1.328  12.384  22.136  0.00  0.00    +0.000 NA
ATOM     23  C   UNL     1      -2.415  13.366  22.189  0.00  0.00    +0.000 C 
ATOM     24  C   UNL     1      -1.634  11.265  23.036  0.00  0.00    +0.000 C 
ATOM     25  C   UNL     1      -0.502  10.246  23.040  0.00  0.00    +0.000 C 
ENDBRANCH  16  19
ENDBRANCH   1  15
BRANCH   1  26
ATOM     26  C   UNL     1       1.050   5.157  20.686  0.00  0.00    +0.000 C 
BRANCH  26  27
ATOM     27  C   UNL     1       1.902   4.139  21.444  0.00  0.00    +0.000 C 
BRANCH  27  28
ATOM     28  C   UNL     1       1.555   2.692  21.102  0.00  0.00    +0.000 C 
BRANCH  28  29
ATOM     29  C   UNL     1       0.832   2.677  19.757  0.00  0.00    +0.000 C 
BRANCH  29  30
ATOM     30  C   UNL     1       1.692   2.106  18.641  0.00  0.00    +0.000 C 
BRANCH  30  32
ATOM     31  C   UNL     1       3.516   2.994  17.073  0.00  0.00    +0.000 C 
ATOM     32  C   UNL     1       2.155   3.190  17.682  0.00  0.00    +0.000 C 
ATOM     33  O   UNL     1       1.482   4.179  17.411  0.00  0.00    +0.000 OA
ENDBRANCH  30  32
ENDBRANCH  29  30
ENDBRANCH  28  29
ENDBRANCH  27  28
ENDBRANCH  26  27
ENDBRANCH   1  26
TORSDOF 10
ENDMDL
MODEL 6
REMARK VINA RESULT:      -7.1      2.639      6.045
REMARK  Name = 
REMARK  12 active torsions:
REMARK  status: ('A' for Active; 'I' for Inactive)
REMARK    1  A    between atoms: C_1  and  C_2
REMARK    2  A    between atoms: C_2  and  C_4
REMARK    3  A    between atoms: C_4  and  C_5
REMARK    4  A    between atoms: C_5  and  C_6
REMARK    5  A    between atoms: C_6  and  C_7
REMARK    6  A    between atoms: C_7  and  C_8
REMARK    7  A    between atoms: C_8  and  C_9
REMARK    8  A    between atoms: C_9  and  N_10
REMARK    9  A    between atoms: C_9  and  C_20
REMARK   10  A    between atoms: C_11  and  C_13
REMARK   11  A    between atoms: N_16  and  C_17
REMARK   12  A    between atoms: C_23  and  C_24
REMARK                            x       y       z     vdW  Elec       q    Type
REMARK                         _______ _______ _______ _____ _____    ______ ____
ROOT
ATOM      1  C   UNL     1       1.066   8.861  21.005  0.00  0.00    +0.000 C 
ENDROOT
BRANCH   1   2
ATOM      2  C   UNL     1       1.659   7.619  20.412  0.00  0.00    +0.000 A 
ATOM      3  N   UNL     1       1.532   6.392  20.879  0.00  0.00    +0.000 NA
ATOM      4  C   UNL     1       2.193   5.603  19.977  0.00  0.00    +0.000 A 
ATOM      5  C   UNL     1       2.761   6.338  18.958  0.00  0.00    +0.000 A 
ATOM      6  N   UNL     1       2.415   7.630  19.263  0.00  0.00    +0.000 N 
ATOM      7  H   UNL     1       2.645   8.459  18.725  0.00  0.00    +0.000 HD
BRANCH   5   8
ATOM      8  C   UNL     1       3.561   5.908  17.810  0.00  0.00    +0.000 A 
ATOM      9  C   UNL     1       4.350   6.881  17.170  0.00  0.00    +0.000 A 
ATOM     10  C   UNL     1       5.240   6.541  16.152  0.00  0.00    +0.000 A 
ATOM     11  C   UNL     1       5.353   5.217  15.746  0.00  0.00    +0.000 A 
ATOM     12  C   UNL     1       4.553   4.241  16.338  0.00  0.00    +0.000 A 
ATOM     13  C   UNL     1       3.654   4.578  17.359  0.00  0.00    +0.000 A 
ATOM     14 CL   UNL     1       2.729   3.284  18.046  0.00  0.00    +0.000 Cl
ENDBRANCH   5   8
ENDBRANCH   1   2
BRANCH   1  15
ATOM     15  N   UNL     1       0.109   9.418  20.065  0.00  0.00    +0.000 N 
ATOM     16  C   UNL     1       0.280  10.633  19.451  0.00  0.00    +0.000 C 
ATOM     17  O   UNL     1       1.281  11.335  19.602  0.00  0.00    +0.000 OA
ATOM     18  H   UNL     1      -0.826   9.031  20.103  0.00  0.00    +0.000 HD
BRANCH  16  19
ATOM     19  C   UNL     1      -0.827  11.053  18.495  0.00  0.00    +0.000 C 
ATOM     20  C   UNL     1      -2.087  11.568  19.193  0.00  0.00    +0.000 C 
ATOM     21  C   UNL     1      -3.169  11.916  18.163  0.00  0.00    +0.000 C 
ATOM     22  N   UNL     1      -3.467  10.773  17.285  0.00  0.00    +0.000 NA
ATOM     23  C   UNL     1      -4.507  11.118  16.312  0.00  0.00    +0.000 C 
ATOM     24  C   UNL     1      -2.267  10.307  16.578  0.00  0.00    +0.000 C 
ATOM     25  C   UNL     1      -1.181   9.895  17.562  0.00  0.00    +0.000 C 
ENDBRANCH  16  19
ENDBRANCH   1  15
BRANCH   1  26
ATOM     26  C   UNL     1       0.485   8.657  22.417  0.00  0.00    +0.000 C 
BRANCH  26  27
ATOM     27  C   UNL     1       0.245   9.989  23.128  0.00  0.00    +0.000 C 
BRANCH  27  28
ATOM     28  C   UNL     1      -1.229  10.381  23.189  0.00  0.00    +0.000 C 
BRANCH  28  29
ATOM     29  C   UNL     1      -1.331  11.892  22.988  0.00  0.00    +0.000 C 
BRANCH  29  30
ATOM     30  C   UNL     1      -2.753  12.344  22.693  0.00  0.00    +0.000 C 
BRANCH  30  32
ATOM     31  C   UNL     1      -4.376  12.406  24.677  0.00  0.00    +0.000 C 
ATOM     32  C   UNL     1      -3.342  13.126  23.855  0.00  0.00    +0.000 C 
ATOM     33  O   UNL     1      -3.018  14.278  24.123  0.00  0.00    +0.000 OA
ENDBRANCH  30  32
ENDBRANCH  29  30
ENDBRANCH  28  29
ENDBRANCH  27  28
ENDBRANCH  26  27
ENDBRANCH   1  26
TORSDOF 10
ENDMDL
MODEL 7
REMARK VINA RESULT:      -7.0      1.230      1.304
REMARK  Name = 
REMARK  12 active torsions:
REMARK  status: ('A' for Active; 'I' for Inactive)
REMARK    1  A    between atoms: C_1  and  C_2
REMARK    2  A    between atoms: C_2  and  C_4
REMARK    3  A    between atoms: C_4  and  C_5
REMARK    4  A    between atoms: C_5  and  C_6
REMARK    5  A    between atoms: C_6  and  C_7
REMARK    6  A    between atoms: C_7  and  C_8
REMARK    7  A    between atoms: C_8  and  C_9
REMARK    8  A    between atoms: C_9  and  N_10
REMARK    9  A    between atoms: C_9  and  C_20
REMARK   10  A    between atoms: C_11  and  C_13
REMARK   11  A    between atoms: N_16  and  C_17
REMARK   12  A    between atoms: C_23  and  C_24
REMARK                            x       y       z     vdW  Elec       q    Type
REMARK                         _______ _______ _______ _____ _____    ______ ____
ROOT
ATOM      1  C   UNL     1       1.895   7.440  20.489  0.00  0.00    +0.000 C 
ENDROOT
BRANCH   1   2
ATOM      2  C   UNL     1       2.627   7.361  19.183  0.00  0.00    +0.000 A 
ATOM      3  N   UNL     1       2.526   8.210  18.179  0.00  0.00    +0.000 NA
ATOM      4  C   UNL     1       3.418   7.756  17.245  0.00  0.00    +0.000 A 
ATOM      5  C   UNL     1       4.059   6.604  17.653  0.00  0.00    +0.000 A 
ATOM      6  N   UNL     1       3.527   6.364  18.894  0.00  0.00    +0.000 N 
ATOM      7  H   UNL     1       3.771   5.600  19.516  0.00  0.00    +0.000 HD
BRANCH   5   8
ATOM      8  C   UNL     1       5.060   5.784  16.969  0.00  0.00    +0.000 A 
ATOM      9  C   UNL     1       4.623   4.576  16.393  0.00  0.00    +0.000 A 
ATOM     10  C   UNL     1       5.473   3.792  15.614  0.00  0.00    +0.000 A 
ATOM     11  C   UNL     1       6.784   4.199  15.400  0.00  0.00    +0.000 A 
ATOM     12  C   UNL     1       7.252   5.371  15.992  0.00  0.00    +0.000 A 
ATOM     13  C   UNL     1       6.402   6.160  16.780  0.00  0.00    +0.000 A 
ATOM     14 CL   UNL     1       7.076   7.612  17.444  0.00  0.00    +0.000 Cl
ENDBRANCH   5   8
ENDBRANCH   1   2
BRANCH   1  15
ATOM     15  N   UNL     1       1.151   8.687  20.536  0.00  0.00    +0.000 N 
ATOM     16  C   UNL     1       1.055   9.461  21.664  0.00  0.00    +0.000 C 
ATOM     17  O   UNL     1       1.629   9.196  22.721  0.00  0.00    +0.000 OA
ATOM     18  H   UNL     1       0.461   8.818  19.807  0.00  0.00    +0.000 HD
BRANCH  16  19
ATOM     19  C   UNL     1       0.234  10.735  21.524  0.00  0.00    +0.000 C 
ATOM     20  C   UNL     1      -0.698  11.006  22.706  0.00  0.00    +0.000 C 
ATOM     21  C   UNL     1      -1.526  12.274  22.459  0.00  0.00    +0.000 C 
ATOM     22  N   UNL     1      -2.270  12.195  21.193  0.00  0.00    +0.000 NA
ATOM     23  C   UNL     1      -3.062  13.409  20.974  0.00  0.00    +0.000 C 
ATOM     24  C   UNL     1      -1.373  11.981  20.050  0.00  0.00    +0.000 C 
ATOM     25  C   UNL     1      -0.569  10.700  20.223  0.00  0.00    +0.000 C 
ENDBRANCH  16  19
ENDBRANCH   1  15
BRANCH   1  26
ATOM     26  C   UNL     1       1.028   6.202  20.790  0.00  0.00    +0.000 C 
BRANCH  26  27
ATOM     27  C   UNL     1       1.879   4.944  20.965  0.00  0.00    +0.000 C 
BRANCH  27  28
ATOM     28  C   UNL     1       1.051   3.664  21.039  0.00  0.00    +0.000 C 
BRANCH  28  29
ATOM     29  C   UNL     1       1.750   2.592  20.204  0.00  0.00    +0.000 C 
BRANCH  29  30
ATOM     30  C   UNL     1       2.968   3.129  19.470  0.00  0.00    +0.000 C 
BRANCH  30  32
ATOM     31  C   UNL     1       4.024   1.125  18.269  0.00  0.00    +0.000 C 
ATOM     32  C   UNL     1       4.084   2.100  19.413  0.00  0.00    +0.000 C 
ATOM     33  O   UNL     1       4.986   2.041  20.241  0.00  0.00    +0.000 OA
ENDBRANCH  30  32
ENDBRANCH  29  30
ENDBRANCH  28  29
ENDBRANCH  27  28
ENDBRANCH  26  27
ENDBRANCH   1  26
TORSDOF 10
ENDMDL
MODEL 8
REMARK VINA RESULT:      -7.0      2.875      6.241
REMARK  Name = 
REMARK  12 active torsions:
REMARK  status: ('A' for Active; 'I' for Inactive)
REMARK    1  A    between atoms: C_1  and  C_2
REMARK    2  A    between atoms: C_2  and  C_4
REMARK    3  A    between atoms: C_4  and  C_5
REMARK    4  A    between atoms: C_5  and  C_6
REMARK    5  A    between atoms: C_6  and  C_7
REMARK    6  A    between atoms: C_7  and  C_8
REMARK    7  A    between atoms: C_8  and  C_9
REMARK    8  A    between atoms: C_9  and  N_10
REMARK    9  A    between atoms: C_9  and  C_20
REMARK   10  A    between atoms: C_11  and  C_13
REMARK   11  A    between atoms: N_16  and  C_17
REMARK   12  A    between atoms: C_23  and  C_24
REMARK                            x       y       z     vdW  Elec       q    Type
REMARK                         _______ _______ _______ _____ _____    ______ ____
ROOT
ATOM      1  C   UNL     1       1.101   9.884  20.354  0.00  0.00    +0.000 C 
ENDROOT
BRANCH   1   2
ATOM      2  C   UNL     1       1.651   8.668  19.672  0.00  0.00    +0.000 A 
ATOM      3  N   UNL     1       1.902   8.542  18.383  0.00  0.00    +0.000 NA
ATOM      4  C   UNL     1       2.441   7.291  18.251  0.00  0.00    +0.000 A 
ATOM      5  C   UNL     1       2.502   6.620  19.455  0.00  0.00    +0.000 A 
ATOM      6  N   UNL     1       1.980   7.519  20.350  0.00  0.00    +0.000 N 
ATOM      7  H   UNL     1       1.876   7.382  21.350  0.00  0.00    +0.000 HD
BRANCH   5   8
ATOM      8  C   UNL     1       2.983   5.272  19.766  0.00  0.00    +0.000 A 
ATOM      9  C   UNL     1       2.146   4.451  20.545  0.00  0.00    +0.000 A 
ATOM     10  C   UNL     1       2.459   3.113  20.784  0.00  0.00    +0.000 A 
ATOM     11  C   UNL     1       3.623   2.571  20.254  0.00  0.00    +0.000 A 
ATOM     12  C   UNL     1       4.487   3.375  19.513  0.00  0.00    +0.000 A 
ATOM     13  C   UNL     1       4.179   4.721  19.273  0.00  0.00    +0.000 A 
ATOM     14 CL   UNL     1       5.307   5.623  18.315  0.00  0.00    +0.000 Cl
ENDBRANCH   5   8
ENDBRANCH   1   2
BRANCH   1  15
ATOM     15  N   UNL     1      -0.174  10.226  19.747  0.00  0.00    +0.000 N 
ATOM     16  C   UNL     1      -0.406  11.420  19.111  0.00  0.00    +0.000 C 
ATOM     17  O   UNL     1       0.458  12.284  18.955  0.00  0.00    +0.000 OA
ATOM     18  H   UNL     1      -0.973   9.692  20.064  0.00  0.00    +0.000 HD
BRANCH  16  19
ATOM     19  C   UNL     1      -1.802  11.601  18.534  0.00  0.00    +0.000 C 
ATOM     20  C   UNL     1      -2.814  12.174  19.527  0.00  0.00    +0.000 C 
ATOM     21  C   UNL     1      -4.203  12.272  18.884  0.00  0.00    +0.000 C 
ATOM     22  N   UNL     1      -4.645  10.974  18.352  0.00  0.00    +0.000 NA
ATOM     23  C   UNL     1      -5.976  11.081  17.747  0.00  0.00    +0.000 C 
ATOM     24  C   UNL     1      -3.698  10.443  17.363  0.00  0.00    +0.000 C 
ATOM     25  C   UNL     1      -2.313  10.274  17.973  0.00  0.00    +0.000 C 
ENDBRANCH  16  19
ENDBRANCH   1  15
BRANCH   1  26
ATOM     26  C   UNL     1       1.029   9.754  21.888  0.00  0.00    +0.000 C 
BRANCH  26  27
ATOM     27  C   UNL     1      -0.361   9.320  22.355  0.00  0.00    +0.000 C 
BRANCH  27  28
ATOM     28  C   UNL     1      -1.025  10.333  23.285  0.00  0.00    +0.000 C 
BRANCH  28  29
ATOM     29  C   UNL     1      -0.850  11.725  22.681  0.00  0.00    +0.000 C 
BRANCH  29  30
ATOM     30  C   UNL     1      -1.681  12.777  23.397  0.00  0.00    +0.000 C 
BRANCH  30  32
ATOM     31  C   UNL     1      -0.778  14.650  21.896  0.00  0.00    +0.000 C 
ATOM     32  C   UNL     1      -1.049  14.155  23.290  0.00  0.00    +0.000 C 
ATOM     33  O   UNL     1      -0.760  14.839  24.267  0.00  0.00    +0.000 OA
ENDBRANCH  30  32
ENDBRANCH  29  30
ENDBRANCH  28  29
ENDBRANCH  27  28
ENDBRANCH  26  27
ENDBRANCH   1  26
TORSDOF 10
ENDMDL
MODEL 9
REMARK VINA RESULT:      -7.0      2.419      7.712
REMARK  Name = 
REMARK  12 active torsions:
REMARK  status: ('A' for Active; 'I' for Inactive)
REMARK    1  A    between atoms: C_1  and  C_2
REMARK    2  A    between atoms: C_2  and  C_4
REMARK    3  A    between atoms: C_4  and  C_5
REMARK    4  A    between atoms: C_5  and  C_6
REMARK    5  A    between atoms: C_6  and  C_7
REMARK    6  A    between atoms: C_7  and  C_8
REMARK    7  A    between atoms: C_8  and  C_9
REMARK    8  A    between atoms: C_9  and  N_10
REMARK    9  A    between atoms: C_9  and  C_20
REMARK   10  A    between atoms: C_11  and  C_13
REMARK   11  A    between atoms: N_16  and  C_17
REMARK   12  A    between atoms: C_23  and  C_24
REMARK                            x       y       z     vdW  Elec       q    Type
REMARK                         _______ _______ _______ _____ _____    ______ ____
ROOT
ATOM      1  C   UNL     1       2.265   6.379  18.774  0.00  0.00    +0.000 C 
ENDROOT
BRANCH   1   2
ATOM      2  C   UNL     1       2.029   7.853  18.637  0.00  0.00    +0.000 A 
ATOM      3  N   UNL     1       2.259   8.585  17.564  0.00  0.00    +0.000 NA
ATOM      4  C   UNL     1       1.837   9.843  17.900  0.00  0.00    +0.000 A 
ATOM      5  C   UNL     1       1.368   9.907  19.196  0.00  0.00    +0.000 A 
ATOM      6  N   UNL     1       1.510   8.621  19.652  0.00  0.00    +0.000 N 
ATOM      7  H   UNL     1       1.253   8.276  20.571  0.00  0.00    +0.000 HD
BRANCH   5   8
ATOM      8  C   UNL     1       0.845  11.041  19.960  0.00  0.00    +0.000 A 
ATOM      9  C   UNL     1      -0.142  10.770  20.926  0.00  0.00    +0.000 A 
ATOM     10  C   UNL     1      -0.606  11.763  21.789  0.00  0.00    +0.000 A 
ATOM     11  C   UNL     1      -0.097  13.052  21.696  0.00  0.00    +0.000 A 
ATOM     12  C   UNL     1       0.853  13.354  20.722  0.00  0.00    +0.000 A 
ATOM     13  C   UNL     1       1.320  12.361  19.849  0.00  0.00    +0.000 A 
ATOM     14 CL   UNL     1       2.521  12.836  18.695  0.00  0.00    +0.000 Cl
ENDBRANCH   5   8
ENDBRANCH   1   2
BRANCH   1  15
ATOM     15  N   UNL     1       3.352   5.994  17.891  0.00  0.00    +0.000 N 
ATOM     16  C   UNL     1       4.506   5.400  18.337  0.00  0.00    +0.000 C 
ATOM     17  O   UNL     1       4.701   5.095  19.515  0.00  0.00    +0.000 OA
ATOM     18  H   UNL     1       3.368   6.445  16.985  0.00  0.00    +0.000 HD
BRANCH  16  19
ATOM     19  C   UNL     1       5.534   5.065  17.267  0.00  0.00    +0.000 C 
ATOM     20  C   UNL     1       6.405   6.252  16.850  0.00  0.00    +0.000 C 
ATOM     21  C   UNL     1       7.372   5.844  15.732  0.00  0.00    +0.000 C 
ATOM     22  N   UNL     1       6.657   5.270  14.582  0.00  0.00    +0.000 NA
ATOM     23  C   UNL     1       7.593   4.891  13.519  0.00  0.00    +0.000 C 
ATOM     24  C   UNL     1       5.857   4.101  14.970  0.00  0.00    +0.000 C 
ATOM     25  C   UNL     1       4.840   4.471  16.041  0.00  0.00    +0.000 C 
ENDBRANCH  16  19
ENDBRANCH   1  15
BRANCH   1  26
ATOM     26  C   UNL     1       2.470   5.918  20.230  0.00  0.00    +0.000 C 
BRANCH  26  27
ATOM     27  C   UNL     1       1.419   4.890  20.651  0.00  0.00    +0.000 C 
BRANCH  27  28
ATOM     28  C   UNL     1       2.013   3.685  21.375  0.00  0.00    +0.000 C 
BRANCH  28  29
ATOM     29  C   UNL     1       1.599   2.421  20.623  0.00  0.00    +0.000 C 
BRANCH  29  30
ATOM     30  C   UNL     1       0.967   2.728  19.275  0.00  0.00    +0.000 C 
BRANCH  30  32
ATOM     31  C   UNL     1       3.171   1.761  18.390  0.00  0.00    +0.000 C 
ATOM     32  C   UNL     1       1.988   2.658  18.151  0.00  0.00    +0.000 C 
ATOM     33  O   UNL     1       1.881   3.291  17.107  0.00  0.00    +0.000 OA
ENDBRANCH  30  32
ENDBRANCH  29  30
ENDBRANCH  28  29
ENDBRANCH  27  28
ENDBRANCH  26  27
ENDBRANCH   1  26
TORSDOF 10
ENDMDL
