MODEL 1
REMARK VINA RESULT:      -7.3      0.000      0.000
REMARK  Name = 
REMARK  16 active torsions:
REMARK  status: ('A' for Active; 'I' for Inactive)
REMARK    1  A    between atoms: C_1  and  C_2
REMARK    2  A    between atoms: C_2  and  C_3
REMARK    3  A    between atoms: C_4  and  C_5
REMARK    4  A    between atoms: C_5  and  C_6
REMARK    5  A    between atoms: C_6  and  C_7
REMARK    6  A    between atoms: C_7  and  C_8
REMARK    7  A    between atoms: C_9  and  C_10
REMARK    8  A    between atoms: C_10  and  C_11
REMARK    9  A    between atoms: C_11  and  C_12
REMARK   10  A    between atoms: C_12  and  C_13
REMARK   11  A    between atoms: C_14  and  C_15
REMARK   12  A    between atoms: C_15  and  C_16
REMARK   13  A    between atoms: C_17  and  C_18
REMARK   14  A    between atoms: C_20  and  O_21
REMARK   15  A    between atoms: C_22  and  O_23
REMARK   16  A    between atoms: C_24  and  O_25
REMARK                            x       y       z     vdW  Elec       q    Type
REMARK                         _______ _______ _______ _____ _____    ______ ____
ROOT
ATOM      1  C   UNL     1       1.629   3.745  19.999  0.00  0.00    +0.000 C 
ATOM      2  C   UNL     1       1.907   3.467  21.450  0.00  0.00    +0.000 C 
ATOM      3  C   UNL     1       1.675   4.981  19.461  0.00  0.00    +0.000 C 
ENDROOT
BRANCH   1   4
ATOM      4  C   UNL     1       1.308   2.549  19.124  0.00  0.00    +0.000 C 
BRANCH   4   5
ATOM      5  C   UNL     1       2.554   2.069  18.388  0.00  0.00    +0.000 C 
BRANCH   5   8
ATOM      6  C   UNL     1       4.443   3.652  17.917  0.00  0.00    +0.000 C 
ATOM      7  C   UNL     1       3.871   3.882  16.539  0.00  0.00    +0.000 C 
ATOM      8  C   UNL     1       3.816   2.804  18.762  0.00  0.00    +0.000 C 
BRANCH   6   9
ATOM      9  C   UNL     1       5.706   4.371  18.364  0.00  0.00    +0.000 C 
BRANCH   9  10
ATOM     10  C   UNL     1       6.752   4.617  17.269  0.00  0.00    +0.000 C 
BRANCH  10  14
ATOM     11  C   UNL     1       7.832   8.338  17.650  0.00  0.00    +0.000 C 
ATOM     12  C   UNL     1       7.676   6.876  17.939  0.00  0.00    +0.000 C 
ATOM     13  C   UNL     1       8.216   6.366  19.252  0.00  0.00    +0.000 C 
ATOM     14  C   UNL     1       7.074   6.066  17.045  0.00  0.00    +0.000 C 
ENDBRANCH  10  14
ENDBRANCH   9  10
ENDBRANCH   6   9
ENDBRANCH   5   8
ENDBRANCH   4   5
ENDBRANCH   1   4
BRANCH   3  15
ATOM     15  C   UNL     1       2.211   6.229  20.103  0.00  0.00    +0.000 C 
BRANCH  15  16
ATOM     16  C   UNL     1       1.968   7.589  19.473  0.00  0.00    +0.000 A 
ATOM     17  C   UNL     1       2.570   8.078  18.286  0.00  0.00    +0.000 A 
ATOM     18  C   UNL     1       3.536   7.281  17.451  0.00  0.00    +0.000 C 
ATOM     19  C   UNL     1       2.253   9.381  17.820  0.00  0.00    +0.000 A 
ATOM     20  C   UNL     1       1.410  10.211  18.551  0.00  0.00    +0.000 A 
ATOM     21  C   UNL     1       0.882   9.766  19.746  0.00  0.00    +0.000 A 
ATOM     22  C   UNL     1       1.158   8.483  20.202  0.00  0.00    +0.000 A 
BRANCH  20  23
ATOM     23  O   UNL     1       1.093  11.474  18.141  0.00  0.00    +0.000 OA
ATOM     24  H   UNL     1       1.838  11.816  17.615  0.00  0.00    +0.000 HD
ENDBRANCH  20  23
BRANCH  21  25
ATOM     25  O   UNL     1       0.090  10.584  20.509  0.00  0.00    +0.000 OA
ATOM     26  H   UNL     1      -0.652  10.008  20.782  0.00  0.00    +0.000 HD
ENDBRANCH  21  25
BRANCH  22  27
ATOM     27  O   UNL     1       0.633   8.115  21.416  0.00  0.00    +0.000 OA
ATOM     28  H   UNL     1      -0.163   8.676  21.520  0.00  0.00    +0.000 HD
ENDBRANCH  22  27
ENDBRANCH  15  16
ENDBRANCH   3  15
TORSDOF 11
ENDMDL
MODEL 2
REMARK VINA RESULT:      -7.3      4.269      7.359
REMARK  Name = 
REMARK  16 active torsions:
REMARK  status: ('A' for Active; 'I' for Inactive)
REMARK    1  A    between atoms: C_1  and  C_2
REMARK    2  A    between atoms: C_2  and  C_3
REMARK    3  A    between atoms: C_4  and  C_5
REMARK    4  A    between atoms: C_5  and  C_6
REMARK    5  A    between atoms: C_6  and  C_7
REMARK    6  A    between atoms: C_7  and  C_8
REMARK    7  A    between atoms: C_9  and  C_10
REMARK    8  A    between atoms: C_10  and  C_11
REMARK    9  A    between atoms: C_11  and  C_12
REMARK   10  A    between atoms: C_12  and  C_13
REMARK   11  A    between atoms: C_14  and  C_15
REMARK   12  A    between atoms: C_15  and  C_16
REMARK   13  A    between atoms: C_17  and  C_18
REMARK   14  A    between atoms: C_20  and  O_21
REMARK   15  A    between atoms: C_22  and  O_23
REMARK   16  A    between atoms: C_24  and  O_25
REMARK                            x       y       z     vdW  Elec       q    Type
REMARK                         _______ _______ _______ _____ _____    ______ ____
ROOT
ATOM      1  C   UNL     1       7.034   6.266  17.502  0.00  0.00    +0.000 C 
ATOM      2  C   UNL     1       7.512   5.020  16.809  0.00  0.00    +0.000 C 
ATOM      3  C   UNL     1       5.791   6.765  17.351  0.00  0.00    +0.000 C 
ENDROOT
BRANCH   1   4
ATOM      4  C   UNL     1       8.020   6.953  18.427  0.00  0.00    +0.000 C 
BRANCH   4   5
ATOM      5  C   UNL     1       8.128   8.438  18.095  0.00  0.00    +0.000 C 
BRANCH   5   8
ATOM      6  C   UNL     1       9.201  10.552  18.916  0.00  0.00    +0.000 C 
ATOM      7  C   UNL     1       8.643  11.271  17.711  0.00  0.00    +0.000 C 
ATOM      8  C   UNL     1       8.951   9.234  19.076  0.00  0.00    +0.000 C 
BRANCH   6   9
ATOM      9  C   UNL     1      10.029  11.298  19.952  0.00  0.00    +0.000 C 
BRANCH   9  10
ATOM     10  C   UNL     1      11.427  11.732  19.495  0.00  0.00    +0.000 C 
BRANCH  10  14
ATOM     11  C   UNL     1      12.287  15.510  19.108  0.00  0.00    +0.000 C 
ATOM     12  C   UNL     1      11.868  14.114  18.759  0.00  0.00    +0.000 C 
ATOM     13  C   UNL     1      11.621  13.806  17.303  0.00  0.00    +0.000 C 
ATOM     14  C   UNL     1      11.723  13.186  19.727  0.00  0.00    +0.000 C 
ENDBRANCH  10  14
ENDBRANCH   9  10
ENDBRANCH   6   9
ENDBRANCH   5   8
ENDBRANCH   4   5
ENDBRANCH   1   4
BRANCH   3  15
ATOM     15  C   UNL     1       4.620   6.097  16.688  0.00  0.00    +0.000 C 
BRANCH  15  16
ATOM     16  C   UNL     1       3.647   5.258  17.496  0.00  0.00    +0.000 A 
ATOM     17  C   UNL     1       2.711   5.746  18.443  0.00  0.00    +0.000 A 
ATOM     18  C   UNL     1       2.531   7.207  18.760  0.00  0.00    +0.000 C 
ATOM     19  C   UNL     1       1.868   4.837  19.134  0.00  0.00    +0.000 A 
ATOM     20  C   UNL     1       1.997   3.466  18.945  0.00  0.00    +0.000 A 
ATOM     21  C   UNL     1       2.959   2.983  18.080  0.00  0.00    +0.000 A 
ATOM     22  C   UNL     1       3.771   3.860  17.373  0.00  0.00    +0.000 A 
BRANCH  20  23
ATOM     23  O   UNL     1       1.213   2.561  19.602  0.00  0.00    +0.000 OA
ATOM     24  H   UNL     1       1.762   1.785  19.814  0.00  0.00    +0.000 HD
ENDBRANCH  20  23
BRANCH  21  25
ATOM     25  O   UNL     1       3.138   1.634  17.916  0.00  0.00    +0.000 OA
ATOM     26  H   UNL     1       4.105   1.536  17.802  0.00  0.00    +0.000 HD
ENDBRANCH  21  25
BRANCH  22  27
ATOM     27  O   UNL     1       4.734   3.315  16.559  0.00  0.00    +0.000 OA
ATOM     28  H   UNL     1       4.478   2.373  16.472  0.00  0.00    +0.000 HD
ENDBRANCH  22  27
ENDBRANCH  15  16
ENDBRANCH   3  15
TORSDOF 11
ENDMDL
MODEL 3
REMARK VINA RESULT:      -7.2      3.165      6.995
REMARK  Name = 
REMARK  16 active torsions:
REMARK  status: ('A' for Active; 'I' for Inactive)
REMARK    1  A    between atoms: C_1  and  C_2
REMARK    2  A    between atoms: C_2  and  C_3
REMARK    3  A    between atoms: C_4  and  C_5
REMARK    4  A    between atoms: C_5  and  C_6
REMARK    5  A    between atoms: C_6  and  C_7
REMARK    6  A    between atoms: C_7  and  C_8
REMARK    7  A    between atoms: C_9  and  C_10
REMARK    8  A    between atoms: C_10  and  C_11
REMARK    9  A    between atoms: C_11  and  C_12
REMARK   10  A    between atoms: C_12  and  C_13
REMARK   11  A    between atoms: C_14  and  C_15
REMARK   12  A    between atoms: C_15  and  C_16
REMARK   13  A    between atoms: C_17  and  C_18
REMARK   14  A    between atoms: C_20  and  O_21
REMARK   15  A    between atoms: C_22  and  O_23
REMARK   16  A    between atoms: C_24  and  O_25
REMARK                            x       y       z     vdW  Elec       q    Type
REMARK                         _______ _______ _______ _____ _____    ______ ____
ROOT
ATOM      1  C   UNL     1       5.150   5.587  17.442  0.00  0.00    +0.000 C 
ATOM      2  C   UNL     1       5.985   5.346  18.669  0.00  0.00    +0.000 C 
ATOM      3  C   UNL     1       4.423   4.623  16.842  0.00  0.00    +0.000 C 
ENDROOT
BRANCH   1   4
ATOM      4  C   UNL     1       5.131   7.002  16.896  0.00  0.00    +0.000 C 
BRANCH   4   5
ATOM      5  C   UNL     1       3.750   7.627  17.065  0.00  0.00    +0.000 C 
BRANCH   5   8
ATOM      6  C   UNL     1       2.113   8.074  18.913  0.00  0.00    +0.000 C 
ATOM      7  C   UNL     1       1.683   9.330  18.192  0.00  0.00    +0.000 C 
ATOM      8  C   UNL     1       3.076   7.296  18.372  0.00  0.00    +0.000 C 
BRANCH   6   9
ATOM      9  C   UNL     1       1.465   7.674  20.229  0.00  0.00    +0.000 C 
BRANCH   9  10
ATOM     10  C   UNL     1       1.734   8.613  21.413  0.00  0.00    +0.000 C 
BRANCH  10  14
ATOM     11  C   UNL     1      -1.158  10.793  22.842  0.00  0.00    +0.000 C 
ATOM     12  C   UNL     1       0.024  10.377  22.019  0.00  0.00    +0.000 C 
ATOM     13  C   UNL     1       0.648  11.419  21.125  0.00  0.00    +0.000 C 
ATOM     14  C   UNL     1       0.492   9.115  22.090  0.00  0.00    +0.000 C 
ENDBRANCH  10  14
ENDBRANCH   9  10
ENDBRANCH   6   9
ENDBRANCH   5   8
ENDBRANCH   4   5
ENDBRANCH   1   4
BRANCH   3  15
ATOM     15  C   UNL     1       4.124   3.249  17.373  0.00  0.00    +0.000 C 
BRANCH  15  16
ATOM     16  C   UNL     1       3.249   3.067  18.600  0.00  0.00    +0.000 A 
ATOM     17  C   UNL     1       1.924   3.548  18.758  0.00  0.00    +0.000 A 
ATOM     18  C   UNL     1       1.176   4.298  17.689  0.00  0.00    +0.000 C 
ATOM     19  C   UNL     1       1.227   3.309  19.972  0.00  0.00    +0.000 A 
ATOM     20  C   UNL     1       1.854   2.669  21.036  0.00  0.00    +0.000 A 
ATOM     21  C   UNL     1       3.169   2.267  20.912  0.00  0.00    +0.000 A 
ATOM     22  C   UNL     1       3.855   2.466  19.721  0.00  0.00    +0.000 A 
BRANCH  20  23
ATOM     23  O   UNL     1       1.221   2.434  22.222  0.00  0.00    +0.000 OA
ATOM     24  H   UNL     1       0.605   1.691  22.093  0.00  0.00    +0.000 HD
ENDBRANCH  20  23
BRANCH  21  25
ATOM     25  O   UNL     1       3.823   1.680  21.964  0.00  0.00    +0.000 OA
ATOM     26  H   UNL     1       3.153   1.659  22.677  0.00  0.00    +0.000 HD
ENDBRANCH  21  25
BRANCH  22  27
ATOM     27  O   UNL     1       5.172   2.078  19.676  0.00  0.00    +0.000 OA
ATOM     28  H   UNL     1       5.651   2.775  20.169  0.00  0.00    +0.000 HD
ENDBRANCH  22  27
ENDBRANCH  15  16
ENDBRANCH   3  15
TORSDOF 11
ENDMDL
MODEL 4
REMARK VINA RESULT:      -7.1      1.163      1.733
REMARK  Name = 
REMARK  16 active torsions:
REMARK  status: ('A' for Active; 'I' for Inactive)
REMARK    1  A    between atoms: C_1  and  C_2
REMARK    2  A    between atoms: C_2  and  C_3
REMARK    3  A    between atoms: C_4  and  C_5
REMARK    4  A    between atoms: C_5  and  C_6
REMARK    5  A    between atoms: C_6  and  C_7
REMARK    6  A    between atoms: C_7  and  C_8
REMARK    7  A    between atoms: C_9  and  C_10
REMARK    8  A    between atoms: C_10  and  C_11
REMARK    9  A    between atoms: C_11  and  C_12
REMARK   10  A    between atoms: C_12  and  C_13
REMARK   11  A    between atoms: C_14  and  C_15
REMARK   12  A    between atoms: C_15  and  C_16
REMARK   13  A    between atoms: C_17  and  C_18
REMARK   14  A    between atoms: C_20  and  O_21
REMARK   15  A    between atoms: C_22  and  O_23
REMARK   16  A    between atoms: C_24  and  O_25
REMARK                            x       y       z     vdW  Elec       q    Type
REMARK                         _______ _______ _______ _____ _____    ______ ____
ROOT
ATOM      1  C   UNL     1       1.437   4.370  20.521  0.00  0.00    +0.000 C 
ATOM      2  C   UNL     1       2.621   3.945  21.345  0.00  0.00    +0.000 C 
ATOM      3  C   UNL     1       1.212   5.648  20.156  0.00  0.00    +0.000 C 
ENDROOT
BRANCH   1   4
ATOM      4  C   UNL     1       0.487   3.275  20.077  0.00  0.00    +0.000 C 
BRANCH   4   5
ATOM      5  C   UNL     1       0.863   2.763  18.690  0.00  0.00    +0.000 C 
BRANCH   5   8
ATOM      6  C   UNL     1       3.214   3.037  17.858  0.00  0.00    +0.000 C 
ATOM      7  C   UNL     1       3.524   1.645  18.358  0.00  0.00    +0.000 C 
ATOM      8  C   UNL     1       1.971   3.538  18.023  0.00  0.00    +0.000 C 
BRANCH   6   9
ATOM      9  C   UNL     1       4.282   3.869  17.164  0.00  0.00    +0.000 C 
BRANCH   9  10
ATOM     10  C   UNL     1       4.448   5.303  17.685  0.00  0.00    +0.000 C 
BRANCH  10  14
ATOM     11  C   UNL     1       7.969   5.820  19.264  0.00  0.00    +0.000 C 
ATOM     12  C   UNL     1       6.866   5.790  18.248  0.00  0.00    +0.000 C 
ATOM     13  C   UNL     1       7.228   6.115  16.820  0.00  0.00    +0.000 C 
ATOM     14  C   UNL     1       5.607   5.483  18.621  0.00  0.00    +0.000 C 
ENDBRANCH  10  14
ENDBRANCH   9  10
ENDBRANCH   6   9
ENDBRANCH   5   8
ENDBRANCH   4   5
ENDBRANCH   1   4
BRANCH   3  15
ATOM     15  C   UNL     1       2.157   6.808  20.286  0.00  0.00    +0.000 C 
BRANCH  15  16
ATOM     16  C   UNL     1       1.697   8.220  19.971  0.00  0.00    +0.000 A 
ATOM     17  C   UNL     1       1.707   8.836  18.694  0.00  0.00    +0.000 A 
ATOM     18  C   UNL     1       2.161   8.142  17.438  0.00  0.00    +0.000 C 
ATOM     19  C   UNL     1       1.254  10.174  18.552  0.00  0.00    +0.000 A 
ATOM     20  C   UNL     1       0.865  10.913  19.664  0.00  0.00    +0.000 A 
ATOM     21  C   UNL     1       0.925  10.341  20.919  0.00  0.00    +0.000 A 
ATOM     22  C   UNL     1       1.337   9.023  21.072  0.00  0.00    +0.000 A 
BRANCH  20  23
ATOM     23  O   UNL     1       0.436  12.205  19.569  0.00  0.00    +0.000 OA
ATOM     24  H   UNL     1       1.063  12.690  19.002  0.00  0.00    +0.000 HD
ENDBRANCH  20  23
BRANCH  21  25
ATOM     25  O   UNL     1       0.594  11.066  22.035  0.00  0.00    +0.000 OA
ATOM     26  H   UNL     1       1.430  11.510  22.285  0.00  0.00    +0.000 HD
ENDBRANCH  21  25
BRANCH  22  27
ATOM     27  O   UNL     1       1.412   8.527  22.351  0.00  0.00    +0.000 OA
ATOM     28  H   UNL     1       1.908   9.208  22.850  0.00  0.00    +0.000 HD
ENDBRANCH  22  27
ENDBRANCH  15  16
ENDBRANCH   3  15
TORSDOF 11
ENDMDL
MODEL 5
REMARK VINA RESULT:      -7.1      4.024      6.968
REMARK  Name = 
REMARK  16 active torsions:
REMARK  status: ('A' for Active; 'I' for Inactive)
REMARK    1  A    between atoms: C_1  and  C_2
REMARK    2  A    between atoms: C_2  and  C_3
REMARK    3  A    between atoms: C_4  and  C_5
REMARK    4  A    between atoms: C_5  and  C_6
REMARK    5  A    between atoms: C_6  and  C_7
REMARK    6  A    between atoms: C_7  and  C_8
REMARK    7  A    between atoms: C_9  and  C_10
REMARK    8  A    between atoms: C_10  and  C_11
REMARK    9  A    between atoms: C_11  and  C_12
REMARK   10  A    between atoms: C_12  and  C_13
REMARK   11  A    between atoms: C_14  and  C_15
REMARK   12  A    between atoms: C_15  and  C_16
REMARK   13  A    between atoms: C_17  and  C_18
REMARK   14  A    between atoms: C_20  and  O_21
REMARK   15  A    between atoms: C_22  and  O_23
REMARK   16  A    between atoms: C_24  and  O_25
REMARK                            x       y       z     vdW  Elec       q    Type
REMARK                         _______ _______ _______ _____ _____    ______ ____
ROOT
ATOM      1  C   UNL     1       6.117   6.325  17.135  0.00  0.00    +0.000 C 
ATOM      2  C   UNL     1       6.154   5.541  15.852  0.00  0.00    +0.000 C 
ATOM      3  C   UNL     1       4.972   6.672  17.755  0.00  0.00    +0.000 C 
ENDROOT
BRANCH   1   4
ATOM      4  C   UNL     1       7.454   6.703  17.742  0.00  0.00    +0.000 C 
BRANCH   4   5
ATOM      5  C   UNL     1       7.706   8.201  17.600  0.00  0.00    +0.000 C 
BRANCH   5   8
ATOM      6  C   UNL     1       8.949  10.084  18.698  0.00  0.00    +0.000 C 
ATOM      7  C   UNL     1       8.277  11.046  17.746  0.00  0.00    +0.000 C 
ATOM      8  C   UNL     1       8.671   8.765  18.613  0.00  0.00    +0.000 C 
BRANCH   6   9
ATOM      9  C   UNL     1       9.922  10.588  19.752  0.00  0.00    +0.000 C 
BRANCH   9  10
ATOM     10  C   UNL     1       9.320  11.503  20.827  0.00  0.00    +0.000 C 
BRANCH  10  14
ATOM     11  C   UNL     1      10.303  15.159  21.738  0.00  0.00    +0.000 C 
ATOM     12  C   UNL     1       9.669  13.803  21.825  0.00  0.00    +0.000 C 
ATOM     13  C   UNL     1       8.697  13.561  22.952  0.00  0.00    +0.000 C 
ATOM     14  C   UNL     1       9.974  12.851  20.919  0.00  0.00    +0.000 C 
ENDBRANCH  10  14
ENDBRANCH   9  10
ENDBRANCH   6   9
ENDBRANCH   5   8
ENDBRANCH   4   5
ENDBRANCH   1   4
BRANCH   3  15
ATOM     15  C   UNL     1       3.586   6.180  17.445  0.00  0.00    +0.000 C 
BRANCH  15  16
ATOM     16  C   UNL     1       2.810   5.360  18.460  0.00  0.00    +0.000 A 
ATOM     17  C   UNL     1       2.186   5.857  19.631  0.00  0.00    +0.000 A 
ATOM     18  C   UNL     1       2.183   7.311  20.022  0.00  0.00    +0.000 C 
ATOM     19  C   UNL     1       1.499   4.966  20.497  0.00  0.00    +0.000 A 
ATOM     20  C   UNL     1       1.491   3.598  20.246  0.00  0.00    +0.000 A 
ATOM     21  C   UNL     1       2.163   3.102  19.147  0.00  0.00    +0.000 A 
ATOM     22  C   UNL     1       2.813   3.963  18.273  0.00  0.00    +0.000 A 
BRANCH  20  23
ATOM     23  O   UNL     1       0.854   2.709  21.063  0.00  0.00    +0.000 OA
ATOM     24  H   UNL     1       0.173   2.251  20.538  0.00  0.00    +0.000 HD
ENDBRANCH  20  23
BRANCH  21  25
ATOM     25  O   UNL     1       2.211   1.753  18.908  0.00  0.00    +0.000 OA
ATOM     26  H   UNL     1       1.889   1.664  17.988  0.00  0.00    +0.000 HD
ENDBRANCH  21  25
BRANCH  22  27
ATOM     27  O   UNL     1       3.494   3.402  17.221  0.00  0.00    +0.000 OA
ATOM     28  H   UNL     1       2.869   3.450  16.469  0.00  0.00    +0.000 HD
ENDBRANCH  22  27
ENDBRANCH  15  16
ENDBRANCH   3  15
TORSDOF 11
ENDMDL
MODEL 6
REMARK VINA RESULT:      -7.0      2.331      4.040
REMARK  Name = 
REMARK  16 active torsions:
REMARK  status: ('A' for Active; 'I' for Inactive)
REMARK    1  A    between atoms: C_1  and  C_2
REMARK    2  A    between atoms: C_2  and  C_3
REMARK    3  A    between atoms: C_4  and  C_5
REMARK    4  A    between atoms: C_5  and  C_6
REMARK    5  A    between atoms: C_6  and  C_7
REMARK    6  A    between atoms: C_7  and  C_8
REMARK    7  A    between atoms: C_9  and  C_10
REMARK    8  A    between atoms: C_10  and  C_11
REMARK    9  A    between atoms: C_11  and  C_12
REMARK   10  A    between atoms: C_12  and  C_13
REMARK   11  A    between atoms: C_14  and  C_15
REMARK   12  A    between atoms: C_15  and  C_16
REMARK   13  A    between atoms: C_17  and  C_18
REMARK   14  A    between atoms: C_20  and  O_21
REMARK   15  A    between atoms: C_22  and  O_23
REMARK   16  A    between atoms: C_24  and  O_25
REMARK                            x       y       z     vdW  Elec       q    Type
REMARK                         _______ _______ _______ _____ _____    ______ ____
ROOT
ATOM      1  C   UNL     1       2.975   5.456  18.770  0.00  0.00    +0.000 C 
ATOM      2  C   UNL     1       1.995   4.721  17.899  0.00  0.00    +0.000 C 
ATOM      3  C   UNL     1       3.034   6.801  18.843  0.00  0.00    +0.000 C 
ENDROOT
BRANCH   1   4
ATOM      4  C   UNL     1       3.908   4.609  19.614  0.00  0.00    +0.000 C 
BRANCH   4   5
ATOM      5  C   UNL     1       5.364   4.976  19.342  0.00  0.00    +0.000 C 
BRANCH   5   8
ATOM      6  C   UNL     1       6.452   5.249  17.098  0.00  0.00    +0.000 C 
ATOM      7  C   UNL     1       6.538   6.736  17.351  0.00  0.00    +0.000 C 
ATOM      8  C   UNL     1       5.902   4.448  18.036  0.00  0.00    +0.000 C 
BRANCH   6   9
ATOM      9  C   UNL     1       6.988   4.649  15.807  0.00  0.00    +0.000 C 
BRANCH   9  10
ATOM     10  C   UNL     1       6.226   5.030  14.532  0.00  0.00    +0.000 C 
BRANCH  10  14
ATOM     11  C   UNL     1       5.573   2.421  11.716  0.00  0.00    +0.000 C 
ATOM     12  C   UNL     1       6.199   3.550  12.479  0.00  0.00    +0.000 C 
ATOM     13  C   UNL     1       7.314   4.309  11.805  0.00  0.00    +0.000 C 
ATOM     14  C   UNL     1       5.766   3.855  13.719  0.00  0.00    +0.000 C 
ENDBRANCH  10  14
ENDBRANCH   9  10
ENDBRANCH   6   9
ENDBRANCH   5   8
ENDBRANCH   4   5
ENDBRANCH   1   4
BRANCH   3  15
ATOM     15  C   UNL     1       2.044   7.784  18.285  0.00  0.00    +0.000 C 
BRANCH  15  16
ATOM     16  C   UNL     1       1.609   8.990  19.098  0.00  0.00    +0.000 A 
ATOM     17  C   UNL     1       1.059   8.962  20.404  0.00  0.00    +0.000 A 
ATOM     18  C   UNL     1       0.855   7.698  21.195  0.00  0.00    +0.000 C 
ATOM     19  C   UNL     1       0.688  10.176  21.040  0.00  0.00    +0.000 A 
ATOM     20  C   UNL     1       0.792  11.389  20.368  0.00  0.00    +0.000 A 
ATOM     21  C   UNL     1       1.256  11.412  19.069  0.00  0.00    +0.000 A 
ATOM     22  C   UNL     1       1.652  10.237  18.443  0.00  0.00    +0.000 A 
BRANCH  20  23
ATOM     23  O   UNL     1       0.431  12.574  20.942  0.00  0.00    +0.000 OA
ATOM     24  H   UNL     1       1.087  13.247  20.681  0.00  0.00    +0.000 HD
ENDBRANCH  20  23
BRANCH  21  25
ATOM     25  O   UNL     1       1.319  12.590  18.370  0.00  0.00    +0.000 OA
ATOM     26  H   UNL     1       1.360  12.308  17.433  0.00  0.00    +0.000 HD
ENDBRANCH  21  25
BRANCH  22  27
ATOM     27  O   UNL     1       2.068  10.325  17.137  0.00  0.00    +0.000 OA
ATOM     28  H   UNL     1       1.345   9.912  16.621  0.00  0.00    +0.000 HD
ENDBRANCH  22  27
ENDBRANCH  15  16
ENDBRANCH   3  15
TORSDOF 11
ENDMDL
MODEL 7
REMARK VINA RESULT:      -7.0      3.664      7.573
REMARK  Name = 
REMARK  16 active torsions:
REMARK  status: ('A' for Active; 'I' for Inactive)
REMARK    1  A    between atoms: C_1  and  C_2
REMARK    2  A    between atoms: C_2  and  C_3
REMARK    3  A    between atoms: C_4  and  C_5
REMARK    4  A    between atoms: C_5  and  C_6
REMARK    5  A    between atoms: C_6  and  C_7
REMARK    6  A    between atoms: C_7  and  C_8
REMARK    7  A    between atoms: C_9  and  C_10
REMARK    8  A    between atoms: C_10  and  C_11
REMARK    9  A    between atoms: C_11  and  C_12
REMARK   10  A    between atoms: C_12  and  C_13
REMARK   11  A    between atoms: C_14  and  C_15
REMARK   12  A    between atoms: C_15  and  C_16
REMARK   13  A    between atoms: C_17  and  C_18
REMARK   14  A    between atoms: C_20  and  O_21
REMARK   15  A    between atoms: C_22  and  O_23
REMARK   16  A    between atoms: C_24  and  O_25
REMARK                            x       y       z     vdW  Elec       q    Type
REMARK                         _______ _______ _______ _____ _____    ______ ____
ROOT
ATOM      1  C   UNL     1       2.439   4.962  20.393  0.00  0.00    +0.000 C 
ATOM      2  C   UNL     1       1.892   3.599  20.715  0.00  0.00    +0.000 C 
ATOM      3  C   UNL     1       3.642   5.158  19.819  0.00  0.00    +0.000 C 
ENDROOT
BRANCH   1   4
ATOM      4  C   UNL     1       1.553   6.148  20.723  0.00  0.00    +0.000 C 
BRANCH   4   5
ATOM      5  C   UNL     1       2.046   7.404  20.013  0.00  0.00    +0.000 C 
BRANCH   5   8
ATOM      6  C   UNL     1       0.957   9.579  19.399  0.00  0.00    +0.000 C 
ATOM      7  C   UNL     1       1.432   9.385  17.979  0.00  0.00    +0.000 C 
ATOM      8  C   UNL     1       1.254   8.647  20.331  0.00  0.00    +0.000 C 
BRANCH   6   9
ATOM      9  C   UNL     1       0.142  10.804  19.785  0.00  0.00    +0.000 C 
BRANCH   9  10
ATOM     10  C   UNL     1      -0.594  11.501  18.633  0.00  0.00    +0.000 C 
BRANCH  10  14
ATOM     11  C   UNL     1      -4.320  10.681  17.853  0.00  0.00    +0.000 C 
ATOM     12  C   UNL     1      -2.823  10.663  17.774  0.00  0.00    +0.000 C 
ATOM     13  C   UNL     1      -2.195   9.863  16.660  0.00  0.00    +0.000 C 
ATOM     14  C   UNL     1      -2.086  11.343  18.677  0.00  0.00    +0.000 C 
ENDBRANCH  10  14
ENDBRANCH   9  10
ENDBRANCH   6   9
ENDBRANCH   5   8
ENDBRANCH   4   5
ENDBRANCH   1   4
BRANCH   3  15
ATOM     15  C   UNL     1       4.534   4.117  19.203  0.00  0.00    +0.000 C 
BRANCH  15  16
ATOM     16  C   UNL     1       5.458   4.472  18.052  0.00  0.00    +0.000 A 
ATOM     17  C   UNL     1       6.704   5.142  18.159  0.00  0.00    +0.000 A 
ATOM     18  C   UNL     1       7.307   5.576  19.468  0.00  0.00    +0.000 C 
ATOM     19  C   UNL     1       7.459   5.417  16.989  0.00  0.00    +0.000 A 
ATOM     20  C   UNL     1       6.959   5.099  15.730  0.00  0.00    +0.000 A 
ATOM     21  C   UNL     1       5.713   4.516  15.618  0.00  0.00    +0.000 A 
ATOM     22  C   UNL     1       4.974   4.212  16.755  0.00  0.00    +0.000 A 
BRANCH  20  23
ATOM     23  O   UNL     1       7.651   5.361  14.583  0.00  0.00    +0.000 OA
ATOM     24  H   UNL     1       8.425   5.904  14.815  0.00  0.00    +0.000 HD
ENDBRANCH  20  23
BRANCH  21  25
ATOM     25  O   UNL     1       5.179   4.240  14.387  0.00  0.00    +0.000 OA
ATOM     26  H   UNL     1       5.189   3.263  14.337  0.00  0.00    +0.000 HD
ENDBRANCH  21  25
BRANCH  22  27
ATOM     27  O   UNL     1       3.727   3.668  16.572  0.00  0.00    +0.000 OA
ATOM     28  H   UNL     1       3.204   4.384  16.156  0.00  0.00    +0.000 HD
ENDBRANCH  22  27
ENDBRANCH  15  16
ENDBRANCH   3  15
TORSDOF 11
ENDMDL
MODEL 8
REMARK VINA RESULT:      -7.0      3.836      7.146
REMARK  Name = 
REMARK  16 active torsions:
REMARK  status: ('A' for Active; 'I' for Inactive)
REMARK    1  A    between atoms: C_1  and  C_2
REMARK    2  A    between atoms: C_2  and  C_3
REMARK    3  A    between atoms: C_4  and  C_5
REMARK    4  A    between atoms: C_5  and  C_6
REMARK    5  A    between atoms: C_6  and  C_7
REMARK    6  A    between atoms: C_7  and  C_8
REMARK    7  A    between atoms: C_9  and  C_10
REMARK    8  A    between atoms: C_10  and  C_11
REMARK    9  A    between atoms: C_11  and  C_12
REMARK   10  A    between atoms: C_12  and  C_13
REMARK   11  A    between atoms: C_14  and  C_15
REMARK   12  A    between atoms: C_15  and  C_16
REMARK   13  A    between atoms: C_17  and  C_18
REMARK   14  A    between atoms: C_20  and  O_21
REMARK   15  A    between atoms: C_22  and  O_23
REMARK   16  A    between atoms: C_24  and  O_25
REMARK                            x       y       z     vdW  Elec       q    Type
REMARK                         _______ _______ _______ _____ _____    ______ ____
ROOT
ATOM      1  C   UNL     1       6.782   6.139  17.983  0.00  0.00    +0.000 C 
ATOM      2  C   UNL     1       7.796   5.046  18.179  0.00  0.00    +0.000 C 
ATOM      3  C   UNL     1       5.521   6.069  18.453  0.00  0.00    +0.000 C 
ENDROOT
BRANCH   1   4
ATOM      4  C   UNL     1       7.247   7.375  17.238  0.00  0.00    +0.000 C 
BRANCH   4   5
ATOM      5  C   UNL     1       8.127   8.245  18.130  0.00  0.00    +0.000 C 
BRANCH   5   8
ATOM      6  C   UNL     1       8.929  10.612  18.353  0.00  0.00    +0.000 C 
ATOM      7  C   UNL     1       9.403  10.291  19.751  0.00  0.00    +0.000 C 
ATOM      8  C   UNL     1       8.337   9.646  17.616  0.00  0.00    +0.000 C 
BRANCH   6   9
ATOM      9  C   UNL     1       9.122  12.002  17.767  0.00  0.00    +0.000 C 
BRANCH   9  10
ATOM     10  C   UNL     1       9.999  12.953  18.592  0.00  0.00    +0.000 C 
BRANCH  10  14
ATOM     11  C   UNL     1       8.688  16.606  18.276  0.00  0.00    +0.000 C 
ATOM     12  C   UNL     1       8.859  15.205  18.781  0.00  0.00    +0.000 C 
ATOM     13  C   UNL     1       7.934  14.746  19.881  0.00  0.00    +0.000 C 
ATOM     14  C   UNL     1       9.810  14.404  18.258  0.00  0.00    +0.000 C 
ENDBRANCH  10  14
ENDBRANCH   9  10
ENDBRANCH   6   9
ENDBRANCH   5   8
ENDBRANCH   4   5
ENDBRANCH   1   4
BRANCH   3  15
ATOM     15  C   UNL     1       4.965   5.055  19.412  0.00  0.00    +0.000 C 
BRANCH  15  16
ATOM     16  C   UNL     1       3.787   4.182  19.020  0.00  0.00    +0.000 A 
ATOM     17  C   UNL     1       3.648   3.467  17.803  0.00  0.00    +0.000 A 
ATOM     18  C   UNL     1       4.693   3.453  16.720  0.00  0.00    +0.000 C 
ATOM     19  C   UNL     1       2.480   2.694  17.569  0.00  0.00    +0.000 A 
ATOM     20  C   UNL     1       1.437   2.687  18.490  0.00  0.00    +0.000 A 
ATOM     21  C   UNL     1       1.537   3.443  19.640  0.00  0.00    +0.000 A 
ATOM     22  C   UNL     1       2.686   4.180  19.899  0.00  0.00    +0.000 A 
BRANCH  20  23
ATOM     23  O   UNL     1       0.294   1.968  18.292  0.00  0.00    +0.000 OA
ATOM     24  H   UNL     1       0.355   1.538  17.420  0.00  0.00    +0.000 HD
ENDBRANCH  20  23
BRANCH  21  25
ATOM     25  O   UNL     1       0.502   3.491  20.538  0.00  0.00    +0.000 OA
ATOM     26  H   UNL     1       0.937   3.374  21.407  0.00  0.00    +0.000 HD
ENDBRANCH  21  25
BRANCH  22  27
ATOM     27  O   UNL     1       2.706   4.940  21.043  0.00  0.00    +0.000 OA
ATOM     28  H   UNL     1       3.603   5.333  21.061  0.00  0.00    +0.000 HD
ENDBRANCH  22  27
ENDBRANCH  15  16
ENDBRANCH   3  15
TORSDOF 11
ENDMDL
MODEL 9
REMARK VINA RESULT:      -7.0      2.396      5.401
REMARK  Name = 
REMARK  16 active torsions:
REMARK  status: ('A' for Active; 'I' for Inactive)
REMARK    1  A    between atoms: C_1  and  C_2
REMARK    2  A    between atoms: C_2  and  C_3
REMARK    3  A    between atoms: C_4  and  C_5
REMARK    4  A    between atoms: C_5  and  C_6
REMARK    5  A    between atoms: C_6  and  C_7
REMARK    6  A    between atoms: C_7  and  C_8
REMARK    7  A    between atoms: C_9  and  C_10
REMARK    8  A    between atoms: C_10  and  C_11
REMARK    9  A    between atoms: C_11  and  C_12
REMARK   10  A    between atoms: C_12  and  C_13
REMARK   11  A    between atoms: C_14  and  C_15
REMARK   12  A    between atoms: C_15  and  C_16
REMARK   13  A    between atoms: C_17  and  C_18
REMARK   14  A    between atoms: C_20  and  O_21
REMARK   15  A    between atoms: C_22  and  O_23
REMARK   16  A    between atoms: C_24  and  O_25
REMARK                            x       y       z     vdW  Elec       q    Type
REMARK                         _______ _______ _______ _____ _____    ______ ____
ROOT
ATOM      1  C   UNL     1       1.328   8.523  19.864  0.00  0.00    +0.000 C 
ATOM      2  C   UNL     1       0.504   8.709  21.108  0.00  0.00    +0.000 C 
ATOM      3  C   UNL     1       1.299   9.379  18.823  0.00  0.00    +0.000 C 
ENDROOT
BRANCH   1   4
ATOM      4  C   UNL     1       2.244   7.314  19.827  0.00  0.00    +0.000 C 
BRANCH   4   5
ATOM      5  C   UNL     1       2.896   7.173  18.456  0.00  0.00    +0.000 C 
BRANCH   5   8
ATOM      6  C   UNL     1       3.610   4.829  17.916  0.00  0.00    +0.000 C 
ATOM      7  C   UNL     1       4.880   5.064  18.701  0.00  0.00    +0.000 C 
ATOM      8  C   UNL     1       2.701   5.823  17.814  0.00  0.00    +0.000 C 
BRANCH   6   9
ATOM      9  C   UNL     1       3.344   3.486  17.254  0.00  0.00    +0.000 C 
BRANCH   9  10
ATOM     10  C   UNL     1       2.218   2.651  17.878  0.00  0.00    +0.000 C 
BRANCH  10  14
ATOM     11  C   UNL     1       2.259   2.543  21.770  0.00  0.00    +0.000 C 
ATOM     12  C   UNL     1       1.857   2.900  20.370  0.00  0.00    +0.000 C 
ATOM     13  C   UNL     1       0.783   3.946  20.202  0.00  0.00    +0.000 C 
ATOM     14  C   UNL     1       2.446   2.296  19.318  0.00  0.00    +0.000 C 
ENDBRANCH  10  14
ENDBRANCH   9  10
ENDBRANCH   6   9
ENDBRANCH   5   8
ENDBRANCH   4   5
ENDBRANCH   1   4
BRANCH   3  15
ATOM     15  C   UNL     1       0.657  10.737  18.783  0.00  0.00    +0.000 C 
BRANCH  15  16
ATOM     16  C   UNL     1       1.412  11.964  19.260  0.00  0.00    +0.000 A 
ATOM     17  C   UNL     1       1.150  12.696  20.447  0.00  0.00    +0.000 A 
ATOM     18  C   UNL     1       0.077  12.324  21.435  0.00  0.00    +0.000 C 
ATOM     19  C   UNL     1       1.937  13.835  20.761  0.00  0.00    +0.000 A 
ATOM     20  C   UNL     1       2.917  14.285  19.883  0.00  0.00    +0.000 A 
ATOM     21  C   UNL     1       3.123  13.619  18.691  0.00  0.00    +0.000 A 
ATOM     22  C   UNL     1       2.383  12.485  18.382  0.00  0.00    +0.000 A 
BRANCH  20  23
ATOM     23  O   UNL     1       3.683  15.384  20.145  0.00  0.00    +0.000 OA
ATOM     24  H   UNL     1       3.336  15.808  20.950  0.00  0.00    +0.000 HD
ENDBRANCH  20  23
BRANCH  21  25
ATOM     25  O   UNL     1       4.049  14.074  17.788  0.00  0.00    +0.000 OA
ATOM     26  H   UNL     1       3.519  14.587  17.144  0.00  0.00    +0.000 HD
ENDBRANCH  21  25
BRANCH  22  27
ATOM     27  O   UNL     1       2.611  11.893  17.164  0.00  0.00    +0.000 OA
ATOM     28  H   UNL     1       1.752  11.951  16.698  0.00  0.00    +0.000 HD
ENDBRANCH  22  27
ENDBRANCH  15  16
ENDBRANCH   3  15
TORSDOF 11
ENDMDL
