MODEL 1
REMARK VINA RESULT:      -8.2      0.000      0.000
REMARK  Name = 
REMARK  7 active torsions:
REMARK  status: ('A' for Active; 'I' for Inactive)
REMARK    1  A    between atoms: C_1  and  C_2
REMARK    2  A    between atoms: C_6  and  C_7
REMARK    3  A    between atoms: C_8  and  O_9
REMARK    4  A    between atoms: O_9  and  C_10
REMARK    5  A    between atoms: C_10  and  C_11
REMARK    6  A    between atoms: C_16  and  C_17
REMARK    7  A    between atoms: C_26  and  C_27
REMARK                            x       y       z     vdW  Elec       q    Type
REMARK                         _______ _______ _______ _____ _____    ______ ____
ROOT
ATOM      1  C   UNL     1       3.106  15.084  19.440  0.00  0.00    +0.000 C 
ATOM      2  C   UNL     1       2.399  13.729  19.561  0.00  0.00    +0.000 C 
ATOM      3  C   UNL     1       2.495  13.005  18.215  0.00  0.00    +0.000 C 
ATOM      4  C   UNL     1       1.846  11.633  18.273  0.00  0.00    +0.000 C 
ATOM      5  C   UNL     1       0.365  11.727  18.668  0.00  0.00    +0.000 C 
ATOM      6  C   UNL     1      -0.341  10.345  18.759  0.00  0.00    +0.000 C 
ATOM      7  C   UNL     1      -0.132   9.472  17.520  0.00  0.00    +0.000 C 
ATOM      8  C   UNL     1       0.012   9.590  20.053  0.00  0.00    +0.000 C 
ATOM      9  O   UNL     1      -0.280  10.387  21.186  0.00  0.00    +0.000 OA
ATOM     10  C   UNL     1       0.460  11.604  21.213  0.00  0.00    +0.000 C 
ATOM     11  O   UNL     1       0.172  12.234  22.462  0.00  0.00    +0.000 OA
ATOM     12  C   UNL     1      -0.984  13.061  22.329  0.00  0.00    +0.000 C 
ATOM     13  C   UNL     1      -1.775  12.933  23.629  0.00  0.00    +0.000 C 
ATOM     14  C   UNL     1      -0.528  14.512  22.097  0.00  0.00    +0.000 C 
ATOM     15  C   UNL     1       0.818  14.614  21.363  0.00  0.00    +0.000 C 
ATOM     16  C   UNL     1       0.919  13.869  20.008  0.00  0.00    +0.000 C 
ATOM     17  C   UNL     1       0.149  12.514  19.991  0.00  0.00    +0.000 C 
ATOM     18  O   UNL     1      -1.250  12.919  19.987  0.00  0.00    +0.000 OA
ATOM     19  O   UNL     1      -1.854  12.607  21.284  0.00  0.00    +0.000 OA
ENDROOT
BRANCH   8  20
ATOM     20  O   UNL     1       1.372   9.168  20.069  0.00  0.00    +0.000 OA
BRANCH  20  21
ATOM     21  C   UNL     1       1.498   7.745  20.108  0.00  0.00    +0.000 C 
BRANCH  21  22
ATOM     22  C   UNL     1       2.365   7.206  18.996  0.00  0.00    +0.000 A 
ATOM     23  C   UNL     1       2.940   8.183  18.146  0.00  0.00    +0.000 A 
ATOM     24  C   UNL     1       3.876   7.839  17.180  0.00  0.00    +0.000 A 
ATOM     25  C   UNL     1       4.235   6.511  17.033  0.00  0.00    +0.000 A 
ATOM     26  C   UNL     1       3.648   5.530  17.839  0.00  0.00    +0.000 A 
ATOM     27  C   UNL     1       2.700   5.835  18.846  0.00  0.00    +0.000 A 
BRANCH  27  28
ATOM     28  C   UNL     1       2.186   4.734  19.721  0.00  0.00    +0.000 A 
ATOM     29  C   UNL     1       1.203   3.834  19.260  0.00  0.00    +0.000 A 
ATOM     30  C   UNL     1       0.732   2.778  20.054  0.00  0.00    +0.000 A 
ATOM     31  C   UNL     1       1.260   2.568  21.321  0.00  0.00    +0.000 A 
ATOM     32  C   UNL     1       2.222   3.441  21.811  0.00  0.00    +0.000 A 
ATOM     33  C   UNL     1       2.643   4.528  21.034  0.00  0.00    +0.000 A 
ENDBRANCH  27  28
ENDBRANCH  21  22
ENDBRANCH  20  21
ENDBRANCH   8  20
TORSDOF 4
ENDMDL
MODEL 2
REMARK VINA RESULT:      -7.2      3.866      8.589
REMARK  Name = 
REMARK  7 active torsions:
REMARK  status: ('A' for Active; 'I' for Inactive)
REMARK    1  A    between atoms: C_1  and  C_2
REMARK    2  A    between atoms: C_6  and  C_7
REMARK    3  A    between atoms: C_8  and  O_9
REMARK    4  A    between atoms: O_9  and  C_10
REMARK    5  A    between atoms: C_10  and  C_11
REMARK    6  A    between atoms: C_16  and  C_17
REMARK    7  A    between atoms: C_26  and  C_27
REMARK                            x       y       z     vdW  Elec       q    Type
REMARK                         _______ _______ _______ _____ _____    ______ ____
ROOT
ATOM      1  C   UNL     1      -0.087  16.682  18.358  0.00  0.00    +0.000 C 
ATOM      2  C   UNL     1      -0.653  15.782  19.463  0.00  0.00    +0.000 C 
ATOM      3  C   UNL     1      -1.060  16.660  20.649  0.00  0.00    +0.000 C 
ATOM      4  C   UNL     1      -1.667  15.834  21.770  0.00  0.00    +0.000 C 
ATOM      5  C   UNL     1      -0.689  14.763  22.274  0.00  0.00    +0.000 C 
ATOM      6  C   UNL     1      -1.271  13.879  23.412  0.00  0.00    +0.000 C 
ATOM      7  C   UNL     1      -1.879  14.686  24.561  0.00  0.00    +0.000 C 
ATOM      8  C   UNL     1      -2.249  12.813  22.885  0.00  0.00    +0.000 C 
ATOM      9  O   UNL     1      -1.628  12.020  21.890  0.00  0.00    +0.000 OA
ATOM     10  C   UNL     1      -1.208  12.779  20.759  0.00  0.00    +0.000 C 
ATOM     11  O   UNL     1      -0.731  11.845  19.790  0.00  0.00    +0.000 OA
ATOM     12  C   UNL     1       0.658  11.594  20.007  0.00  0.00    +0.000 C 
ATOM     13  C   UNL     1       0.892  10.112  19.724  0.00  0.00    +0.000 C 
ATOM     14  C   UNL     1       1.475  12.477  19.048  0.00  0.00    +0.000 C 
ATOM     15  C   UNL     1       0.779  13.804  18.706  0.00  0.00    +0.000 C 
ATOM     16  C   UNL     1       0.352  14.686  19.908  0.00  0.00    +0.000 C 
ATOM     17  C   UNL     1      -0.152  13.859  21.130  0.00  0.00    +0.000 C 
ATOM     18  O   UNL     1       1.062  13.243  21.646  0.00  0.00    +0.000 OA
ATOM     19  O   UNL     1       1.037  11.805  21.373  0.00  0.00    +0.000 OA
ENDROOT
BRANCH   8  20
ATOM     20  O   UNL     1      -3.452  13.393  22.392  0.00  0.00    +0.000 OA
BRANCH  20  21
ATOM     21  C   UNL     1      -4.614  12.846  23.016  0.00  0.00    +0.000 C 
BRANCH  21  22
ATOM     22  C   UNL     1      -5.833  13.721  22.848  0.00  0.00    +0.000 A 
ATOM     23  C   UNL     1      -5.868  14.878  23.666  0.00  0.00    +0.000 A 
ATOM     24  C   UNL     1      -6.851  15.845  23.506  0.00  0.00    +0.000 A 
ATOM     25  C   UNL     1      -7.828  15.661  22.544  0.00  0.00    +0.000 A 
ATOM     26  C   UNL     1      -7.829  14.506  21.754  0.00  0.00    +0.000 A 
ATOM     27  C   UNL     1      -6.839  13.500  21.871  0.00  0.00    +0.000 A 
BRANCH  27  28
ATOM     28  C   UNL     1      -6.867  12.337  20.928  0.00  0.00    +0.000 A 
ATOM     29  C   UNL     1      -6.130  12.356  19.725  0.00  0.00    +0.000 A 
ATOM     30  C   UNL     1      -6.119  11.265  18.845  0.00  0.00    +0.000 A 
ATOM     31  C   UNL     1      -6.814  10.105  19.161  0.00  0.00    +0.000 A 
ATOM     32  C   UNL     1      -7.558  10.056  20.332  0.00  0.00    +0.000 A 
ATOM     33  C   UNL     1      -7.612  11.172  21.176  0.00  0.00    +0.000 A 
ENDBRANCH  27  28
ENDBRANCH  21  22
ENDBRANCH  20  21
ENDBRANCH   8  20
TORSDOF 4
ENDMDL
MODEL 3
REMARK VINA RESULT:      -7.2      3.956      7.318
REMARK  Name = 
REMARK  7 active torsions:
REMARK  status: ('A' for Active; 'I' for Inactive)
REMARK    1  A    between atoms: C_1  and  C_2
REMARK    2  A    between atoms: C_6  and  C_7
REMARK    3  A    between atoms: C_8  and  O_9
REMARK    4  A    between atoms: O_9  and  C_10
REMARK    5  A    between atoms: C_10  and  C_11
REMARK    6  A    between atoms: C_16  and  C_17
REMARK    7  A    between atoms: C_26  and  C_27
REMARK                            x       y       z     vdW  Elec       q    Type
REMARK                         _______ _______ _______ _____ _____    ______ ____
ROOT
ATOM      1  C   UNL     1       0.937  17.348  20.226  0.00  0.00    +0.000 C 
ATOM      2  C   UNL     1       0.009  16.195  20.623  0.00  0.00    +0.000 C 
ATOM      3  C   UNL     1      -0.721  16.576  21.914  0.00  0.00    +0.000 C 
ATOM      4  C   UNL     1      -1.691  15.490  22.347  0.00  0.00    +0.000 C 
ATOM      5  C   UNL     1      -0.973  14.152  22.575  0.00  0.00    +0.000 C 
ATOM      6  C   UNL     1      -1.926  13.002  23.004  0.00  0.00    +0.000 C 
ATOM      7  C   UNL     1      -2.837  13.371  24.177  0.00  0.00    +0.000 C 
ATOM      8  C   UNL     1      -2.727  12.431  21.819  0.00  0.00    +0.000 C 
ATOM      9  O   UNL     1      -1.852  12.011  20.788  0.00  0.00    +0.000 OA
ATOM     10  C   UNL     1      -1.060  13.075  20.266  0.00  0.00    +0.000 C 
ATOM     11  O   UNL     1      -0.336  12.542  19.156  0.00  0.00    +0.000 OA
ATOM     12  C   UNL     1       0.897  11.984  19.608  0.00  0.00    +0.000 C 
ATOM     13  C   UNL     1       1.147  10.726  18.779  0.00  0.00    +0.000 C 
ATOM     14  C   UNL     1       2.015  13.019  19.397  0.00  0.00    +0.000 C 
ATOM     15  C   UNL     1       1.523  14.471  19.497  0.00  0.00    +0.000 C 
ATOM     16  C   UNL     1       0.770  14.853  20.797  0.00  0.00    +0.000 C 
ATOM     17  C   UNL     1      -0.135  13.707  21.344  0.00  0.00    +0.000 C 
ATOM     18  O   UNL     1       0.822  12.731  21.846  0.00  0.00    +0.000 OA
ATOM     19  O   UNL     1       0.826  11.555  20.974  0.00  0.00    +0.000 OA
ENDROOT
BRANCH   8  20
ATOM     20  O   UNL     1      -3.682  13.364  21.324  0.00  0.00    +0.000 OA
BRANCH  20  21
ATOM     21  C   UNL     1      -4.088  13.067  19.988  0.00  0.00    +0.000 C 
BRANCH  21  22
ATOM     22  C   UNL     1      -5.238  12.091  19.931  0.00  0.00    +0.000 A 
ATOM     23  C   UNL     1      -6.241  12.276  20.914  0.00  0.00    +0.000 A 
ATOM     24  C   UNL     1      -7.423  11.548  20.885  0.00  0.00    +0.000 A 
ATOM     25  C   UNL     1      -7.611  10.608  19.887  0.00  0.00    +0.000 A 
ATOM     26  C   UNL     1      -6.614  10.388  18.931  0.00  0.00    +0.000 A 
ATOM     27  C   UNL     1      -5.400  11.115  18.913  0.00  0.00    +0.000 A 
BRANCH  27  28
ATOM     28  C   UNL     1      -4.423  10.875  17.803  0.00  0.00    +0.000 A 
ATOM     29  C   UNL     1      -3.295  10.049  17.989  0.00  0.00    +0.000 A 
ATOM     30  C   UNL     1      -2.387   9.787  16.953  0.00  0.00    +0.000 A 
ATOM     31  C   UNL     1      -2.602  10.315  15.687  0.00  0.00    +0.000 A 
ATOM     32  C   UNL     1      -3.697  11.140  15.470  0.00  0.00    +0.000 A 
ATOM     33  C   UNL     1      -4.566  11.444  16.526  0.00  0.00    +0.000 A 
ENDBRANCH  27  28
ENDBRANCH  21  22
ENDBRANCH  20  21
ENDBRANCH   8  20
TORSDOF 4
ENDMDL
MODEL 4
REMARK VINA RESULT:      -7.1      3.499      8.720
REMARK  Name = 
REMARK  7 active torsions:
REMARK  status: ('A' for Active; 'I' for Inactive)
REMARK    1  A    between atoms: C_1  and  C_2
REMARK    2  A    between atoms: C_6  and  C_7
REMARK    3  A    between atoms: C_8  and  O_9
REMARK    4  A    between atoms: O_9  and  C_10
REMARK    5  A    between atoms: C_10  and  C_11
REMARK    6  A    between atoms: C_16  and  C_17
REMARK    7  A    between atoms: C_26  and  C_27
REMARK                            x       y       z     vdW  Elec       q    Type
REMARK                         _______ _______ _______ _____ _____    ______ ____
ROOT
ATOM      1  C   UNL     1      -2.297   9.787  17.046  0.00  0.00    +0.000 C 
ATOM      2  C   UNL     1      -2.249  10.507  18.399  0.00  0.00    +0.000 C 
ATOM      3  C   UNL     1      -2.908  11.880  18.246  0.00  0.00    +0.000 C 
ATOM      4  C   UNL     1      -2.930  12.637  19.563  0.00  0.00    +0.000 C 
ATOM      5  C   UNL     1      -1.513  12.839  20.121  0.00  0.00    +0.000 C 
ATOM      6  C   UNL     1      -1.483  13.594  21.479  0.00  0.00    +0.000 C 
ATOM      7  C   UNL     1      -2.286  14.896  21.470  0.00  0.00    +0.000 C 
ATOM      8  C   UNL     1      -1.877  12.690  22.662  0.00  0.00    +0.000 C 
ATOM      9  O   UNL     1      -1.054  11.539  22.700  0.00  0.00    +0.000 OA
ATOM     10  C   UNL     1      -1.164  10.739  21.525  0.00  0.00    +0.000 C 
ATOM     11  O   UNL     1      -0.396   9.558  21.757  0.00  0.00    +0.000 OA
ATOM     12  C   UNL     1       0.956   9.777  21.356  0.00  0.00    +0.000 C 
ATOM     13  C   UNL     1       1.843   9.053  22.367  0.00  0.00    +0.000 C 
ATOM     14  C   UNL     1       1.149   9.207  19.940  0.00  0.00    +0.000 C 
ATOM     15  C   UNL     1      -0.128   9.259  19.087  0.00  0.00    +0.000 C 
ATOM     16  C   UNL     1      -0.803  10.647  18.946  0.00  0.00    +0.000 C 
ATOM     17  C   UNL     1      -0.725  11.505  20.245  0.00  0.00    +0.000 C 
ATOM     18  O   UNL     1       0.680  11.879  20.319  0.00  0.00    +0.000 OA
ATOM     19  O   UNL     1       1.322  11.161  21.423  0.00  0.00    +0.000 OA
ENDROOT
BRANCH   8  20
ATOM     20  O   UNL     1      -3.253  12.327  22.618  0.00  0.00    +0.000 OA
BRANCH  20  21
ATOM     21  C   UNL     1      -3.934  12.634  23.835  0.00  0.00    +0.000 C 
BRANCH  21  22
ATOM     22  C   UNL     1      -4.690  13.939  23.767  0.00  0.00    +0.000 A 
ATOM     23  C   UNL     1      -4.168  14.986  24.567  0.00  0.00    +0.000 A 
ATOM     24  C   UNL     1      -4.672  16.277  24.485  0.00  0.00    +0.000 A 
ATOM     25  C   UNL     1      -5.719  16.538  23.619  0.00  0.00    +0.000 A 
ATOM     26  C   UNL     1      -6.270  15.507  22.849  0.00  0.00    +0.000 A 
ATOM     27  C   UNL     1      -5.781  14.179  22.890  0.00  0.00    +0.000 A 
BRANCH  27  28
ATOM     28  C   UNL     1      -6.372  13.156  21.970  0.00  0.00    +0.000 A 
ATOM     29  C   UNL     1      -7.319  12.220  22.433  0.00  0.00    +0.000 A 
ATOM     30  C   UNL     1      -7.908  11.274  21.580  0.00  0.00    +0.000 A 
ATOM     31  C   UNL     1      -7.593  11.264  20.227  0.00  0.00    +0.000 A 
ATOM     32  C   UNL     1      -6.656  12.165  19.739  0.00  0.00    +0.000 A 
ATOM     33  C   UNL     1      -6.030  13.066  20.610  0.00  0.00    +0.000 A 
ENDBRANCH  27  28
ENDBRANCH  21  22
ENDBRANCH  20  21
ENDBRANCH   8  20
TORSDOF 4
ENDMDL
MODEL 5
REMARK VINA RESULT:      -7.1      2.787      5.747
REMARK  Name = 
REMARK  7 active torsions:
REMARK  status: ('A' for Active; 'I' for Inactive)
REMARK    1  A    between atoms: C_1  and  C_2
REMARK    2  A    between atoms: C_6  and  C_7
REMARK    3  A    between atoms: C_8  and  O_9
REMARK    4  A    between atoms: O_9  and  C_10
REMARK    5  A    between atoms: C_10  and  C_11
REMARK    6  A    between atoms: C_16  and  C_17
REMARK    7  A    between atoms: C_26  and  C_27
REMARK                            x       y       z     vdW  Elec       q    Type
REMARK                         _______ _______ _______ _____ _____    ______ ____
ROOT
ATOM      1  C   UNL     1       6.460  14.787  17.568  0.00  0.00    +0.000 C 
ATOM      2  C   UNL     1       5.180  14.652  18.401  0.00  0.00    +0.000 C 
ATOM      3  C   UNL     1       4.002  15.179  17.576  0.00  0.00    +0.000 C 
ATOM      4  C   UNL     1       2.690  15.040  18.328  0.00  0.00    +0.000 C 
ATOM      5  C   UNL     1       2.723  15.797  19.664  0.00  0.00    +0.000 C 
ATOM      6  C   UNL     1       1.407  15.671  20.481  0.00  0.00    +0.000 C 
ATOM      7  C   UNL     1       0.152  15.998  19.669  0.00  0.00    +0.000 C 
ATOM      8  C   UNL     1       1.286  14.312  21.193  0.00  0.00    +0.000 C 
ATOM      9  O   UNL     1       2.418  14.079  22.011  0.00  0.00    +0.000 OA
ATOM     10  C   UNL     1       3.637  14.043  21.274  0.00  0.00    +0.000 C 
ATOM     11  O   UNL     1       4.664  13.669  22.193  0.00  0.00    +0.000 OA
ATOM     12  C   UNL     1       5.198  14.835  22.819  0.00  0.00    +0.000 C 
ATOM     13  C   UNL     1       5.488  14.468  24.272  0.00  0.00    +0.000 C 
ATOM     14  C   UNL     1       6.486  15.244  22.083  0.00  0.00    +0.000 C 
ATOM     15  C   UNL     1       6.476  14.871  20.592  0.00  0.00    +0.000 C 
ATOM     16  C   UNL     1       5.276  15.392  19.762  0.00  0.00    +0.000 C 
ATOM     17  C   UNL     1       3.932  15.388  20.552  0.00  0.00    +0.000 C 
ATOM     18  O   UNL     1       4.102  16.469  21.513  0.00  0.00    +0.000 OA
ATOM     19  O   UNL     1       4.249  15.909  22.859  0.00  0.00    +0.000 OA
ENDROOT
BRANCH   8  20
ATOM     20  O   UNL     1       1.101  13.243  20.271  0.00  0.00    +0.000 OA
BRANCH  20  21
ATOM     21  C   UNL     1       0.430  12.128  20.860  0.00  0.00    +0.000 C 
BRANCH  21  22
ATOM     22  C   UNL     1      -0.742  11.651  20.036  0.00  0.00    +0.000 A 
ATOM     23  C   UNL     1      -1.879  12.496  20.051  0.00  0.00    +0.000 A 
ATOM     24  C   UNL     1      -2.966  12.258  19.221  0.00  0.00    +0.000 A 
ATOM     25  C   UNL     1      -2.945  11.159  18.381  0.00  0.00    +0.000 A 
ATOM     26  C   UNL     1      -1.845  10.294  18.382  0.00  0.00    +0.000 A 
ATOM     27  C   UNL     1      -0.709  10.504  19.200  0.00  0.00    +0.000 A 
BRANCH  27  28
ATOM     28  C   UNL     1       0.460   9.576  19.076  0.00  0.00    +0.000 A 
ATOM     29  C   UNL     1       0.825   8.717  20.133  0.00  0.00    +0.000 A 
ATOM     30  C   UNL     1       1.897   7.819  20.024  0.00  0.00    +0.000 A 
ATOM     31  C   UNL     1       2.613   7.728  18.838  0.00  0.00    +0.000 A 
ATOM     32  C   UNL     1       2.288   8.566  17.780  0.00  0.00    +0.000 A 
ATOM     33  C   UNL     1       1.254   9.501  17.919  0.00  0.00    +0.000 A 
ENDBRANCH  27  28
ENDBRANCH  21  22
ENDBRANCH  20  21
ENDBRANCH   8  20
TORSDOF 4
ENDMDL
MODEL 6
REMARK VINA RESULT:      -7.1      2.040      4.382
REMARK  Name = 
REMARK  7 active torsions:
REMARK  status: ('A' for Active; 'I' for Inactive)
REMARK    1  A    between atoms: C_1  and  C_2
REMARK    2  A    between atoms: C_6  and  C_7
REMARK    3  A    between atoms: C_8  and  O_9
REMARK    4  A    between atoms: O_9  and  C_10
REMARK    5  A    between atoms: C_10  and  C_11
REMARK    6  A    between atoms: C_16  and  C_17
REMARK    7  A    between atoms: C_26  and  C_27
REMARK                            x       y       z     vdW  Elec       q    Type
REMARK                         _______ _______ _______ _____ _____    ______ ____
ROOT
ATOM      1  C   UNL     1      -2.105  12.316  22.711  0.00  0.00    +0.000 C 
ATOM      2  C   UNL     1      -1.309  11.748  21.531  0.00  0.00    +0.000 C 
ATOM      3  C   UNL     1       0.154  12.180  21.675  0.00  0.00    +0.000 C 
ATOM      4  C   UNL     1       1.013  11.619  20.555  0.00  0.00    +0.000 C 
ATOM      5  C   UNL     1       0.507  12.071  19.177  0.00  0.00    +0.000 C 
ATOM      6  C   UNL     1       1.344  11.507  17.995  0.00  0.00    +0.000 C 
ATOM      7  C   UNL     1       2.850  11.728  18.154  0.00  0.00    +0.000 C 
ATOM      8  C   UNL     1       1.014  10.034  17.691  0.00  0.00    +0.000 C 
ATOM      9  O   UNL     1      -0.373   9.877  17.456  0.00  0.00    +0.000 OA
ATOM     10  C   UNL     1      -1.172  10.248  18.576  0.00  0.00    +0.000 C 
ATOM     11  O   UNL     1      -2.520   9.913  18.249  0.00  0.00    +0.000 OA
ATOM     12  C   UNL     1      -3.140  11.007  17.575  0.00  0.00    +0.000 C 
ATOM     13  C   UNL     1      -4.044  10.414  16.498  0.00  0.00    +0.000 C 
ATOM     14  C   UNL     1      -3.955  11.819  18.598  0.00  0.00    +0.000 C 
ATOM     15  C   UNL     1      -3.366  11.771  20.017  0.00  0.00    +0.000 C 
ATOM     16  C   UNL     1      -1.882  12.193  20.159  0.00  0.00    +0.000 C 
ATOM     17  C   UNL     1      -0.997  11.746  18.956  0.00  0.00    +0.000 C 
ATOM     18  O   UNL     1      -1.435  12.613  17.872  0.00  0.00    +0.000 OA
ATOM     19  O   UNL     1      -2.186  11.829  16.890  0.00  0.00    +0.000 OA
ENDROOT
BRANCH   8  20
ATOM     20  O   UNL     1       1.452   9.166  18.732  0.00  0.00    +0.000 OA
BRANCH  20  21
ATOM     21  C   UNL     1       2.377   8.183  18.266  0.00  0.00    +0.000 C 
BRANCH  21  22
ATOM     22  C   UNL     1       2.460   6.982  19.177  0.00  0.00    +0.000 A 
ATOM     23  C   UNL     1       1.635   7.035  20.328  0.00  0.00    +0.000 A 
ATOM     24  C   UNL     1       1.499   5.938  21.169  0.00  0.00    +0.000 A 
ATOM     25  C   UNL     1       2.203   4.781  20.886  0.00  0.00    +0.000 A 
ATOM     26  C   UNL     1       3.050   4.726  19.775  0.00  0.00    +0.000 A 
ATOM     27  C   UNL     1       3.210   5.813  18.882  0.00  0.00    +0.000 A 
BRANCH  27  28
ATOM     28  C   UNL     1       4.071   5.641  17.669  0.00  0.00    +0.000 A 
ATOM     29  C   UNL     1       4.209   4.384  17.045  0.00  0.00    +0.000 A 
ATOM     30  C   UNL     1       4.986   4.209  15.891  0.00  0.00    +0.000 A 
ATOM     31  C   UNL     1       5.619   5.297  15.304  0.00  0.00    +0.000 A 
ATOM     32  C   UNL     1       5.513   6.547  15.897  0.00  0.00    +0.000 A 
ATOM     33  C   UNL     1       4.784   6.701  17.083  0.00  0.00    +0.000 A 
ENDBRANCH  27  28
ENDBRANCH  21  22
ENDBRANCH  20  21
ENDBRANCH   8  20
TORSDOF 4
ENDMDL
MODEL 7
REMARK VINA RESULT:      -7.0      3.945      8.154
REMARK  Name = 
REMARK  7 active torsions:
REMARK  status: ('A' for Active; 'I' for Inactive)
REMARK    1  A    between atoms: C_1  and  C_2
REMARK    2  A    between atoms: C_6  and  C_7
REMARK    3  A    between atoms: C_8  and  O_9
REMARK    4  A    between atoms: O_9  and  C_10
REMARK    5  A    between atoms: C_10  and  C_11
REMARK    6  A    between atoms: C_16  and  C_17
REMARK    7  A    between atoms: C_26  and  C_27
REMARK                            x       y       z     vdW  Elec       q    Type
REMARK                         _______ _______ _______ _____ _____    ______ ____
ROOT
ATOM      1  C   UNL     1       2.100  16.415  18.560  0.00  0.00    +0.000 C 
ATOM      2  C   UNL     1       1.080  15.555  19.315  0.00  0.00    +0.000 C 
ATOM      3  C   UNL     1       0.711  16.266  20.620  0.00  0.00    +0.000 C 
ATOM      4  C   UNL     1      -0.329  15.485  21.404  0.00  0.00    +0.000 C 
ATOM      5  C   UNL     1       0.166  14.072  21.746  0.00  0.00    +0.000 C 
ATOM      6  C   UNL     1      -0.871  13.225  22.535  0.00  0.00    +0.000 C 
ATOM      7  C   UNL     1      -1.440  13.945  23.759  0.00  0.00    +0.000 C 
ATOM      8  C   UNL     1      -1.987  12.672  21.630  0.00  0.00    +0.000 C 
ATOM      9  O   UNL     1      -1.434  11.932  20.558  0.00  0.00    +0.000 OA
ATOM     10  C   UNL     1      -0.586  12.715  19.722  0.00  0.00    +0.000 C 
ATOM     11  O   UNL     1      -0.213  11.886  18.621  0.00  0.00    +0.000 OA
ATOM     12  C   UNL     1       0.965  11.149  18.949  0.00  0.00    +0.000 C 
ATOM     13  C   UNL     1       0.808   9.761  18.333  0.00  0.00    +0.000 C 
ATOM     14  C   UNL     1       2.185  11.882  18.363  0.00  0.00    +0.000 C 
ATOM     15  C   UNL     1       1.994  13.404  18.280  0.00  0.00    +0.000 C 
ATOM     16  C   UNL     1       1.605  14.122  19.597  0.00  0.00    +0.000 C 
ATOM     17  C   UNL     1       0.640  13.286  20.491  0.00  0.00    +0.000 C 
ATOM     18  O   UNL     1       1.486  12.212  20.992  0.00  0.00    +0.000 OA
ATOM     19  O   UNL     1       1.098  10.948  20.362  0.00  0.00    +0.000 OA
ENDROOT
BRANCH   8  20
ATOM     20  O   UNL     1      -2.839  13.705  21.144  0.00  0.00    +0.000 OA
BRANCH  20  21
ATOM     21  C   UNL     1      -4.208  13.487  21.487  0.00  0.00    +0.000 C 
BRANCH  21  22
ATOM     22  C   UNL     1      -5.154  14.347  20.685  0.00  0.00    +0.000 A 
ATOM     23  C   UNL     1      -4.790  15.711  20.575  0.00  0.00    +0.000 A 
ATOM     24  C   UNL     1      -5.486  16.579  19.743  0.00  0.00    +0.000 A 
ATOM     25  C   UNL     1      -6.570  16.102  19.028  0.00  0.00    +0.000 A 
ATOM     26  C   UNL     1      -6.965  14.766  19.155  0.00  0.00    +0.000 A 
ATOM     27  C   UNL     1      -6.278  13.842  19.979  0.00  0.00    +0.000 A 
BRANCH  27  28
ATOM     28  C   UNL     1      -6.716  12.410  19.991  0.00  0.00    +0.000 A 
ATOM     29  C   UNL     1      -6.308  11.514  18.982  0.00  0.00    +0.000 A 
ATOM     30  C   UNL     1      -6.682  10.162  18.993  0.00  0.00    +0.000 A 
ATOM     31  C   UNL     1      -7.446   9.658  20.038  0.00  0.00    +0.000 A 
ATOM     32  C   UNL     1      -7.873  10.515  21.043  0.00  0.00    +0.000 A 
ATOM     33  C   UNL     1      -7.545  11.875  20.992  0.00  0.00    +0.000 A 
ENDBRANCH  27  28
ENDBRANCH  21  22
ENDBRANCH  20  21
ENDBRANCH   8  20
TORSDOF 4
ENDMDL
MODEL 8
REMARK VINA RESULT:      -6.9      1.848      3.339
REMARK  Name = 
REMARK  7 active torsions:
REMARK  status: ('A' for Active; 'I' for Inactive)
REMARK    1  A    between atoms: C_1  and  C_2
REMARK    2  A    between atoms: C_6  and  C_7
REMARK    3  A    between atoms: C_8  and  O_9
REMARK    4  A    between atoms: O_9  and  C_10
REMARK    5  A    between atoms: C_10  and  C_11
REMARK    6  A    between atoms: C_16  and  C_17
REMARK    7  A    between atoms: C_26  and  C_27
REMARK                            x       y       z     vdW  Elec       q    Type
REMARK                         _______ _______ _______ _____ _____    ______ ____
ROOT
ATOM      1  C   UNL     1      -2.244  12.924  22.382  0.00  0.00    +0.000 C 
ATOM      2  C   UNL     1      -1.370  12.197  21.353  0.00  0.00    +0.000 C 
ATOM      3  C   UNL     1       0.069  12.702  21.490  0.00  0.00    +0.000 C 
ATOM      4  C   UNL     1       1.002  11.994  20.523  0.00  0.00    +0.000 C 
ATOM      5  C   UNL     1       0.557  12.190  19.066  0.00  0.00    +0.000 C 
ATOM      6  C   UNL     1       1.471  11.468  18.036  0.00  0.00    +0.000 C 
ATOM      7  C   UNL     1       2.959  11.770  18.226  0.00  0.00    +0.000 C 
ATOM      8  C   UNL     1       1.201   9.954  17.971  0.00  0.00    +0.000 C 
ATOM      9  O   UNL     1      -0.167   9.707  17.701  0.00  0.00    +0.000 OA
ATOM     10  C   UNL     1      -1.034  10.230  18.703  0.00  0.00    +0.000 C 
ATOM     11  O   UNL     1      -2.353   9.794  18.376  0.00  0.00    +0.000 OA
ATOM     12  C   UNL     1      -2.969  10.736  17.498  0.00  0.00    +0.000 C 
ATOM     13  C   UNL     1      -3.797   9.937  16.495  0.00  0.00    +0.000 C 
ATOM     14  C   UNL     1      -3.860  11.676  18.329  0.00  0.00    +0.000 C 
ATOM     15  C   UNL     1      -3.345  11.888  19.762  0.00  0.00    +0.000 C 
ATOM     16  C   UNL     1      -1.883  12.384  19.900  0.00  0.00    +0.000 C 
ATOM     17  C   UNL     1      -0.923  11.776  18.833  0.00  0.00    +0.000 C 
ATOM     18  O   UNL     1      -1.329  12.432  17.599  0.00  0.00    +0.000 OA
ATOM     19  O   UNL     1      -2.004  11.467  16.729  0.00  0.00    +0.000 OA
ENDROOT
BRANCH   8  20
ATOM     20  O   UNL     1       1.608   9.290  19.163  0.00  0.00    +0.000 OA
BRANCH  20  21
ATOM     21  C   UNL     1       1.484   7.870  19.063  0.00  0.00    +0.000 C 
BRANCH  21  22
ATOM     22  C   UNL     1       2.617   7.238  18.292  0.00  0.00    +0.000 A 
ATOM     23  C   UNL     1       3.363   8.123  17.475  0.00  0.00    +0.000 A 
ATOM     24  C   UNL     1       4.522   7.708  16.831  0.00  0.00    +0.000 A 
ATOM     25  C   UNL     1       4.939   6.397  16.976  0.00  0.00    +0.000 A 
ATOM     26  C   UNL     1       4.193   5.501  17.749  0.00  0.00    +0.000 A 
ATOM     27  C   UNL     1       3.014   5.883  18.434  0.00  0.00    +0.000 A 
BRANCH  27  28
ATOM     28  C   UNL     1       2.323   4.883  19.309  0.00  0.00    +0.000 A 
ATOM     29  C   UNL     1       1.408   3.953  18.773  0.00  0.00    +0.000 A 
ATOM     30  C   UNL     1       0.775   2.989  19.571  0.00  0.00    +0.000 A 
ATOM     31  C   UNL     1       1.070   2.902  20.926  0.00  0.00    +0.000 A 
ATOM     32  C   UNL     1       1.958   3.808  21.489  0.00  0.00    +0.000 A 
ATOM     33  C   UNL     1       2.540   4.805  20.696  0.00  0.00    +0.000 A 
ENDBRANCH  27  28
ENDBRANCH  21  22
ENDBRANCH  20  21
ENDBRANCH   8  20
TORSDOF 4
ENDMDL
MODEL 9
REMARK VINA RESULT:      -6.9      3.937      7.233
REMARK  Name = 
REMARK  7 active torsions:
REMARK  status: ('A' for Active; 'I' for Inactive)
REMARK    1  A    between atoms: C_1  and  C_2
REMARK    2  A    between atoms: C_6  and  C_7
REMARK    3  A    between atoms: C_8  and  O_9
REMARK    4  A    between atoms: O_9  and  C_10
REMARK    5  A    between atoms: C_10  and  C_11
REMARK    6  A    between atoms: C_16  and  C_17
REMARK    7  A    between atoms: C_26  and  C_27
REMARK                            x       y       z     vdW  Elec       q    Type
REMARK                         _______ _______ _______ _____ _____    ______ ____
ROOT
ATOM      1  C   UNL     1      -0.334  18.619  16.834  0.00  0.00    +0.000 C 
ATOM      2  C   UNL     1      -0.112  17.509  17.868  0.00  0.00    +0.000 C 
ATOM      3  C   UNL     1      -1.027  17.768  19.068  0.00  0.00    +0.000 C 
ATOM      4  C   UNL     1      -0.886  16.681  20.120  0.00  0.00    +0.000 C 
ATOM      5  C   UNL     1       0.559  16.572  20.628  0.00  0.00    +0.000 C 
ATOM      6  C   UNL     1       0.760  15.460  21.695  0.00  0.00    +0.000 C 
ATOM      7  C   UNL     1      -0.248  15.530  22.844  0.00  0.00    +0.000 C 
ATOM      8  C   UNL     1       0.816  14.053  21.073  0.00  0.00    +0.000 C 
ATOM      9  O   UNL     1       1.822  13.992  20.078  0.00  0.00    +0.000 OA
ATOM     10  C   UNL     1       1.595  14.901  19.004  0.00  0.00    +0.000 C 
ATOM     11  O   UNL     1       2.597  14.637  18.022  0.00  0.00    +0.000 OA
ATOM     12  C   UNL     1       3.760  15.417  18.299  0.00  0.00    +0.000 C 
ATOM     13  C   UNL     1       4.970  14.548  17.965  0.00  0.00    +0.000 C 
ATOM     14  C   UNL     1       3.727  16.682  17.423  0.00  0.00    +0.000 C 
ATOM     15  C   UNL     1       2.301  17.159  17.103  0.00  0.00    +0.000 C 
ATOM     16  C   UNL     1       1.370  17.405  18.317  0.00  0.00    +0.000 C 
ATOM     17  C   UNL     1       1.585  16.383  19.475  0.00  0.00    +0.000 C 
ATOM     18  O   UNL     1       2.877  16.763  20.027  0.00  0.00    +0.000 OA
ATOM     19  O   UNL     1       3.873  15.742  19.691  0.00  0.00    +0.000 OA
ENDROOT
BRANCH   8  20
ATOM     20  O   UNL     1      -0.444  13.655  20.543  0.00  0.00    +0.000 OA
BRANCH  20  21
ATOM     21  C   UNL     1      -0.426  12.316  20.047  0.00  0.00    +0.000 C 
BRANCH  21  22
ATOM     22  C   UNL     1      -0.393  11.286  21.150  0.00  0.00    +0.000 A 
ATOM     23  C   UNL     1       0.655  10.337  21.064  0.00  0.00    +0.000 A 
ATOM     24  C   UNL     1       0.894   9.430  22.088  0.00  0.00    +0.000 A 
ATOM     25  C   UNL     1       0.074   9.442  23.203  0.00  0.00    +0.000 A 
ATOM     26  C   UNL     1      -0.988  10.348  23.285  0.00  0.00    +0.000 A 
ATOM     27  C   UNL     1      -1.261  11.300  22.273  0.00  0.00    +0.000 A 
BRANCH  27  28
ATOM     28  C   UNL     1      -2.366  12.289  22.481  0.00  0.00    +0.000 A 
ATOM     29  C   UNL     1      -3.390  12.450  21.525  0.00  0.00    +0.000 A 
ATOM     30  C   UNL     1      -4.450  13.349  21.716  0.00  0.00    +0.000 A 
ATOM     31  C   UNL     1      -4.536  14.086  22.890  0.00  0.00    +0.000 A 
ATOM     32  C   UNL     1      -3.540  13.959  23.849  0.00  0.00    +0.000 A 
ATOM     33  C   UNL     1      -2.454  13.104  23.623  0.00  0.00    +0.000 A 
ENDBRANCH  27  28
ENDBRANCH  21  22
ENDBRANCH  20  21
ENDBRANCH   8  20
TORSDOF 4
ENDMDL
