MODEL 1
REMARK VINA RESULT:      -8.1      0.000      0.000
REMARK  Name = 
REMARK  8 active torsions:
REMARK  status: ('A' for Active; 'I' for Inactive)
REMARK    1  A    between atoms: C_1  and  C_2
REMARK    2  A    between atoms: C_2  and  C_3
REMARK    3  A    between atoms: C_6  and  C_7
REMARK    4  A    between atoms: C_7  and  C_8
REMARK    5  A    between atoms: C_7  and  N_9
REMARK    6  A    between atoms: N_13  and  C_14
REMARK    7  A    between atoms: C_14  and  C_15
REMARK    8  A    between atoms: C_18  and  C_19
REMARK                            x       y       z     vdW  Elec       q    Type
REMARK                         _______ _______ _______ _____ _____    ______ ____
ROOT
ATOM      1  N   UNL     1       5.338   4.314  17.999  0.00  0.00    +0.000 NA
ATOM      2  C   UNL     1       4.359   4.327  16.899  0.00  0.00    +0.000 C 
ATOM      3  C   UNL     1       2.888   4.002  17.171  0.00  0.00    +0.000 C 
ATOM      4  C   UNL     1       2.121   4.706  18.291  0.00  0.00    +0.000 C 
ATOM      5  N   UNL     1       2.659   5.921  18.893  0.00  0.00    +0.000 NA
ATOM      6  C   UNL     1       3.815   5.583  19.719  0.00  0.00    +0.000 C 
ATOM      7  C   UNL     1       5.161   5.377  19.017  0.00  0.00    +0.000 C 
ENDROOT
BRANCH   1   8
ATOM      8  C   UNL     1       6.729   4.411  17.402  0.00  0.00    +0.000 C 
ATOM      9  C   UNL     1       7.522   5.580  18.008  0.00  0.00    +0.000 C 
BRANCH   8  13
ATOM     10  C   UNL     1       6.739   4.252  13.817  0.00  0.00    +0.000 A 
ATOM     11  N   UNL     1       7.267   5.476  13.954  0.00  0.00    +0.000 NA
ATOM     12  O   UNL     1       7.299   5.653  15.346  0.00  0.00    +0.000 OA
ATOM     13  C   UNL     1       6.777   4.513  15.893  0.00  0.00    +0.000 A 
ATOM     14  N   UNL     1       6.406   3.634  14.986  0.00  0.00    +0.000 NA
BRANCH  10  16
ATOM     15  C   UNL     1       4.950   3.495  12.275  0.00  0.00    +0.000 C 
ATOM     16  C   UNL     1       6.447   3.616  12.510  0.00  0.00    +0.000 C 
ENDBRANCH  10  16
ENDBRANCH   8  13
ENDBRANCH   1   8
BRANCH   5  17
ATOM     17  C   UNL     1       2.821   7.044  17.947  0.00  0.00    +0.000 C 
BRANCH  17  18
ATOM     18  C   UNL     1       2.113   8.311  18.352  0.00  0.00    +0.000 A 
ATOM     19  N   UNL     1       2.020   9.389  17.560  0.00  0.00    +0.000 NA
ATOM     20  O   UNL     1       1.303  10.299  18.342  0.00  0.00    +0.000 OA
ATOM     21  C   UNL     1       1.049   9.686  19.538  0.00  0.00    +0.000 A 
ATOM     22  N   UNL     1       1.566   8.482  19.606  0.00  0.00    +0.000 NA
BRANCH  21  23
ATOM     23  C   UNL     1       0.257  10.312  20.679  0.00  0.00    +0.000 C 
ATOM     24  C   UNL     1       0.373  11.808  20.904  0.00  0.00    +0.000 C 
ATOM     25  C   UNL     1      -0.893  11.246  20.359  0.00  0.00    +0.000 C 
ENDBRANCH  21  23
ENDBRANCH  17  18
ENDBRANCH   5  17
TORSDOF 6
ENDMDL
MODEL 2
REMARK VINA RESULT:      -8.1      1.100      1.208
REMARK  Name = 
REMARK  8 active torsions:
REMARK  status: ('A' for Active; 'I' for Inactive)
REMARK    1  A    between atoms: C_1  and  C_2
REMARK    2  A    between atoms: C_2  and  C_3
REMARK    3  A    between atoms: C_6  and  C_7
REMARK    4  A    between atoms: C_7  and  C_8
REMARK    5  A    between atoms: C_7  and  N_9
REMARK    6  A    between atoms: N_13  and  C_14
REMARK    7  A    between atoms: C_14  and  C_15
REMARK    8  A    between atoms: C_18  and  C_19
REMARK                            x       y       z     vdW  Elec       q    Type
REMARK                         _______ _______ _______ _____ _____    ______ ____
ROOT
ATOM      1  N   UNL     1       5.678   4.478  17.620  0.00  0.00    +0.000 NA
ATOM      2  C   UNL     1       4.546   4.614  16.689  0.00  0.00    +0.000 C 
ATOM      3  C   UNL     1       3.172   4.046  17.056  0.00  0.00    +0.000 C 
ATOM      4  C   UNL     1       2.521   4.371  18.401  0.00  0.00    +0.000 C 
ATOM      5  N   UNL     1       3.024   5.476  19.208  0.00  0.00    +0.000 NA
ATOM      6  C   UNL     1       4.321   5.113  19.774  0.00  0.00    +0.000 C 
ATOM      7  C   UNL     1       5.557   5.249  18.880  0.00  0.00    +0.000 C 
ENDROOT
BRANCH   1   8
ATOM      8  C   UNL     1       6.945   4.889  16.894  0.00  0.00    +0.000 C 
ATOM      9  C   UNL     1       7.335   6.340  17.218  0.00  0.00    +0.000 C 
BRANCH   8  13
ATOM     10  C   UNL     1       6.709   4.091  13.404  0.00  0.00    +0.000 A 
ATOM     11  N   UNL     1       7.420   5.221  13.292  0.00  0.00    +0.000 NA
ATOM     12  O   UNL     1       7.565   5.637  14.625  0.00  0.00    +0.000 OA
ATOM     13  C   UNL     1       6.914   4.711  15.392  0.00  0.00    +0.000 A 
ATOM     14  N   UNL     1       6.362   3.753  14.678  0.00  0.00    +0.000 NA
BRANCH  10  16
ATOM     15  C   UNL     1       4.738   3.378  12.077  0.00  0.00    +0.000 C 
ATOM     16  C   UNL     1       6.246   3.286  12.248  0.00  0.00    +0.000 C 
ENDBRANCH  10  16
ENDBRANCH   8  13
ENDBRANCH   1   8
BRANCH   5  17
ATOM     17  C   UNL     1       2.931   6.797  18.552  0.00  0.00    +0.000 C 
BRANCH  17  18
ATOM     18  C   UNL     1       2.073   7.798  19.281  0.00  0.00    +0.000 A 
ATOM     19  N   UNL     1       1.901   9.062  18.866  0.00  0.00    +0.000 NA
ATOM     20  O   UNL     1       1.057   9.606  19.838  0.00  0.00    +0.000 OA
ATOM     21  C   UNL     1       0.818   8.621  20.756  0.00  0.00    +0.000 A 
ATOM     22  N   UNL     1       1.457   7.508  20.480  0.00  0.00    +0.000 NA
BRANCH  21  23
ATOM     23  C   UNL     1      -0.087   8.774  21.974  0.00  0.00    +0.000 C 
ATOM     24  C   UNL     1       0.463   9.484  23.196  0.00  0.00    +0.000 C 
ATOM     25  C   UNL     1      -0.575  10.154  22.365  0.00  0.00    +0.000 C 
ENDBRANCH  21  23
ENDBRANCH  17  18
ENDBRANCH   5  17
TORSDOF 6
ENDMDL
MODEL 3
REMARK VINA RESULT:      -8.0      0.769      1.104
REMARK  Name = 
REMARK  8 active torsions:
REMARK  status: ('A' for Active; 'I' for Inactive)
REMARK    1  A    between atoms: C_1  and  C_2
REMARK    2  A    between atoms: C_2  and  C_3
REMARK    3  A    between atoms: C_6  and  C_7
REMARK    4  A    between atoms: C_7  and  C_8
REMARK    5  A    between atoms: C_7  and  N_9
REMARK    6  A    between atoms: N_13  and  C_14
REMARK    7  A    between atoms: C_14  and  C_15
REMARK    8  A    between atoms: C_18  and  C_19
REMARK                            x       y       z     vdW  Elec       q    Type
REMARK                         _______ _______ _______ _____ _____    ______ ____
ROOT
ATOM      1  N   UNL     1       5.349   4.167  18.036  0.00  0.00    +0.000 NA
ATOM      2  C   UNL     1       4.409   4.284  16.909  0.00  0.00    +0.000 C 
ATOM      3  C   UNL     1       2.948   3.857  17.076  0.00  0.00    +0.000 C 
ATOM      4  C   UNL     1       2.108   4.367  18.248  0.00  0.00    +0.000 C 
ATOM      5  N   UNL     1       2.562   5.513  19.027  0.00  0.00    +0.000 NA
ATOM      6  C   UNL     1       3.706   5.121  19.847  0.00  0.00    +0.000 C 
ATOM      7  C   UNL     1       5.083   5.073  19.178  0.00  0.00    +0.000 C 
ENDROOT
BRANCH   1   8
ATOM      8  C   UNL     1       6.753   4.409  17.514  0.00  0.00    +0.000 C 
ATOM      9  C   UNL     1       7.397   5.638  18.176  0.00  0.00    +0.000 C 
BRANCH   8  13
ATOM     10  C   UNL     1       6.871   4.341  13.928  0.00  0.00    +0.000 A 
ATOM     11  N   UNL     1       7.541   5.486  14.118  0.00  0.00    +0.000 NA
ATOM     12  O   UNL     1       7.546   5.622  15.515  0.00  0.00    +0.000 OA
ATOM     13  C   UNL     1       6.866   4.543  16.010  0.00  0.00    +0.000 A 
ATOM     14  N   UNL     1       6.423   3.741  15.067  0.00  0.00    +0.000 NA
BRANCH  10  16
ATOM     15  C   UNL     1       5.074   3.435  12.478  0.00  0.00    +0.000 C 
ATOM     16  C   UNL     1       6.550   3.780  12.593  0.00  0.00    +0.000 C 
ENDBRANCH  10  16
ENDBRANCH   8  13
ENDBRANCH   1   8
BRANCH   5  17
ATOM     17  C   UNL     1       2.698   6.760  18.248  0.00  0.00    +0.000 C 
BRANCH  17  18
ATOM     18  C   UNL     1       2.034   7.962  18.868  0.00  0.00    +0.000 A 
ATOM     19  N   UNL     1       1.735   8.047  20.172  0.00  0.00    +0.000 NA
ATOM     20  O   UNL     1       1.135   9.306  20.281  0.00  0.00    +0.000 OA
ATOM     21  C   UNL     1       1.115   9.848  19.026  0.00  0.00    +0.000 A 
ATOM     22  N   UNL     1       1.615   9.041  18.119  0.00  0.00    +0.000 NA
BRANCH  21  23
ATOM     23  C   UNL     1       0.577  11.235  18.692  0.00  0.00    +0.000 C 
ATOM     24  C   UNL     1      -0.862  11.555  19.048  0.00  0.00    +0.000 C 
ATOM     25  C   UNL     1       0.242  12.191  19.819  0.00  0.00    +0.000 C 
ENDBRANCH  21  23
ENDBRANCH  17  18
ENDBRANCH   5  17
TORSDOF 6
ENDMDL
MODEL 4
REMARK VINA RESULT:      -7.4      2.327      3.651
REMARK  Name = 
REMARK  8 active torsions:
REMARK  status: ('A' for Active; 'I' for Inactive)
REMARK    1  A    between atoms: C_1  and  C_2
REMARK    2  A    between atoms: C_2  and  C_3
REMARK    3  A    between atoms: C_6  and  C_7
REMARK    4  A    between atoms: C_7  and  C_8
REMARK    5  A    between atoms: C_7  and  N_9
REMARK    6  A    between atoms: N_13  and  C_14
REMARK    7  A    between atoms: C_14  and  C_15
REMARK    8  A    between atoms: C_18  and  C_19
REMARK                            x       y       z     vdW  Elec       q    Type
REMARK                         _______ _______ _______ _____ _____    ______ ____
ROOT
ATOM      1  N   UNL     1       5.399   4.170  17.781  0.00  0.00    +0.000 NA
ATOM      2  C   UNL     1       4.306   3.455  17.101  0.00  0.00    +0.000 C 
ATOM      3  C   UNL     1       3.550   2.335  17.822  0.00  0.00    +0.000 C 
ATOM      4  C   UNL     1       2.970   2.551  19.220  0.00  0.00    +0.000 C 
ATOM      5  N   UNL     1       2.829   3.902  19.752  0.00  0.00    +0.000 NA
ATOM      6  C   UNL     1       4.149   4.439  20.073  0.00  0.00    +0.000 C 
ATOM      7  C   UNL     1       4.986   5.014  18.927  0.00  0.00    +0.000 C 
ENDROOT
BRANCH   1   8
ATOM      8  C   UNL     1       6.121   5.024  16.757  0.00  0.00    +0.000 C 
ATOM      9  C   UNL     1       7.065   4.180  15.884  0.00  0.00    +0.000 C 
BRANCH   8  13
ATOM     10  C   UNL     1       7.801   8.025  17.780  0.00  0.00    +0.000 A 
ATOM     11  N   UNL     1       8.377   7.180  18.646  0.00  0.00    +0.000 NA
ATOM     12  O   UNL     1       7.774   5.951  18.339  0.00  0.00    +0.000 OA
ATOM     13  C   UNL     1       6.891   6.196  17.323  0.00  0.00    +0.000 A 
ATOM     14  N   UNL     1       6.868   7.461  16.962  0.00  0.00    +0.000 NA
BRANCH  10  16
ATOM     15  C   UNL     1       8.945   9.917  18.905  0.00  0.00    +0.000 C 
ATOM     16  C   UNL     1       8.072   9.482  17.739  0.00  0.00    +0.000 C 
ENDBRANCH  10  16
ENDBRANCH   8  13
ENDBRANCH   1   8
BRANCH   5  17
ATOM     17  C   UNL     1       1.930   4.772  18.965  0.00  0.00    +0.000 C 
BRANCH  17  18
ATOM     18  C   UNL     1       1.895   6.208  19.417  0.00  0.00    +0.000 A 
ATOM     19  N   UNL     1       2.337   7.228  18.667  0.00  0.00    +0.000 NA
ATOM     20  O   UNL     1       2.119   8.343  19.482  0.00  0.00    +0.000 OA
ATOM     21  C   UNL     1       1.584   7.882  20.653  0.00  0.00    +0.000 A 
ATOM     22  N   UNL     1       1.470   6.575  20.676  0.00  0.00    +0.000 NA
BRANCH  21  23
ATOM     23  C   UNL     1       1.159   8.770  21.817  0.00  0.00    +0.000 C 
ATOM     24  C   UNL     1       0.254   9.953  21.530  0.00  0.00    +0.000 C 
ATOM     25  C   UNL     1      -0.292   8.773  22.256  0.00  0.00    +0.000 C 
ENDBRANCH  21  23
ENDBRANCH  17  18
ENDBRANCH   5  17
TORSDOF 6
ENDMDL
MODEL 5
REMARK VINA RESULT:      -7.3      1.436      8.323
REMARK  Name = 
REMARK  8 active torsions:
REMARK  status: ('A' for Active; 'I' for Inactive)
REMARK    1  A    between atoms: C_1  and  C_2
REMARK    2  A    between atoms: C_2  and  C_3
REMARK    3  A    between atoms: C_6  and  C_7
REMARK    4  A    between atoms: C_7  and  C_8
REMARK    5  A    between atoms: C_7  and  N_9
REMARK    6  A    between atoms: N_13  and  C_14
REMARK    7  A    between atoms: C_14  and  C_15
REMARK    8  A    between atoms: C_18  and  C_19
REMARK                            x       y       z     vdW  Elec       q    Type
REMARK                         _______ _______ _______ _____ _____    ______ ____
ROOT
ATOM      1  N   UNL     1       4.316   6.471  18.963  0.00  0.00    +0.000 NA
ATOM      2  C   UNL     1       4.415   6.794  17.530  0.00  0.00    +0.000 C 
ATOM      3  C   UNL     1       5.737   7.293  16.940  0.00  0.00    +0.000 C 
ATOM      4  C   UNL     1       7.043   6.538  17.189  0.00  0.00    +0.000 C 
ATOM      5  N   UNL     1       7.012   5.171  17.696  0.00  0.00    +0.000 NA
ATOM      6  C   UNL     1       6.598   5.182  19.098  0.00  0.00    +0.000 C 
ATOM      7  C   UNL     1       5.101   5.293  19.402  0.00  0.00    +0.000 C 
ENDROOT
BRANCH   1   8
ATOM      8  C   UNL     1       2.853   6.261  19.306  0.00  0.00    +0.000 C 
ATOM      9  C   UNL     1       2.113   5.515  18.184  0.00  0.00    +0.000 C 
BRANCH   8  13
ATOM     10  C   UNL     1       0.973   9.075  20.498  0.00  0.00    +0.000 A 
ATOM     11  N   UNL     1       1.045   9.429  19.208  0.00  0.00    +0.000 NA
ATOM     12  O   UNL     1       1.786   8.383  18.634  0.00  0.00    +0.000 OA
ATOM     13  C   UNL     1       2.086   7.519  19.651  0.00  0.00    +0.000 A 
ATOM     14  N   UNL     1       1.616   7.916  20.814  0.00  0.00    +0.000 NA
BRANCH  10  16
ATOM     15  C   UNL     1      -0.430   9.027  22.543  0.00  0.00    +0.000 C 
ATOM     16  C   UNL     1       0.321   9.896  21.547  0.00  0.00    +0.000 C 
ENDBRANCH  10  16
ENDBRANCH   8  13
ENDBRANCH   1   8
BRANCH   5  17
ATOM     17  C   UNL     1       6.326   4.211  16.807  0.00  0.00    +0.000 C 
BRANCH  17  18
ATOM     18  C   UNL     1       6.643   4.377  15.344  0.00  0.00    +0.000 A 
ATOM     19  N   UNL     1       7.632   5.158  14.888  0.00  0.00    +0.000 NA
ATOM     20  O   UNL     1       7.543   5.010  13.500  0.00  0.00    +0.000 OA
ATOM     21  C   UNL     1       6.494   4.168  13.255  0.00  0.00    +0.000 A 
ATOM     22  N   UNL     1       5.884   3.789  14.354  0.00  0.00    +0.000 NA
BRANCH  21  23
ATOM     23  C   UNL     1       6.063   3.704  11.869  0.00  0.00    +0.000 C 
ATOM     24  C   UNL     1       5.793   2.228  11.653  0.00  0.00    +0.000 C 
ATOM     25  C   UNL     1       4.653   3.186  11.665  0.00  0.00    +0.000 C 
ENDBRANCH  21  23
ENDBRANCH  17  18
ENDBRANCH   5  17
TORSDOF 6
ENDMDL
MODEL 6
REMARK VINA RESULT:      -7.3      1.463      1.698
REMARK  Name = 
REMARK  8 active torsions:
REMARK  status: ('A' for Active; 'I' for Inactive)
REMARK    1  A    between atoms: C_1  and  C_2
REMARK    2  A    between atoms: C_2  and  C_3
REMARK    3  A    between atoms: C_6  and  C_7
REMARK    4  A    between atoms: C_7  and  C_8
REMARK    5  A    between atoms: C_7  and  N_9
REMARK    6  A    between atoms: N_13  and  C_14
REMARK    7  A    between atoms: C_14  and  C_15
REMARK    8  A    between atoms: C_18  and  C_19
REMARK                            x       y       z     vdW  Elec       q    Type
REMARK                         _______ _______ _______ _____ _____    ______ ____
ROOT
ATOM      1  N   UNL     1       4.721   4.107  17.461  0.00  0.00    +0.000 NA
ATOM      2  C   UNL     1       4.055   5.396  17.210  0.00  0.00    +0.000 C 
ATOM      3  C   UNL     1       2.526   5.482  17.185  0.00  0.00    +0.000 C 
ATOM      4  C   UNL     1       1.687   4.905  18.326  0.00  0.00    +0.000 C 
ATOM      5  N   UNL     1       2.316   4.569  19.598  0.00  0.00    +0.000 NA
ATOM      6  C   UNL     1       3.146   3.378  19.430  0.00  0.00    +0.000 C 
ATOM      7  C   UNL     1       4.542   3.558  18.826  0.00  0.00    +0.000 C 
ENDROOT
BRANCH   1   8
ATOM      8  C   UNL     1       6.201   4.270  17.171  0.00  0.00    +0.000 C 
ATOM      9  C   UNL     1       6.809   5.429  17.978  0.00  0.00    +0.000 C 
BRANCH   8  13
ATOM     10  C   UNL     1       6.853   4.327  13.643  0.00  0.00    +0.000 A 
ATOM     11  N   UNL     1       7.607   5.378  13.991  0.00  0.00    +0.000 NA
ATOM     12  O   UNL     1       7.414   5.459  15.380  0.00  0.00    +0.000 OA
ATOM     13  C   UNL     1       6.555   4.448  15.710  0.00  0.00    +0.000 A 
ATOM     14  N   UNL     1       6.175   3.739  14.669  0.00  0.00    +0.000 NA
BRANCH  10  16
ATOM     15  C   UNL     1       5.381   3.085  12.080  0.00  0.00    +0.000 C 
ATOM     16  C   UNL     1       6.679   3.859  12.247  0.00  0.00    +0.000 C 
ENDBRANCH  10  16
ENDBRANCH   8  13
ENDBRANCH   1   8
BRANCH   5  17
ATOM     17  C   UNL     1       2.933   5.719  20.290  0.00  0.00    +0.000 C 
BRANCH  17  18
ATOM     18  C   UNL     1       2.045   6.929  20.408  0.00  0.00    +0.000 A 
ATOM     19  N   UNL     1       2.054   7.939  19.526  0.00  0.00    +0.000 NA
ATOM     20  O   UNL     1       1.096   8.820  20.038  0.00  0.00    +0.000 OA
ATOM     21  C   UNL     1       0.617   8.263  21.191  0.00  0.00    +0.000 A 
ATOM     22  N   UNL     1       1.202   7.124  21.482  0.00  0.00    +0.000 NA
BRANCH  21  23
ATOM     23  C   UNL     1      -0.475   8.877  22.059  0.00  0.00    +0.000 C 
ATOM     24  C   UNL     1      -0.063   9.648  23.299  0.00  0.00    +0.000 C 
ATOM     25  C   UNL     1      -0.608  10.385  22.126  0.00  0.00    +0.000 C 
ENDBRANCH  21  23
ENDBRANCH  17  18
ENDBRANCH   5  17
TORSDOF 6
ENDMDL
MODEL 7
REMARK VINA RESULT:      -7.2      1.346      1.719
REMARK  Name = 
REMARK  8 active torsions:
REMARK  status: ('A' for Active; 'I' for Inactive)
REMARK    1  A    between atoms: C_1  and  C_2
REMARK    2  A    between atoms: C_2  and  C_3
REMARK    3  A    between atoms: C_6  and  C_7
REMARK    4  A    between atoms: C_7  and  C_8
REMARK    5  A    between atoms: C_7  and  N_9
REMARK    6  A    between atoms: N_13  and  C_14
REMARK    7  A    between atoms: C_14  and  C_15
REMARK    8  A    between atoms: C_18  and  C_19
REMARK                            x       y       z     vdW  Elec       q    Type
REMARK                         _______ _______ _______ _____ _____    ______ ____
ROOT
ATOM      1  N   UNL     1       4.722   4.297  18.171  0.00  0.00    +0.000 NA
ATOM      2  C   UNL     1       3.955   5.338  17.467  0.00  0.00    +0.000 C 
ATOM      3  C   UNL     1       2.424   5.301  17.465  0.00  0.00    +0.000 C 
ATOM      4  C   UNL     1       1.639   5.153  18.769  0.00  0.00    +0.000 C 
ATOM      5  N   UNL     1       2.300   5.379  20.049  0.00  0.00    +0.000 NA
ATOM      6  C   UNL     1       3.220   4.277  20.323  0.00  0.00    +0.000 C 
ATOM      7  C   UNL     1       4.594   4.306  19.647  0.00  0.00    +0.000 C 
ENDROOT
BRANCH   1   8
ATOM      8  C   UNL     1       6.182   4.438  17.787  0.00  0.00    +0.000 C 
ATOM      9  C   UNL     1       6.832   5.648  18.477  0.00  0.00    +0.000 C 
BRANCH   8  13
ATOM     10  C   UNL     1       6.634   4.252  14.232  0.00  0.00    +0.000 A 
ATOM     11  N   UNL     1       7.411   5.318  14.466  0.00  0.00    +0.000 NA
ATOM     12  O   UNL     1       7.298   5.493  15.855  0.00  0.00    +0.000 OA
ATOM     13  C   UNL     1       6.454   4.514  16.301  0.00  0.00    +0.000 A 
ATOM     14  N   UNL     1       6.012   3.739  15.333  0.00  0.00    +0.000 NA
BRANCH  10  16
ATOM     15  C   UNL     1       7.240   4.370  11.830  0.00  0.00    +0.000 C 
ATOM     16  C   UNL     1       6.379   3.692  12.883  0.00  0.00    +0.000 C 
ENDBRANCH  10  16
ENDBRANCH   8  13
ENDBRANCH   1   8
BRANCH   5  17
ATOM     17  C   UNL     1       2.830   6.747  20.223  0.00  0.00    +0.000 C 
BRANCH  17  18
ATOM     18  C   UNL     1       1.783   7.830  20.213  0.00  0.00    +0.000 A 
ATOM     19  N   UNL     1       0.956   8.065  21.243  0.00  0.00    +0.000 NA
ATOM     20  O   UNL     1       0.171   9.128  20.786  0.00  0.00    +0.000 OA
ATOM     21  C   UNL     1       0.590   9.417  19.517  0.00  0.00    +0.000 A 
ATOM     22  N   UNL     1       1.546   8.617  19.107  0.00  0.00    +0.000 NA
BRANCH  21  23
ATOM     23  C   UNL     1       0.023  10.539  18.654  0.00  0.00    +0.000 C 
ATOM     24  C   UNL     1      -1.298  10.308  17.947  0.00  0.00    +0.000 C 
ATOM     25  C   UNL     1      -1.239  11.250  19.098  0.00  0.00    +0.000 C 
ENDBRANCH  21  23
ENDBRANCH  17  18
ENDBRANCH   5  17
TORSDOF 6
ENDMDL
MODEL 8
REMARK VINA RESULT:      -7.2      1.621      8.489
REMARK  Name = 
REMARK  8 active torsions:
REMARK  status: ('A' for Active; 'I' for Inactive)
REMARK    1  A    between atoms: C_1  and  C_2
REMARK    2  A    between atoms: C_2  and  C_3
REMARK    3  A    between atoms: C_6  and  C_7
REMARK    4  A    between atoms: C_7  and  C_8
REMARK    5  A    between atoms: C_7  and  N_9
REMARK    6  A    between atoms: N_13  and  C_14
REMARK    7  A    between atoms: C_14  and  C_15
REMARK    8  A    between atoms: C_18  and  C_19
REMARK                            x       y       z     vdW  Elec       q    Type
REMARK                         _______ _______ _______ _____ _____    ______ ____
ROOT
ATOM      1  N   UNL     1       4.268   6.240  18.978  0.00  0.00    +0.000 NA
ATOM      2  C   UNL     1       4.288   6.686  17.575  0.00  0.00    +0.000 C 
ATOM      3  C   UNL     1       5.563   7.284  16.973  0.00  0.00    +0.000 C 
ATOM      4  C   UNL     1       6.905   6.561  17.098  0.00  0.00    +0.000 C 
ATOM      5  N   UNL     1       6.945   5.157  17.487  0.00  0.00    +0.000 NA
ATOM      6  C   UNL     1       6.597   5.033  18.901  0.00  0.00    +0.000 C 
ATOM      7  C   UNL     1       5.113   5.060  19.279  0.00  0.00    +0.000 C 
ENDROOT
BRANCH   1   8
ATOM      8  C   UNL     1       2.831   5.946  19.365  0.00  0.00    +0.000 C 
ATOM      9  C   UNL     1       2.069   5.258  18.221  0.00  0.00    +0.000 C 
BRANCH   8  13
ATOM     10  C   UNL     1       1.107   8.988  20.172  0.00  0.00    +0.000 A 
ATOM     11  N   UNL     1       0.797   8.295  21.276  0.00  0.00    +0.000 NA
ATOM     12  O   UNL     1       1.422   7.057  21.060  0.00  0.00    +0.000 OA
ATOM     13  C   UNL     1       2.034   7.141  19.840  0.00  0.00    +0.000 A 
ATOM     14  N   UNL     1       1.851   8.306  19.255  0.00  0.00    +0.000 NA
BRANCH  10  16
ATOM     15  C   UNL     1      -0.614  10.692  20.706  0.00  0.00    +0.000 C 
ATOM     16  C   UNL     1       0.629  10.363  19.894  0.00  0.00    +0.000 C 
ENDBRANCH  10  16
ENDBRANCH   8  13
ENDBRANCH   1   8
BRANCH   5  17
ATOM     17  C   UNL     1       6.252   4.249  16.550  0.00  0.00    +0.000 C 
BRANCH  17  18
ATOM     18  C   UNL     1       6.676   4.391  15.112  0.00  0.00    +0.000 A 
ATOM     19  N   UNL     1       7.586   5.284  14.696  0.00  0.00    +0.000 NA
ATOM     20  O   UNL     1       7.647   5.061  13.317  0.00  0.00    +0.000 OA
ATOM     21  C   UNL     1       6.752   4.068  13.033  0.00  0.00    +0.000 A 
ATOM     22  N   UNL     1       6.101   3.656  14.096  0.00  0.00    +0.000 NA
BRANCH  21  23
ATOM     23  C   UNL     1       6.519   3.485  11.644  0.00  0.00    +0.000 C 
ATOM     24  C   UNL     1       7.239   2.203  11.270  0.00  0.00    +0.000 C 
ATOM     25  C   UNL     1       5.769   2.175  11.506  0.00  0.00    +0.000 C 
ENDBRANCH  21  23
ENDBRANCH  17  18
ENDBRANCH   5  17
TORSDOF 6
ENDMDL
MODEL 9
REMARK VINA RESULT:      -7.2      1.166      1.544
REMARK  Name = 
REMARK  8 active torsions:
REMARK  status: ('A' for Active; 'I' for Inactive)
REMARK    1  A    between atoms: C_1  and  C_2
REMARK    2  A    between atoms: C_2  and  C_3
REMARK    3  A    between atoms: C_6  and  C_7
REMARK    4  A    between atoms: C_7  and  C_8
REMARK    5  A    between atoms: C_7  and  N_9
REMARK    6  A    between atoms: N_13  and  C_14
REMARK    7  A    between atoms: C_14  and  C_15
REMARK    8  A    between atoms: C_18  and  C_19
REMARK                            x       y       z     vdW  Elec       q    Type
REMARK                         _______ _______ _______ _____ _____    ______ ____
ROOT
ATOM      1  N   UNL     1       5.243   4.384  18.113  0.00  0.00    +0.000 NA
ATOM      2  C   UNL     1       4.287   4.532  17.003  0.00  0.00    +0.000 C 
ATOM      3  C   UNL     1       2.826   4.108  17.180  0.00  0.00    +0.000 C 
ATOM      4  C   UNL     1       2.006   4.595  18.375  0.00  0.00    +0.000 C 
ATOM      5  N   UNL     1       2.477   5.720  19.175  0.00  0.00    +0.000 NA
ATOM      6  C   UNL     1       3.630   5.303  19.969  0.00  0.00    +0.000 C 
ATOM      7  C   UNL     1       4.998   5.264  19.280  0.00  0.00    +0.000 C 
ENDROOT
BRANCH   1   8
ATOM      8  C   UNL     1       6.640   4.630  17.577  0.00  0.00    +0.000 C 
ATOM      9  C   UNL     1       7.192   5.987  18.044  0.00  0.00    +0.000 C 
BRANCH   8  13
ATOM     10  C   UNL     1       7.145   4.776  14.027  0.00  0.00    +0.000 A 
ATOM     11  N   UNL     1       6.388   3.671  14.065  0.00  0.00    +0.000 NA
ATOM     12  O   UNL     1       6.135   3.508  15.437  0.00  0.00    +0.000 OA
ATOM     13  C   UNL     1       6.779   4.533  16.073  0.00  0.00    +0.000 A 
ATOM     14  N   UNL     1       7.424   5.326  15.243  0.00  0.00    +0.000 NA
BRANCH  10  16
ATOM     15  C   UNL     1       7.340   4.515  11.568  0.00  0.00    +0.000 C 
ATOM     16  C   UNL     1       7.723   5.342  12.785  0.00  0.00    +0.000 C 
ENDBRANCH  10  16
ENDBRANCH   8  13
ENDBRANCH   1   8
BRANCH   5  17
ATOM     17  C   UNL     1       2.609   6.985  18.422  0.00  0.00    +0.000 C 
BRANCH  17  18
ATOM     18  C   UNL     1       1.882   8.155  19.032  0.00  0.00    +0.000 A 
ATOM     19  N   UNL     1       1.571   8.232  20.334  0.00  0.00    +0.000 NA
ATOM     20  O   UNL     1       0.908   9.459  20.432  0.00  0.00    +0.000 OA
ATOM     21  C   UNL     1       0.868   9.993  19.174  0.00  0.00    +0.000 A 
ATOM     22  N   UNL     1       1.413   9.208  18.275  0.00  0.00    +0.000 NA
BRANCH  21  23
ATOM     23  C   UNL     1       0.262  11.349  18.829  0.00  0.00    +0.000 C 
ATOM     24  C   UNL     1      -1.182  11.397  18.366  0.00  0.00    +0.000 C 
ATOM     25  C   UNL     1      -0.827  11.921  19.714  0.00  0.00    +0.000 C 
ENDBRANCH  21  23
ENDBRANCH  17  18
ENDBRANCH   5  17
TORSDOF 6
ENDMDL
