MODEL 1
REMARK VINA RESULT:      -8.8      0.000      0.000
REMARK  Name = 
REMARK  5 active torsions:
REMARK  status: ('A' for Active; 'I' for Inactive)
REMARK    1  A    between atoms: C_1  and  C_2
REMARK    2  A    between atoms: C_4  and  C_5
REMARK    3  A    between atoms: C_8  and  C_9
REMARK    4  A    between atoms: N_15  and  C_16
REMARK    5  A    between atoms: C_28  and  C_29
REMARK                            x       y       z     vdW  Elec       q    Type
REMARK                         _______ _______ _______ _____ _____    ______ ____
ROOT
ATOM      1  C   UNL     1       4.030   6.258  17.972  0.00  0.00    +0.000 A 
ATOM      2  N   UNL     1       3.449   7.362  18.349  0.00  0.00    +0.000 NA
ATOM      3  C   UNL     1       2.544   7.193  19.343  0.00  0.00    +0.000 A 
ATOM      4  C   UNL     1       2.209   6.022  19.979  0.00  0.00    +0.000 A 
ATOM      5  C   UNL     1       1.292   6.388  20.970  0.00  0.00    +0.000 A 
ATOM      6  N   UNL     1       1.018   7.701  20.946  0.00  0.00    +0.000 NA
ATOM      7  N   UNL     1       1.767   8.168  19.915  0.00  0.00    +0.000 N 
ATOM      8  C   UNL     1       2.821   4.804  19.539  0.00  0.00    +0.000 A 
ATOM      9  O   UNL     1       2.594   3.697  20.019  0.00  0.00    +0.000 OA
ATOM     10  N   UNL     1       3.716   5.005  18.501  0.00  0.00    +0.000 N 
ATOM     11  H   UNL     1       4.174   4.174  18.159  0.00  0.00    +0.000 HD
ENDROOT
BRANCH   7  12
ATOM     12  C   UNL     1       1.624   9.543  19.444  0.00  0.00    +0.000 C 
ATOM     13  C   UNL     1       0.725  10.414  20.338  0.00  0.00    +0.000 C 
ATOM     14  C   UNL     1      -0.773  10.300  20.050  0.00  0.00    +0.000 C 
ATOM     15  C   UNL     1      -1.092  10.369  18.568  0.00  0.00    +0.000 C 
ATOM     16  F   UNL     1      -0.855  11.635  18.129  0.00  0.00    +0.000 F 
ATOM     17  F   UNL     1      -2.415  10.141  18.376  0.00  0.00    +0.000 F 
ATOM     18  C   UNL     1      -0.279   9.406  17.726  0.00  0.00    +0.000 C 
ATOM     19  C   UNL     1       1.219   9.594  17.961  0.00  0.00    +0.000 C 
ENDBRANCH   7  12
BRANCH   1  23
ATOM     20  C   UNL     1       5.950   4.963  16.645  0.00  0.00    +0.000 C 
ATOM     21  C   UNL     1       7.067   5.539  17.558  0.00  0.00    +0.000 C 
ATOM     22  C   UNL     1       6.523   6.949  17.308  0.00  0.00    +0.000 C 
ATOM     23  C   UNL     1       5.175   6.305  16.902  0.00  0.00    +0.000 C 
BRANCH  20  27
ATOM     24  C   UNL     1       6.353   3.144  12.014  0.00  0.00    +0.000 C 
ATOM     25  C   UNL     1       6.604   3.973  13.212  0.00  0.00    +0.000 A 
ATOM     26  N   UNL     1       5.937   3.776  14.403  0.00  0.00    +0.000 NA
ATOM     27  C   UNL     1       6.415   4.713  15.204  0.00  0.00    +0.000 A 
ATOM     28  O   UNL     1       7.369   5.507  14.614  0.00  0.00    +0.000 OA
ATOM     29  C   UNL     1       7.471   5.035  13.340  0.00  0.00    +0.000 A 
ATOM     30  C   UNL     1       8.401   5.715  12.422  0.00  0.00    +0.000 C 
ENDBRANCH  20  27
ENDBRANCH   1  23
TORSDOF 3
ENDMDL
MODEL 2
REMARK VINA RESULT:      -8.7      0.959      1.065
REMARK  Name = 
REMARK  5 active torsions:
REMARK  status: ('A' for Active; 'I' for Inactive)
REMARK    1  A    between atoms: C_1  and  C_2
REMARK    2  A    between atoms: C_4  and  C_5
REMARK    3  A    between atoms: C_8  and  C_9
REMARK    4  A    between atoms: N_15  and  C_16
REMARK    5  A    between atoms: C_28  and  C_29
REMARK                            x       y       z     vdW  Elec       q    Type
REMARK                         _______ _______ _______ _____ _____    ______ ____
ROOT
ATOM      1  C   UNL     1       3.839   6.855  18.002  0.00  0.00    +0.000 A 
ATOM      2  N   UNL     1       3.143   7.953  18.084  0.00  0.00    +0.000 NA
ATOM      3  C   UNL     1       2.254   7.964  19.107  0.00  0.00    +0.000 A 
ATOM      4  C   UNL     1       2.041   6.976  20.039  0.00  0.00    +0.000 A 
ATOM      5  C   UNL     1       1.084   7.497  20.917  0.00  0.00    +0.000 A 
ATOM      6  N   UNL     1       0.674   8.721  20.551  0.00  0.00    +0.000 NA
ATOM      7  N   UNL     1       1.376   8.971  19.417  0.00  0.00    +0.000 N 
ATOM      8  C   UNL     1       2.779   5.755  19.925  0.00  0.00    +0.000 A 
ATOM      9  O   UNL     1       2.666   4.799  20.686  0.00  0.00    +0.000 OA
ATOM     10  N   UNL     1       3.655   5.763  18.851  0.00  0.00    +0.000 N 
ATOM     11  H   UNL     1       4.199   4.922  18.732  0.00  0.00    +0.000 HD
ENDROOT
BRANCH   7  12
ATOM     12  C   UNL     1       1.093  10.148  18.601  0.00  0.00    +0.000 C 
ATOM     13  C   UNL     1       1.160  11.473  19.380  0.00  0.00    +0.000 C 
ATOM     14  C   UNL     1      -0.122  11.846  20.127  0.00  0.00    +0.000 C 
ATOM     15  C   UNL     1      -1.367  11.670  19.277  0.00  0.00    +0.000 C 
ATOM     16  F   UNL     1      -1.369  12.618  18.302  0.00  0.00    +0.000 F 
ATOM     17  F   UNL     1      -2.470  11.899  20.032  0.00  0.00    +0.000 F 
ATOM     18  C   UNL     1      -1.469  10.306  18.623  0.00  0.00    +0.000 C 
ATOM     19  C   UNL     1      -0.216   9.987  17.810  0.00  0.00    +0.000 C 
ENDBRANCH   7  12
BRANCH   1  23
ATOM     20  C   UNL     1       5.672   5.328  16.803  0.00  0.00    +0.000 C 
ATOM     21  C   UNL     1       6.826   5.919  17.660  0.00  0.00    +0.000 C 
ATOM     22  C   UNL     1       6.366   7.329  17.278  0.00  0.00    +0.000 C 
ATOM     23  C   UNL     1       4.980   6.732  16.933  0.00  0.00    +0.000 C 
BRANCH  20  27
ATOM     24  C   UNL     1       5.844   3.191  12.296  0.00  0.00    +0.000 C 
ATOM     25  C   UNL     1       6.210   4.037  13.451  0.00  0.00    +0.000 A 
ATOM     26  N   UNL     1       5.498   4.028  14.633  0.00  0.00    +0.000 NA
ATOM     27  C   UNL     1       6.114   4.917  15.393  0.00  0.00    +0.000 A 
ATOM     28  O   UNL     1       7.200   5.501  14.787  0.00  0.00    +0.000 OA
ATOM     29  C   UNL     1       7.243   4.942  13.544  0.00  0.00    +0.000 A 
ATOM     30  C   UNL     1       8.293   5.399  12.617  0.00  0.00    +0.000 C 
ENDBRANCH  20  27
ENDBRANCH   1  23
TORSDOF 3
ENDMDL
MODEL 3
REMARK VINA RESULT:      -8.7      3.842      8.018
REMARK  Name = 
REMARK  5 active torsions:
REMARK  status: ('A' for Active; 'I' for Inactive)
REMARK    1  A    between atoms: C_1  and  C_2
REMARK    2  A    between atoms: C_4  and  C_5
REMARK    3  A    between atoms: C_8  and  C_9
REMARK    4  A    between atoms: N_15  and  C_16
REMARK    5  A    between atoms: C_28  and  C_29
REMARK                            x       y       z     vdW  Elec       q    Type
REMARK                         _______ _______ _______ _____ _____    ______ ____
ROOT
ATOM      1  C   UNL     1       1.840   6.331  20.434  0.00  0.00    +0.000 A 
ATOM      2  N   UNL     1       2.857   6.349  19.620  0.00  0.00    +0.000 NA
ATOM      3  C   UNL     1       3.554   5.187  19.587  0.00  0.00    +0.000 A 
ATOM      4  C   UNL     1       3.287   4.033  20.285  0.00  0.00    +0.000 A 
ATOM      5  C   UNL     1       4.243   3.109  19.849  0.00  0.00    +0.000 A 
ATOM      6  N   UNL     1       5.098   3.643  18.963  0.00  0.00    +0.000 NA
ATOM      7  N   UNL     1       4.680   4.930  18.847  0.00  0.00    +0.000 N 
ATOM      8  C   UNL     1       2.191   4.027  21.206  0.00  0.00    +0.000 A 
ATOM      9  O   UNL     1       1.865   3.064  21.893  0.00  0.00    +0.000 OA
ATOM     10  N   UNL     1       1.520   5.239  21.241  0.00  0.00    +0.000 N 
ATOM     11  H   UNL     1       0.737   5.280  21.875  0.00  0.00    +0.000 HD
ENDROOT
BRANCH   7  12
ATOM     12  C   UNL     1       5.459   5.909  18.094  0.00  0.00    +0.000 C 
ATOM     13  C   UNL     1       4.887   6.214  16.700  0.00  0.00    +0.000 C 
ATOM     14  C   UNL     1       5.306   5.234  15.603  0.00  0.00    +0.000 C 
ATOM     15  C   UNL     1       6.793   4.928  15.628  0.00  0.00    +0.000 C 
ATOM     16  F   UNL     1       7.474   6.038  15.236  0.00  0.00    +0.000 F 
ATOM     17  F   UNL     1       7.075   3.967  14.715  0.00  0.00    +0.000 F 
ATOM     18  C   UNL     1       7.303   4.505  16.991  0.00  0.00    +0.000 C 
ATOM     19  C   UNL     1       6.951   5.539  18.059  0.00  0.00    +0.000 C 
ENDBRANCH   7  12
BRANCH   1  23
ATOM     20  C   UNL     1       1.533   8.981  20.313  0.00  0.00    +0.000 C 
ATOM     21  C   UNL     1       1.479   9.115  21.860  0.00  0.00    +0.000 C 
ATOM     22  C   UNL     1       0.395   8.033  21.901  0.00  0.00    +0.000 C 
ATOM     23  C   UNL     1       0.877   7.566  20.506  0.00  0.00    +0.000 C 
BRANCH  20  27
ATOM     24  C   UNL     1      -0.138  13.295  18.440  0.00  0.00    +0.000 C 
ATOM     25  C   UNL     1      -0.050  11.853  18.753  0.00  0.00    +0.000 A 
ATOM     26  N   UNL     1       0.927  11.330  19.574  0.00  0.00    +0.000 NA
ATOM     27  C   UNL     1       0.684  10.030  19.585  0.00  0.00    +0.000 A 
ATOM     28  O   UNL     1      -0.406   9.668  18.830  0.00  0.00    +0.000 OA
ATOM     29  C   UNL     1      -0.857  10.837  18.293  0.00  0.00    +0.000 A 
ATOM     30  C   UNL     1      -2.015  10.778  17.384  0.00  0.00    +0.000 C 
ENDBRANCH  20  27
ENDBRANCH   1  23
TORSDOF 3
ENDMDL
MODEL 4
REMARK VINA RESULT:      -8.6      4.169      8.342
REMARK  Name = 
REMARK  5 active torsions:
REMARK  status: ('A' for Active; 'I' for Inactive)
REMARK    1  A    between atoms: C_1  and  C_2
REMARK    2  A    between atoms: C_4  and  C_5
REMARK    3  A    between atoms: C_8  and  C_9
REMARK    4  A    between atoms: N_15  and  C_16
REMARK    5  A    between atoms: C_28  and  C_29
REMARK                            x       y       z     vdW  Elec       q    Type
REMARK                         _______ _______ _______ _____ _____    ______ ____
ROOT
ATOM      1  C   UNL     1       2.219   8.315  18.607  0.00  0.00    +0.000 A 
ATOM      2  N   UNL     1       3.241   7.871  17.932  0.00  0.00    +0.000 NA
ATOM      3  C   UNL     1       3.693   6.665  18.353  0.00  0.00    +0.000 A 
ATOM      4  C   UNL     1       3.186   5.889  19.367  0.00  0.00    +0.000 A 
ATOM      5  C   UNL     1       3.950   4.717  19.355  0.00  0.00    +0.000 A 
ATOM      6  N   UNL     1       4.917   4.753  18.424  0.00  0.00    +0.000 NA
ATOM      7  N   UNL     1       4.765   5.973  17.848  0.00  0.00    +0.000 N 
ATOM      8  C   UNL     1       2.086   6.395  20.132  0.00  0.00    +0.000 A 
ATOM      9  O   UNL     1       1.557   5.802  21.068  0.00  0.00    +0.000 OA
ATOM     10  N   UNL     1       1.668   7.643  19.699  0.00  0.00    +0.000 N 
ATOM     11  H   UNL     1       0.893   8.039  20.208  0.00  0.00    +0.000 HD
ENDROOT
BRANCH   7  12
ATOM     12  C   UNL     1       5.742   6.477  16.888  0.00  0.00    +0.000 C 
ATOM     13  C   UNL     1       5.214   6.544  15.445  0.00  0.00    +0.000 C 
ATOM     14  C   UNL     1       5.316   5.235  14.660  0.00  0.00    +0.000 C 
ATOM     15  C   UNL     1       6.669   4.566  14.811  0.00  0.00    +0.000 C 
ATOM     16  F   UNL     1       7.602   5.313  14.161  0.00  0.00    +0.000 F 
ATOM     17  F   UNL     1       6.652   3.358  14.195  0.00  0.00    +0.000 F 
ATOM     18  C   UNL     1       7.106   4.398  16.253  0.00  0.00    +0.000 C 
ATOM     19  C   UNL     1       7.082   5.732  16.998  0.00  0.00    +0.000 C 
ENDBRANCH   7  12
BRANCH   1  23
ATOM     20  C   UNL     1       1.151  10.654  19.324  0.00  0.00    +0.000 C 
ATOM     21  C   UNL     1      -0.298  10.105  19.218  0.00  0.00    +0.000 C 
ATOM     22  C   UNL     1       0.015   9.595  17.808  0.00  0.00    +0.000 C 
ATOM     23  C   UNL     1       1.518   9.649  18.174  0.00  0.00    +0.000 C 
BRANCH  20  27
ATOM     24  C   UNL     1       0.142  15.519  18.839  0.00  0.00    +0.000 C 
ATOM     25  C   UNL     1       0.870  14.234  18.776  0.00  0.00    +0.000 A 
ATOM     26  N   UNL     1       0.302  13.039  19.164  0.00  0.00    +0.000 NA
ATOM     27  C   UNL     1       1.260  12.146  18.982  0.00  0.00    +0.000 A 
ATOM     28  O   UNL     1       2.422  12.681  18.481  0.00  0.00    +0.000 OA
ATOM     29  C   UNL     1       2.167  14.015  18.367  0.00  0.00    +0.000 A 
ATOM     30  C   UNL     1       3.252  14.888  17.886  0.00  0.00    +0.000 C 
ENDBRANCH  20  27
ENDBRANCH   1  23
TORSDOF 3
ENDMDL
MODEL 5
REMARK VINA RESULT:      -8.6      3.843      7.976
REMARK  Name = 
REMARK  5 active torsions:
REMARK  status: ('A' for Active; 'I' for Inactive)
REMARK    1  A    between atoms: C_1  and  C_2
REMARK    2  A    between atoms: C_4  and  C_5
REMARK    3  A    between atoms: C_8  and  C_9
REMARK    4  A    between atoms: N_15  and  C_16
REMARK    5  A    between atoms: C_28  and  C_29
REMARK                            x       y       z     vdW  Elec       q    Type
REMARK                         _______ _______ _______ _____ _____    ______ ____
ROOT
ATOM      1  C   UNL     1       1.846   6.375  20.359  0.00  0.00    +0.000 A 
ATOM      2  N   UNL     1       2.872   6.379  19.557  0.00  0.00    +0.000 NA
ATOM      3  C   UNL     1       3.564   5.213  19.546  0.00  0.00    +0.000 A 
ATOM      4  C   UNL     1       3.285   4.069  20.254  0.00  0.00    +0.000 A 
ATOM      5  C   UNL     1       4.242   3.136  19.841  0.00  0.00    +0.000 A 
ATOM      6  N   UNL     1       5.108   3.656  18.958  0.00  0.00    +0.000 NA
ATOM      7  N   UNL     1       4.697   4.942  18.822  0.00  0.00    +0.000 N 
ATOM      8  C   UNL     1       2.178   4.078  21.163  0.00  0.00    +0.000 A 
ATOM      9  O   UNL     1       1.840   3.125  21.858  0.00  0.00    +0.000 OA
ATOM     10  N   UNL     1       1.512   5.293  21.175  0.00  0.00    +0.000 N 
ATOM     11  H   UNL     1       0.722   5.346  21.800  0.00  0.00    +0.000 HD
ENDROOT
BRANCH   7  12
ATOM     12  C   UNL     1       5.489   5.909  18.067  0.00  0.00    +0.000 C 
ATOM     13  C   UNL     1       4.914   6.228  16.676  0.00  0.00    +0.000 C 
ATOM     14  C   UNL     1       5.308   5.243  15.574  0.00  0.00    +0.000 C 
ATOM     15  C   UNL     1       6.789   4.910  15.589  0.00  0.00    +0.000 C 
ATOM     16  F   UNL     1       7.488   6.009  15.195  0.00  0.00    +0.000 F 
ATOM     17  F   UNL     1       7.048   3.946  14.672  0.00  0.00    +0.000 F 
ATOM     18  C   UNL     1       7.300   4.474  16.948  0.00  0.00    +0.000 C 
ATOM     19  C   UNL     1       6.974   5.512  18.021  0.00  0.00    +0.000 C 
ENDBRANCH   7  12
BRANCH   1  23
ATOM     20  C   UNL     1       1.560   9.028  20.272  0.00  0.00    +0.000 C 
ATOM     21  C   UNL     1       1.428   9.135  21.816  0.00  0.00    +0.000 C 
ATOM     22  C   UNL     1       0.338   8.059  21.782  0.00  0.00    +0.000 C 
ATOM     23  C   UNL     1       0.887   7.615  20.405  0.00  0.00    +0.000 C 
BRANCH  20  27
ATOM     24  C   UNL     1      -1.941  11.319  17.551  0.00  0.00    +0.000 C 
ATOM     25  C   UNL     1      -0.734  11.112  18.378  0.00  0.00    +0.000 A 
ATOM     26  N   UNL     1      -0.331   9.863  18.802  0.00  0.00    +0.000 NA
ATOM     27  C   UNL     1       0.755  10.096  19.521  0.00  0.00    +0.000 A 
ATOM     28  O   UNL     1       1.099  11.424  19.582  0.00  0.00    +0.000 OA
ATOM     29  C   UNL     1       0.135  12.064  18.862  0.00  0.00    +0.000 A 
ATOM     30  C   UNL     1       0.201  13.533  18.770  0.00  0.00    +0.000 C 
ENDBRANCH  20  27
ENDBRANCH   1  23
TORSDOF 3
ENDMDL
MODEL 6
REMARK VINA RESULT:      -8.6      4.568      9.630
REMARK  Name = 
REMARK  5 active torsions:
REMARK  status: ('A' for Active; 'I' for Inactive)
REMARK    1  A    between atoms: C_1  and  C_2
REMARK    2  A    between atoms: C_4  and  C_5
REMARK    3  A    between atoms: C_8  and  C_9
REMARK    4  A    between atoms: N_15  and  C_16
REMARK    5  A    between atoms: C_28  and  C_29
REMARK                            x       y       z     vdW  Elec       q    Type
REMARK                         _______ _______ _______ _____ _____    ______ ____
ROOT
ATOM      1  C   UNL     1       0.700   8.772  20.055  0.00  0.00    +0.000 A 
ATOM      2  N   UNL     1       1.264   7.610  20.225  0.00  0.00    +0.000 NA
ATOM      3  C   UNL     1       2.231   7.332  19.318  0.00  0.00    +0.000 A 
ATOM      4  C   UNL     1       2.671   8.134  18.292  0.00  0.00    +0.000 A 
ATOM      5  C   UNL     1       3.723   7.430  17.697  0.00  0.00    +0.000 A 
ATOM      6  N   UNL     1       3.921   6.233  18.272  0.00  0.00    +0.000 NA
ATOM      7  N   UNL     1       2.969   6.178  19.238  0.00  0.00    +0.000 N 
ATOM      8  C   UNL     1       2.026   9.395  18.084  0.00  0.00    +0.000 A 
ATOM      9  O   UNL     1       2.320  10.189  17.196  0.00  0.00    +0.000 OA
ATOM     10  N   UNL     1       1.020   9.635  19.007  0.00  0.00    +0.000 N 
ATOM     11  H   UNL     1       0.538  10.515  18.900  0.00  0.00    +0.000 HD
ENDROOT
BRANCH   7  12
ATOM     12  C   UNL     1       2.733   4.950  19.992  0.00  0.00    +0.000 C 
ATOM     13  C   UNL     1       3.868   3.919  19.868  0.00  0.00    +0.000 C 
ATOM     14  C   UNL     1       3.788   3.019  18.634  0.00  0.00    +0.000 C 
ATOM     15  C   UNL     1       2.395   2.462  18.405  0.00  0.00    +0.000 C 
ATOM     16  F   UNL     1       2.118   1.559  19.384  0.00  0.00    +0.000 F 
ATOM     17  F   UNL     1       2.364   1.776  17.236  0.00  0.00    +0.000 F 
ATOM     18  C   UNL     1       1.309   3.521  18.406  0.00  0.00    +0.000 C 
ATOM     19  C   UNL     1       1.349   4.354  19.686  0.00  0.00    +0.000 C 
ENDBRANCH   7  12
BRANCH   1  23
ATOM     20  C   UNL     1      -0.008  10.592  21.876  0.00  0.00    +0.000 C 
ATOM     21  C   UNL     1       0.384   9.663  23.059  0.00  0.00    +0.000 C 
ATOM     22  C   UNL     1      -0.470   8.549  22.446  0.00  0.00    +0.000 C 
ATOM     23  C   UNL     1      -0.365   9.281  21.087  0.00  0.00    +0.000 C 
BRANCH  20  27
ATOM     24  C   UNL     1      -3.490  14.155  21.574  0.00  0.00    +0.000 C 
ATOM     25  C   UNL     1      -2.692  13.029  22.101  0.00  0.00    +0.000 A 
ATOM     26  N   UNL     1      -1.596  12.520  21.436  0.00  0.00    +0.000 NA
ATOM     27  C   UNL     1      -1.179  11.527  22.204  0.00  0.00    +0.000 A 
ATOM     28  O   UNL     1      -1.927  11.362  23.344  0.00  0.00    +0.000 OA
ATOM     29  C   UNL     1      -2.898  12.316  23.261  0.00  0.00    +0.000 A 
ATOM     30  C   UNL     1      -3.904  12.373  24.335  0.00  0.00    +0.000 C 
ENDBRANCH  20  27
ENDBRANCH   1  23
TORSDOF 3
ENDMDL
MODEL 7
REMARK VINA RESULT:      -8.6      4.192      8.402
REMARK  Name = 
REMARK  5 active torsions:
REMARK  status: ('A' for Active; 'I' for Inactive)
REMARK    1  A    between atoms: C_1  and  C_2
REMARK    2  A    between atoms: C_4  and  C_5
REMARK    3  A    between atoms: C_8  and  C_9
REMARK    4  A    between atoms: N_15  and  C_16
REMARK    5  A    between atoms: C_28  and  C_29
REMARK                            x       y       z     vdW  Elec       q    Type
REMARK                         _______ _______ _______ _____ _____    ______ ____
ROOT
ATOM      1  C   UNL     1       2.257   8.321  18.626  0.00  0.00    +0.000 A 
ATOM      2  N   UNL     1       3.271   7.868  17.946  0.00  0.00    +0.000 NA
ATOM      3  C   UNL     1       3.697   6.645  18.344  0.00  0.00    +0.000 A 
ATOM      4  C   UNL     1       3.170   5.860  19.342  0.00  0.00    +0.000 A 
ATOM      5  C   UNL     1       3.910   4.673  19.309  0.00  0.00    +0.000 A 
ATOM      6  N   UNL     1       4.879   4.706  18.382  0.00  0.00    +0.000 NA
ATOM      7  N   UNL     1       4.755   5.940  17.829  0.00  0.00    +0.000 N 
ATOM      8  C   UNL     1       2.079   6.375  20.113  0.00  0.00    +0.000 A 
ATOM      9  O   UNL     1       1.535   5.775  21.036  0.00  0.00    +0.000 OA
ATOM     10  N   UNL     1       1.689   7.639  19.704  0.00  0.00    +0.000 N 
ATOM     11  H   UNL     1       0.921   8.042  20.218  0.00  0.00    +0.000 HD
ENDROOT
BRANCH   7  12
ATOM     12  C   UNL     1       5.745   6.442  16.881  0.00  0.00    +0.000 C 
ATOM     13  C   UNL     1       5.229   6.529  15.434  0.00  0.00    +0.000 C 
ATOM     14  C   UNL     1       5.322   5.226  14.638  0.00  0.00    +0.000 C 
ATOM     15  C   UNL     1       6.667   4.539  14.794  0.00  0.00    +0.000 C 
ATOM     16  F   UNL     1       7.613   5.282  14.158  0.00  0.00    +0.000 F 
ATOM     17  F   UNL     1       6.640   3.338  14.165  0.00  0.00    +0.000 F 
ATOM     18  C   UNL     1       7.090   4.353  16.237  0.00  0.00    +0.000 C 
ATOM     19  C   UNL     1       7.076   5.680  16.994  0.00  0.00    +0.000 C 
ENDBRANCH   7  12
BRANCH   1  23
ATOM     20  C   UNL     1       1.231  10.665  19.386  0.00  0.00    +0.000 C 
ATOM     21  C   UNL     1      -0.229  10.147  19.258  0.00  0.00    +0.000 C 
ATOM     22  C   UNL     1       0.085   9.662  17.840  0.00  0.00    +0.000 C 
ATOM     23  C   UNL     1       1.586   9.677  18.217  0.00  0.00    +0.000 C 
BRANCH  20  27
ATOM     24  C   UNL     1       3.031  15.075  17.894  0.00  0.00    +0.000 C 
ATOM     25  C   UNL     1       2.101  14.060  18.432  0.00  0.00    +0.000 A 
ATOM     26  N   UNL     1       2.463  12.741  18.608  0.00  0.00    +0.000 NA
ATOM     27  C   UNL     1       1.371  12.161  19.077  0.00  0.00    +0.000 A 
ATOM     28  O   UNL     1       0.314  13.025  19.235  0.00  0.00    +0.000 OA
ATOM     29  C   UNL     1       0.787  14.230  18.807  0.00  0.00    +0.000 A 
ATOM     30  C   UNL     1      -0.137  15.377  18.814  0.00  0.00    +0.000 C 
ENDBRANCH  20  27
ENDBRANCH   1  23
TORSDOF 3
ENDMDL
MODEL 8
REMARK VINA RESULT:      -8.5      4.538      9.567
REMARK  Name = 
REMARK  5 active torsions:
REMARK  status: ('A' for Active; 'I' for Inactive)
REMARK    1  A    between atoms: C_1  and  C_2
REMARK    2  A    between atoms: C_4  and  C_5
REMARK    3  A    between atoms: C_8  and  C_9
REMARK    4  A    between atoms: N_15  and  C_16
REMARK    5  A    between atoms: C_28  and  C_29
REMARK                            x       y       z     vdW  Elec       q    Type
REMARK                         _______ _______ _______ _____ _____    ______ ____
ROOT
ATOM      1  C   UNL     1       0.756   8.690  20.053  0.00  0.00    +0.000 A 
ATOM      2  N   UNL     1       1.346   7.539  20.208  0.00  0.00    +0.000 NA
ATOM      3  C   UNL     1       2.311   7.288  19.290  0.00  0.00    +0.000 A 
ATOM      4  C   UNL     1       2.724   8.107  18.267  0.00  0.00    +0.000 A 
ATOM      5  C   UNL     1       3.786   7.430  17.657  0.00  0.00    +0.000 A 
ATOM      6  N   UNL     1       4.014   6.234  18.221  0.00  0.00    +0.000 NA
ATOM      7  N   UNL     1       3.072   6.151  19.195  0.00  0.00    +0.000 N 
ATOM      8  C   UNL     1       2.050   9.356  18.074  0.00  0.00    +0.000 A 
ATOM      9  O   UNL     1       2.319  10.163  17.189  0.00  0.00    +0.000 OA
ATOM     10  N   UNL     1       1.048   9.568  19.008  0.00  0.00    +0.000 N 
ATOM     11  H   UNL     1       0.547  10.438  18.912  0.00  0.00    +0.000 HD
ENDROOT
BRANCH   7  12
ATOM     12  C   UNL     1       2.870   4.913  19.942  0.00  0.00    +0.000 C 
ATOM     13  C   UNL     1       3.988   3.877  19.738  0.00  0.00    +0.000 C 
ATOM     14  C   UNL     1       3.832   2.997  18.496  0.00  0.00    +0.000 C 
ATOM     15  C   UNL     1       2.425   2.453  18.337  0.00  0.00    +0.000 C 
ATOM     16  F   UNL     1       2.197   1.536  19.316  0.00  0.00    +0.000 F 
ATOM     17  F   UNL     1       2.324   1.786  17.161  0.00  0.00    +0.000 F 
ATOM     18  C   UNL     1       1.349   3.519  18.415  0.00  0.00    +0.000 C 
ATOM     19  C   UNL     1       1.467   4.331  19.704  0.00  0.00    +0.000 C 
ENDBRANCH   7  12
BRANCH   1  23
ATOM     20  C   UNL     1      -0.008  10.519  21.841  0.00  0.00    +0.000 C 
ATOM     21  C   UNL     1       0.465   9.649  23.037  0.00  0.00    +0.000 C 
ATOM     22  C   UNL     1      -0.339   8.471  22.479  0.00  0.00    +0.000 C 
ATOM     23  C   UNL     1      -0.310   9.168  21.097  0.00  0.00    +0.000 C 
BRANCH  20  27
ATOM     24  C   UNL     1      -3.786  12.711  24.257  0.00  0.00    +0.000 C 
ATOM     25  C   UNL     1      -2.833  12.368  23.181  0.00  0.00    +0.000 A 
ATOM     26  N   UNL     1      -1.876  11.385  23.322  0.00  0.00    +0.000 NA
ATOM     27  C   UNL     1      -1.222  11.397  22.173  0.00  0.00    +0.000 A 
ATOM     28  O   UNL     1      -1.702  12.321  21.277  0.00  0.00    +0.000 OA
ATOM     29  C   UNL     1      -2.720  12.944  21.935  0.00  0.00    +0.000 A 
ATOM     30  C   UNL     1      -3.426  14.035  21.242  0.00  0.00    +0.000 C 
ENDBRANCH  20  27
ENDBRANCH   1  23
TORSDOF 3
ENDMDL
MODEL 9
REMARK VINA RESULT:      -8.5      3.741      8.687
REMARK  Name = 
REMARK  5 active torsions:
REMARK  status: ('A' for Active; 'I' for Inactive)
REMARK    1  A    between atoms: C_1  and  C_2
REMARK    2  A    between atoms: C_4  and  C_5
REMARK    3  A    between atoms: C_8  and  C_9
REMARK    4  A    between atoms: N_15  and  C_16
REMARK    5  A    between atoms: C_28  and  C_29
REMARK                            x       y       z     vdW  Elec       q    Type
REMARK                         _______ _______ _______ _____ _____    ______ ____
ROOT
ATOM      1  C   UNL     1       2.438   7.551  19.440  0.00  0.00    +0.000 A 
ATOM      2  N   UNL     1       3.405   7.233  18.627  0.00  0.00    +0.000 NA
ATOM      3  C   UNL     1       3.787   5.935  18.710  0.00  0.00    +0.000 A 
ATOM      4  C   UNL     1       3.259   4.959  19.521  0.00  0.00    +0.000 A 
ATOM      5  C   UNL     1       3.940   3.786  19.180  0.00  0.00    +0.000 A 
ATOM      6  N   UNL     1       4.877   3.999  18.242  0.00  0.00    +0.000 NA
ATOM      7  N   UNL     1       4.792   5.332  17.998  0.00  0.00    +0.000 N 
ATOM      8  C   UNL     1       2.222   5.319  20.440  0.00  0.00    +0.000 A 
ATOM      9  O   UNL     1       1.683   4.541  21.222  0.00  0.00    +0.000 OA
ATOM     10  N   UNL     1       1.877   6.659  20.354  0.00  0.00    +0.000 N 
ATOM     11  H   UNL     1       1.147   6.958  20.983  0.00  0.00    +0.000 HD
ENDROOT
BRANCH   7  12
ATOM     12  C   UNL     1       5.770   6.004  17.148  0.00  0.00    +0.000 C 
ATOM     13  C   UNL     1       5.233   6.370  15.754  0.00  0.00    +0.000 C 
ATOM     14  C   UNL     1       5.306   5.244  14.721  0.00  0.00    +0.000 C 
ATOM     15  C   UNL     1       6.649   4.537  14.719  0.00  0.00    +0.000 C 
ATOM     16  F   UNL     1       7.589   5.385  14.223  0.00  0.00    +0.000 F 
ATOM     17  F   UNL     1       6.606   3.479  13.872  0.00  0.00    +0.000 F 
ATOM     18  C   UNL     1       7.093   4.075  16.093  0.00  0.00    +0.000 C 
ATOM     19  C   UNL     1       7.098   5.231  17.092  0.00  0.00    +0.000 C 
ENDBRANCH   7  12
BRANCH   1  23
ATOM     20  C   UNL     1       0.254   9.076  19.255  0.00  0.00    +0.000 C 
ATOM     21  C   UNL     1       0.489   9.352  17.745  0.00  0.00    +0.000 C 
ATOM     22  C   UNL     1       1.925   9.782  18.063  0.00  0.00    +0.000 C 
ATOM     23  C   UNL     1       1.818   8.990  19.388  0.00  0.00    +0.000 C 
BRANCH  20  27
ATOM     24  C   UNL     1      -2.490  13.125  20.249  0.00  0.00    +0.000 C 
ATOM     25  C   UNL     1      -1.605  11.958  20.450  0.00  0.00    +0.000 A 
ATOM     26  N   UNL     1      -1.160  11.175  19.405  0.00  0.00    +0.000 NA
ATOM     27  C   UNL     1      -0.426  10.241  19.985  0.00  0.00    +0.000 A 
ATOM     28  O   UNL     1      -0.349  10.372  21.351  0.00  0.00    +0.000 OA
ATOM     29  C   UNL     1      -1.115  11.462  21.637  0.00  0.00    +0.000 A 
ATOM     30  C   UNL     1      -1.269  11.846  23.051  0.00  0.00    +0.000 C 
ENDBRANCH  20  27
ENDBRANCH   1  23
TORSDOF 3
ENDMDL
