MODEL 1
REMARK VINA RESULT:      -8.0      0.000      0.000
REMARK  Name = 
REMARK  6 active torsions:
REMARK  status: ('A' for Active; 'I' for Inactive)
REMARK    1  A    between atoms: C_1  and  C_2
REMARK    2  A    between atoms: C_10  and  C_11
REMARK    3  A    between atoms: C_12  and  C_13
REMARK    4  A    between atoms: N_23  and  C_24
REMARK    5  A    between atoms: C_24  and  C_25
REMARK    6  A    between atoms: C_25  and  O_26
REMARK                            x       y       z     vdW  Elec       q    Type
REMARK                         _______ _______ _______ _____ _____    ______ ____
ROOT
ATOM      1  C   UNL     1       2.948   6.513  18.764  0.00  0.00    +0.000 A 
ATOM      2  N   UNL     1       3.782   6.898  17.843  0.00  0.00    +0.000 NA
ATOM      3  C   UNL     1       4.402   5.941  17.041  0.00  0.00    +0.000 A 
ATOM      4  C   UNL     1       5.164   6.369  15.953  0.00  0.00    +0.000 A 
ATOM      5  C   UNL     1       5.750   5.443  15.086  0.00  0.00    +0.000 A 
ATOM      6  C   UNL     1       5.588   4.076  15.316  0.00  0.00    +0.000 A 
ATOM      7  C   UNL     1       4.847   3.639  16.414  0.00  0.00    +0.000 A 
ATOM      8  C   UNL     1       4.254   4.578  17.267  0.00  0.00    +0.000 A 
ATOM      9  C   UNL     1       3.393   4.166  18.388  0.00  0.00    +0.000 A 
ATOM     10  O   UNL     1       3.318   2.976  18.690  0.00  0.00    +0.000 OA
ATOM     11  N   UNL     1       2.682   5.180  19.037  0.00  0.00    +0.000 N 
ENDROOT
BRANCH   1  13
ATOM     12  C   UNL     1       1.827   8.683  19.002  0.00  0.00    +0.000 C 
ATOM     13  C   UNL     1       2.283   7.558  19.581  0.00  0.00    +0.000 C 
BRANCH  12  23
ATOM     14  C   UNL     1       1.869  11.750  17.999  0.00  0.00    +0.000 C 
ATOM     15  C   UNL     1       1.350  11.132  19.249  0.00  0.00    +0.000 A 
ATOM     16  N   UNL     1       0.721  11.901  20.197  0.00  0.00    +0.000 N 
ATOM     17  C   UNL     1       0.183  11.120  21.190  0.00  0.00    +0.000 A 
ATOM     18  C   UNL     1      -0.574  11.488  22.310  0.00  0.00    +0.000 A 
ATOM     19  C   UNL     1      -1.029  10.468  23.147  0.00  0.00    +0.000 A 
ATOM     20  C   UNL     1      -0.732   9.133  22.874  0.00  0.00    +0.000 A 
ATOM     21  C   UNL     1       0.039   8.786  21.756  0.00  0.00    +0.000 A 
ATOM     22  C   UNL     1       0.513   9.797  20.890  0.00  0.00    +0.000 A 
ATOM     23  C   UNL     1       1.295   9.818  19.690  0.00  0.00    +0.000 A 
ATOM     24  H   UNL     1       0.607  12.904  20.144  0.00  0.00    +0.000 HD
ENDBRANCH  12  23
ENDBRANCH   1  13
BRANCH  11  25
ATOM     25  C   UNL     1       1.635   4.723  19.964  0.00  0.00    +0.000 C 
BRANCH  25  26
ATOM     26  C   UNL     1       2.160   4.291  21.337  0.00  0.00    +0.000 C 
BRANCH  26  27
ATOM     27  O   UNL     1       2.053   2.879  21.496  0.00  0.00    +0.000 OA
ATOM     28  H   UNL     1       2.602   2.475  20.803  0.00  0.00    +0.000 HD
ENDBRANCH  26  27
ENDBRANCH  25  26
ENDBRANCH  11  25
TORSDOF 5
ENDMDL
MODEL 2
REMARK VINA RESULT:      -8.0      2.802      7.264
REMARK  Name = 
REMARK  6 active torsions:
REMARK  status: ('A' for Active; 'I' for Inactive)
REMARK    1  A    between atoms: C_1  and  C_2
REMARK    2  A    between atoms: C_10  and  C_11
REMARK    3  A    between atoms: C_12  and  C_13
REMARK    4  A    between atoms: N_23  and  C_24
REMARK    5  A    between atoms: C_24  and  C_25
REMARK    6  A    between atoms: C_25  and  O_26
REMARK                            x       y       z     vdW  Elec       q    Type
REMARK                         _______ _______ _______ _____ _____    ______ ____
ROOT
ATOM      1  C   UNL     1       1.389   9.862  19.001  0.00  0.00    +0.000 A 
ATOM      2  N   UNL     1       1.982  10.731  18.237  0.00  0.00    +0.000 NA
ATOM      3  C   UNL     1       1.944  12.081  18.583  0.00  0.00    +0.000 A 
ATOM      4  C   UNL     1       2.718  12.984  17.851  0.00  0.00    +0.000 A 
ATOM      5  C   UNL     1       2.760  14.335  18.203  0.00  0.00    +0.000 A 
ATOM      6  C   UNL     1       2.009  14.795  19.285  0.00  0.00    +0.000 A 
ATOM      7  C   UNL     1       1.214  13.905  20.009  0.00  0.00    +0.000 A 
ATOM      8  C   UNL     1       1.193  12.551  19.653  0.00  0.00    +0.000 A 
ATOM      9  C   UNL     1       0.437  11.560  20.437  0.00  0.00    +0.000 A 
ATOM     10  O   UNL     1      -0.323  11.941  21.326  0.00  0.00    +0.000 OA
ATOM     11  N   UNL     1       0.659  10.214  20.127  0.00  0.00    +0.000 N 
ENDROOT
BRANCH   1  13
ATOM     12  C   UNL     1       2.508   7.679  19.034  0.00  0.00    +0.000 C 
ATOM     13  C   UNL     1       1.472   8.430  18.622  0.00  0.00    +0.000 C 
BRANCH  12  23
ATOM     14  C   UNL     1       4.633   6.716  16.804  0.00  0.00    +0.000 C 
ATOM     15  C   UNL     1       3.677   5.948  17.648  0.00  0.00    +0.000 A 
ATOM     16  N   UNL     1       3.632   4.577  17.578  0.00  0.00    +0.000 N 
ATOM     17  C   UNL     1       2.803   4.060  18.542  0.00  0.00    +0.000 A 
ATOM     18  C   UNL     1       2.511   2.725  18.852  0.00  0.00    +0.000 A 
ATOM     19  C   UNL     1       1.646   2.483  19.921  0.00  0.00    +0.000 A 
ATOM     20  C   UNL     1       1.094   3.538  20.646  0.00  0.00    +0.000 A 
ATOM     21  C   UNL     1       1.387   4.868  20.312  0.00  0.00    +0.000 A 
ATOM     22  C   UNL     1       2.260   5.143  19.235  0.00  0.00    +0.000 A 
ATOM     23  C   UNL     1       2.777   6.334  18.629  0.00  0.00    +0.000 A 
ATOM     24  H   UNL     1       4.186   4.013  16.948  0.00  0.00    +0.000 HD
ENDBRANCH  12  23
ENDBRANCH   1  13
BRANCH  11  25
ATOM     25  C   UNL     1       0.110   9.245  21.088  0.00  0.00    +0.000 C 
BRANCH  25  26
ATOM     26  C   UNL     1       0.965   9.058  22.345  0.00  0.00    +0.000 C 
BRANCH  26  27
ATOM     27  O   UNL     1       0.421   9.790  23.440  0.00  0.00    +0.000 OA
ATOM     28  H   UNL     1      -0.112  10.510  23.060  0.00  0.00    +0.000 HD
ENDBRANCH  26  27
ENDBRANCH  25  26
ENDBRANCH  11  25
TORSDOF 5
ENDMDL
MODEL 3
REMARK VINA RESULT:      -7.9      1.037      2.502
REMARK  Name = 
REMARK  6 active torsions:
REMARK  status: ('A' for Active; 'I' for Inactive)
REMARK    1  A    between atoms: C_1  and  C_2
REMARK    2  A    between atoms: C_10  and  C_11
REMARK    3  A    between atoms: C_12  and  C_13
REMARK    4  A    between atoms: N_23  and  C_24
REMARK    5  A    between atoms: C_24  and  C_25
REMARK    6  A    between atoms: C_25  and  O_26
REMARK                            x       y       z     vdW  Elec       q    Type
REMARK                         _______ _______ _______ _____ _____    ______ ____
ROOT
ATOM      1  C   UNL     1       2.991   6.590  18.918  0.00  0.00    +0.000 A 
ATOM      2  N   UNL     1       3.615   6.970  17.842  0.00  0.00    +0.000 NA
ATOM      3  C   UNL     1       4.399   6.051  17.147  0.00  0.00    +0.000 A 
ATOM      4  C   UNL     1       4.930   6.421  15.910  0.00  0.00    +0.000 A 
ATOM      5  C   UNL     1       5.667   5.509  15.150  0.00  0.00    +0.000 A 
ATOM      6  C   UNL     1       5.891   4.221  15.635  0.00  0.00    +0.000 A 
ATOM      7  C   UNL     1       5.384   3.848  16.881  0.00  0.00    +0.000 A 
ATOM      8  C   UNL     1       4.636   4.768  17.625  0.00  0.00    +0.000 A 
ATOM      9  C   UNL     1       4.009   4.396  18.905  0.00  0.00    +0.000 A 
ATOM     10  O   UNL     1       4.276   3.310  19.417  0.00  0.00    +0.000 OA
ATOM     11  N   UNL     1       3.110   5.316  19.453  0.00  0.00    +0.000 N 
ENDROOT
BRANCH   1  13
ATOM     12  C   UNL     1       1.707   8.680  18.972  0.00  0.00    +0.000 C 
ATOM     13  C   UNL     1       2.142   7.585  19.619  0.00  0.00    +0.000 C 
BRANCH  12  23
ATOM     14  C   UNL     1      -0.300   8.552  21.495  0.00  0.00    +0.000 C 
ATOM     15  C   UNL     1       0.125   9.689  20.634  0.00  0.00    +0.000 A 
ATOM     16  N   UNL     1      -0.322  10.962  20.891  0.00  0.00    +0.000 N 
ATOM     17  C   UNL     1       0.307  11.878  20.084  0.00  0.00    +0.000 A 
ATOM     18  C   UNL     1       0.186  13.274  20.049  0.00  0.00    +0.000 A 
ATOM     19  C   UNL     1       0.985  13.969  19.138  0.00  0.00    +0.000 A 
ATOM     20  C   UNL     1       1.863  13.291  18.295  0.00  0.00    +0.000 A 
ATOM     21  C   UNL     1       1.959  11.893  18.335  0.00  0.00    +0.000 A 
ATOM     22  C   UNL     1       1.164  11.163  19.247  0.00  0.00    +0.000 A 
ATOM     23  C   UNL     1       1.004   9.775  19.565  0.00  0.00    +0.000 A 
ATOM     24  H   UNL     1      -0.976  11.208  21.621  0.00  0.00    +0.000 HD
ENDBRANCH  12  23
ENDBRANCH   1  13
BRANCH  11  25
ATOM     25  C   UNL     1       2.300   4.816  20.575  0.00  0.00    +0.000 C 
BRANCH  25  26
ATOM     26  C   UNL     1       1.015   4.099  20.148  0.00  0.00    +0.000 C 
BRANCH  26  27
ATOM     27  O   UNL     1       0.734   3.007  21.019  0.00  0.00    +0.000 OA
ATOM     28  H   UNL     1      -0.224   2.844  20.966  0.00  0.00    +0.000 HD
ENDBRANCH  26  27
ENDBRANCH  25  26
ENDBRANCH  11  25
TORSDOF 5
ENDMDL
MODEL 4
REMARK VINA RESULT:      -7.7      1.530      2.261
REMARK  Name = 
REMARK  6 active torsions:
REMARK  status: ('A' for Active; 'I' for Inactive)
REMARK    1  A    between atoms: C_1  and  C_2
REMARK    2  A    between atoms: C_10  and  C_11
REMARK    3  A    between atoms: C_12  and  C_13
REMARK    4  A    between atoms: N_23  and  C_24
REMARK    5  A    between atoms: C_24  and  C_25
REMARK    6  A    between atoms: C_25  and  O_26
REMARK                            x       y       z     vdW  Elec       q    Type
REMARK                         _______ _______ _______ _____ _____    ______ ____
ROOT
ATOM      1  C   UNL     1       2.769   6.405  19.316  0.00  0.00    +0.000 A 
ATOM      2  N   UNL     1       3.348   6.907  18.265  0.00  0.00    +0.000 NA
ATOM      3  C   UNL     1       4.262   6.131  17.555  0.00  0.00    +0.000 A 
ATOM      4  C   UNL     1       4.754   6.615  16.341  0.00  0.00    +0.000 A 
ATOM      5  C   UNL     1       5.621   5.842  15.565  0.00  0.00    +0.000 A 
ATOM      6  C   UNL     1       6.017   4.581  16.011  0.00  0.00    +0.000 A 
ATOM      7  C   UNL     1       5.550   4.098  17.234  0.00  0.00    +0.000 A 
ATOM      8  C   UNL     1       4.670   4.878  17.995  0.00  0.00    +0.000 A 
ATOM      9  C   UNL     1       4.084   4.377  19.249  0.00  0.00    +0.000 A 
ATOM     10  O   UNL     1       4.493   3.321  19.731  0.00  0.00    +0.000 OA
ATOM     11  N   UNL     1       3.057   5.143  19.811  0.00  0.00    +0.000 N 
ENDROOT
BRANCH   1  13
ATOM     12  C   UNL     1       1.505   8.489  19.599  0.00  0.00    +0.000 C 
ATOM     13  C   UNL     1       1.780   7.247  20.034  0.00  0.00    +0.000 C 
BRANCH  12  23
ATOM     14  C   UNL     1       1.645   9.309  22.717  0.00  0.00    +0.000 C 
ATOM     15  C   UNL     1       0.745   9.761  21.622  0.00  0.00    +0.000 A 
ATOM     16  N   UNL     1      -0.207  10.723  21.854  0.00  0.00    +0.000 N 
ATOM     17  C   UNL     1      -0.818  11.106  20.686  0.00  0.00    +0.000 A 
ATOM     18  C   UNL     1      -1.799  12.082  20.465  0.00  0.00    +0.000 A 
ATOM     19  C   UNL     1      -2.221  12.289  19.150  0.00  0.00    +0.000 A 
ATOM     20  C   UNL     1      -1.684  11.543  18.101  0.00  0.00    +0.000 A 
ATOM     21  C   UNL     1      -0.714  10.561  18.345  0.00  0.00    +0.000 A 
ATOM     22  C   UNL     1      -0.267  10.330  19.665  0.00  0.00    +0.000 A 
ATOM     23  C   UNL     1       0.682   9.446  20.273  0.00  0.00    +0.000 A 
ATOM     24  H   UNL     1      -0.391  11.148  22.752  0.00  0.00    +0.000 HD
ENDBRANCH  12  23
ENDBRANCH   1  13
BRANCH  11  25
ATOM     25  C   UNL     1       2.310   4.495  20.900  0.00  0.00    +0.000 C 
BRANCH  25  26
ATOM     26  C   UNL     1       1.149   3.615  20.426  0.00  0.00    +0.000 C 
BRANCH  26  27
ATOM     27  O   UNL     1       1.583   2.273  20.225  0.00  0.00    +0.000 OA
ATOM     28  H   UNL     1       0.798   1.706  20.320  0.00  0.00    +0.000 HD
ENDBRANCH  26  27
ENDBRANCH  25  26
ENDBRANCH  11  25
TORSDOF 5
ENDMDL
MODEL 5
REMARK VINA RESULT:      -7.7      2.719      7.754
REMARK  Name = 
REMARK  6 active torsions:
REMARK  status: ('A' for Active; 'I' for Inactive)
REMARK    1  A    between atoms: C_1  and  C_2
REMARK    2  A    between atoms: C_10  and  C_11
REMARK    3  A    between atoms: C_12  and  C_13
REMARK    4  A    between atoms: N_23  and  C_24
REMARK    5  A    between atoms: C_24  and  C_25
REMARK    6  A    between atoms: C_25  and  O_26
REMARK                            x       y       z     vdW  Elec       q    Type
REMARK                         _______ _______ _______ _____ _____    ______ ____
ROOT
ATOM      1  C   UNL     1       1.464   9.921  18.998  0.00  0.00    +0.000 A 
ATOM      2  N   UNL     1       2.005  10.850  18.267  0.00  0.00    +0.000 NA
ATOM      3  C   UNL     1       1.870  12.183  18.649  0.00  0.00    +0.000 A 
ATOM      4  C   UNL     1       2.589  13.157  17.953  0.00  0.00    +0.000 A 
ATOM      5  C   UNL     1       2.534  14.498  18.343  0.00  0.00    +0.000 A 
ATOM      6  C   UNL     1       1.740  14.874  19.427  0.00  0.00    +0.000 A 
ATOM      7  C   UNL     1       1.000  13.912  20.114  0.00  0.00    +0.000 A 
ATOM      8  C   UNL     1       1.076  12.570  19.721  0.00  0.00    +0.000 A 
ATOM      9  C   UNL     1       0.381  11.507  20.467  0.00  0.00    +0.000 A 
ATOM     10  O   UNL     1      -0.415  11.811  21.355  0.00  0.00    +0.000 OA
ATOM     11  N   UNL     1       0.698  10.190  20.122  0.00  0.00    +0.000 N 
ENDROOT
BRANCH   1  13
ATOM     12  C   UNL     1       2.552   7.731  19.204  0.00  0.00    +0.000 C 
ATOM     13  C   UNL     1       1.650   8.509  18.580  0.00  0.00    +0.000 C 
BRANCH  12  23
ATOM     14  C   UNL     1       1.375   4.964  20.377  0.00  0.00    +0.000 C 
ATOM     15  C   UNL     1       2.420   5.232  19.352  0.00  0.00    +0.000 A 
ATOM     16  N   UNL     1       3.033   4.193  18.694  0.00  0.00    +0.000 N 
ATOM     17  C   UNL     1       3.844   4.656  17.688  0.00  0.00    +0.000 A 
ATOM     18  C   UNL     1       4.607   3.944  16.752  0.00  0.00    +0.000 A 
ATOM     19  C   UNL     1       5.320   4.681  15.804  0.00  0.00    +0.000 A 
ATOM     20  C   UNL     1       5.274   6.074  15.800  0.00  0.00    +0.000 A 
ATOM     21  C   UNL     1       4.517   6.769  16.754  0.00  0.00    +0.000 A 
ATOM     22  C   UNL     1       3.783   6.050  17.724  0.00  0.00    +0.000 A 
ATOM     23  C   UNL     1       2.923   6.406  18.813  0.00  0.00    +0.000 A 
ATOM     24  H   UNL     1       2.862   3.214  18.876  0.00  0.00    +0.000 HD
ENDBRANCH  12  23
ENDBRANCH   1  13
BRANCH  11  25
ATOM     25  C   UNL     1       0.205   9.159  21.049  0.00  0.00    +0.000 C 
BRANCH  25  26
ATOM     26  C   UNL     1       1.043   9.010  22.323  0.00  0.00    +0.000 C 
BRANCH  26  27
ATOM     27  O   UNL     1       0.477   9.765  23.390  0.00  0.00    +0.000 OA
ATOM     28  H   UNL     1       0.277  10.648  23.035  0.00  0.00    +0.000 HD
ENDBRANCH  26  27
ENDBRANCH  25  26
ENDBRANCH  11  25
TORSDOF 5
ENDMDL
MODEL 6
REMARK VINA RESULT:      -7.6      2.190      2.483
REMARK  Name = 
REMARK  6 active torsions:
REMARK  status: ('A' for Active; 'I' for Inactive)
REMARK    1  A    between atoms: C_1  and  C_2
REMARK    2  A    between atoms: C_10  and  C_11
REMARK    3  A    between atoms: C_12  and  C_13
REMARK    4  A    between atoms: N_23  and  C_24
REMARK    5  A    between atoms: C_24  and  C_25
REMARK    6  A    between atoms: C_25  and  O_26
REMARK                            x       y       z     vdW  Elec       q    Type
REMARK                         _______ _______ _______ _____ _____    ______ ____
ROOT
ATOM      1  C   UNL     1       2.715   7.320  18.632  0.00  0.00    +0.000 A 
ATOM      2  N   UNL     1       3.450   7.511  17.577  0.00  0.00    +0.000 NA
ATOM      3  C   UNL     1       4.316   6.503  17.157  0.00  0.00    +0.000 A 
ATOM      4  C   UNL     1       4.977   6.650  15.936  0.00  0.00    +0.000 A 
ATOM      5  C   UNL     1       5.804   5.635  15.447  0.00  0.00    +0.000 A 
ATOM      6  C   UNL     1       5.988   4.469  16.191  0.00  0.00    +0.000 A 
ATOM      7  C   UNL     1       5.350   4.322  17.423  0.00  0.00    +0.000 A 
ATOM      8  C   UNL     1       4.514   5.342  17.894  0.00  0.00    +0.000 A 
ATOM      9  C   UNL     1       3.753   5.197  19.147  0.00  0.00    +0.000 A 
ATOM     10  O   UNL     1       3.974   4.236  19.883  0.00  0.00    +0.000 OA
ATOM     11  N   UNL     1       2.788   6.175  19.411  0.00  0.00    +0.000 N 
ENDROOT
BRANCH   1  13
ATOM     12  C   UNL     1       1.153   9.137  18.103  0.00  0.00    +0.000 C 
ATOM     13  C   UNL     1       1.783   8.402  19.037  0.00  0.00    +0.000 C 
BRANCH  12  23
ATOM     14  C   UNL     1       2.177  12.085  18.923  0.00  0.00    +0.000 C 
ATOM     15  C   UNL     1       0.807  11.538  18.733  0.00  0.00    +0.000 A 
ATOM     16  N   UNL     1      -0.292  12.352  18.864  0.00  0.00    +0.000 N 
ATOM     17  C   UNL     1      -1.440  11.695  18.497  0.00  0.00    +0.000 A 
ATOM     18  C   UNL     1      -2.760  12.162  18.434  0.00  0.00    +0.000 A 
ATOM     19  C   UNL     1      -3.740  11.275  17.984  0.00  0.00    +0.000 A 
ATOM     20  C   UNL     1      -3.409   9.970  17.619  0.00  0.00    +0.000 A 
ATOM     21  C   UNL     1      -2.085   9.517  17.703  0.00  0.00    +0.000 A 
ATOM     22  C   UNL     1      -1.072  10.393  18.153  0.00  0.00    +0.000 A 
ATOM     23  C   UNL     1       0.342  10.287  18.355  0.00  0.00    +0.000 A 
ATOM     24  H   UNL     1      -0.260  13.327  19.130  0.00  0.00    +0.000 HD
ENDBRANCH  12  23
ENDBRANCH   1  13
BRANCH  11  25
ATOM     25  C   UNL     1       1.865   5.869  20.515  0.00  0.00    +0.000 C 
BRANCH  25  26
ATOM     26  C   UNL     1       1.014   4.616  20.289  0.00  0.00    +0.000 C 
BRANCH  26  27
ATOM     27  O   UNL     1       1.368   3.592  21.215  0.00  0.00    +0.000 OA
ATOM     28  H   UNL     1       2.318   3.422  21.097  0.00  0.00    +0.000 HD
ENDBRANCH  26  27
ENDBRANCH  25  26
ENDBRANCH  11  25
TORSDOF 5
ENDMDL
MODEL 7
REMARK VINA RESULT:      -7.5      1.759      3.282
REMARK  Name = 
REMARK  6 active torsions:
REMARK  status: ('A' for Active; 'I' for Inactive)
REMARK    1  A    between atoms: C_1  and  C_2
REMARK    2  A    between atoms: C_10  and  C_11
REMARK    3  A    between atoms: C_12  and  C_13
REMARK    4  A    between atoms: N_23  and  C_24
REMARK    5  A    between atoms: C_24  and  C_25
REMARK    6  A    between atoms: C_25  and  O_26
REMARK                            x       y       z     vdW  Elec       q    Type
REMARK                         _______ _______ _______ _____ _____    ______ ____
ROOT
ATOM      1  C   UNL     1       2.807   6.386  18.416  0.00  0.00    +0.000 A 
ATOM      2  N   UNL     1       2.087   5.489  19.023  0.00  0.00    +0.000 NA
ATOM      3  C   UNL     1       2.362   4.139  18.815  0.00  0.00    +0.000 A 
ATOM      4  C   UNL     1       1.696   3.190  19.593  0.00  0.00    +0.000 A 
ATOM      5  C   UNL     1       1.988   1.830  19.462  0.00  0.00    +0.000 A 
ATOM      6  C   UNL     1       2.941   1.410  18.534  0.00  0.00    +0.000 A 
ATOM      7  C   UNL     1       3.596   2.348  17.735  0.00  0.00    +0.000 A 
ATOM      8  C   UNL     1       3.303   3.709  17.887  0.00  0.00    +0.000 A 
ATOM      9  C   UNL     1       4.027   4.743  17.128  0.00  0.00    +0.000 A 
ATOM     10  O   UNL     1       4.791   4.407  16.224  0.00  0.00    +0.000 OA
ATOM     11  N   UNL     1       3.810   6.070  17.513  0.00  0.00    +0.000 N 
ENDROOT
BRANCH   1  13
ATOM     12  C   UNL     1       1.719   8.162  19.714  0.00  0.00    +0.000 C 
ATOM     13  C   UNL     1       2.507   7.815  18.681  0.00  0.00    +0.000 C 
BRANCH  12  23
ATOM     14  C   UNL     1       1.933  10.746  17.793  0.00  0.00    +0.000 C 
ATOM     15  C   UNL     1       1.373  10.582  19.162  0.00  0.00    +0.000 A 
ATOM     16  N   UNL     1       0.781  11.643  19.804  0.00  0.00    +0.000 N 
ATOM     17  C   UNL     1       0.195  11.244  20.979  0.00  0.00    +0.000 A 
ATOM     18  C   UNL     1      -0.548  11.986  21.907  0.00  0.00    +0.000 A 
ATOM     19  C   UNL     1      -1.063  11.307  23.014  0.00  0.00    +0.000 A 
ATOM     20  C   UNL     1      -0.837   9.942  23.184  0.00  0.00    +0.000 A 
ATOM     21  C   UNL     1      -0.079   9.220  22.251  0.00  0.00    +0.000 A 
ATOM     22  C   UNL     1       0.454   9.880  21.121  0.00  0.00    +0.000 A 
ATOM     23  C   UNL     1       1.244   9.481  19.995  0.00  0.00    +0.000 A 
ATOM     24  H   UNL     1       0.721  12.581  19.433  0.00  0.00    +0.000 HD
ENDBRANCH  12  23
ENDBRANCH   1  13
BRANCH  11  25
ATOM     25  C   UNL     1       4.736   7.055  16.932  0.00  0.00    +0.000 C 
BRANCH  25  26
ATOM     26  C   UNL     1       6.178   6.929  17.433  0.00  0.00    +0.000 C 
BRANCH  26  27
ATOM     27  O   UNL     1       7.044   6.515  16.380  0.00  0.00    +0.000 OA
ATOM     28  H   UNL     1       6.565   5.839  15.872  0.00  0.00    +0.000 HD
ENDBRANCH  26  27
ENDBRANCH  25  26
ENDBRANCH  11  25
TORSDOF 5
ENDMDL
MODEL 8
REMARK VINA RESULT:      -7.5      2.592      7.256
REMARK  Name = 
REMARK  6 active torsions:
REMARK  status: ('A' for Active; 'I' for Inactive)
REMARK    1  A    between atoms: C_1  and  C_2
REMARK    2  A    between atoms: C_10  and  C_11
REMARK    3  A    between atoms: C_12  and  C_13
REMARK    4  A    between atoms: N_23  and  C_24
REMARK    5  A    between atoms: C_24  and  C_25
REMARK    6  A    between atoms: C_25  and  O_26
REMARK                            x       y       z     vdW  Elec       q    Type
REMARK                         _______ _______ _______ _____ _____    ______ ____
ROOT
ATOM      1  C   UNL     1       1.725   9.727  18.467  0.00  0.00    +0.000 A 
ATOM      2  N   UNL     1       2.355  10.664  17.823  0.00  0.00    +0.000 NA
ATOM      3  C   UNL     1       2.234  11.985  18.250  0.00  0.00    +0.000 A 
ATOM      4  C   UNL     1       3.040  12.959  17.658  0.00  0.00    +0.000 A 
ATOM      5  C   UNL     1       2.998  14.284  18.100  0.00  0.00    +0.000 A 
ATOM      6  C   UNL     1       2.130  14.645  19.132  0.00  0.00    +0.000 A 
ATOM      7  C   UNL     1       1.304  13.683  19.715  0.00  0.00    +0.000 A 
ATOM      8  C   UNL     1       1.367  12.357  19.270  0.00  0.00    +0.000 A 
ATOM      9  C   UNL     1       0.578  11.291  19.911  0.00  0.00    +0.000 A 
ATOM     10  O   UNL     1      -0.278  11.588  20.744  0.00  0.00    +0.000 OA
ATOM     11  N   UNL     1       0.878   9.978  19.536  0.00  0.00    +0.000 N 
ENDROOT
BRANCH   1  13
ATOM     12  C   UNL     1       3.014   7.644  18.312  0.00  0.00    +0.000 C 
ATOM     13  C   UNL     1       1.897   8.327  18.004  0.00  0.00    +0.000 C 
BRANCH  12  23
ATOM     14  C   UNL     1       5.645   6.862  16.615  0.00  0.00    +0.000 C 
ATOM     15  C   UNL     1       4.487   6.044  17.067  0.00  0.00    +0.000 A 
ATOM     16  N   UNL     1       4.443   4.695  16.806  0.00  0.00    +0.000 N 
ATOM     17  C   UNL     1       3.378   4.105  17.440  0.00  0.00    +0.000 A 
ATOM     18  C   UNL     1       2.995   2.757  17.482  0.00  0.00    +0.000 A 
ATOM     19  C   UNL     1       1.871   2.428  18.243  0.00  0.00    +0.000 A 
ATOM     20  C   UNL     1       1.160   3.411  18.930  0.00  0.00    +0.000 A 
ATOM     21  C   UNL     1       1.551   4.756  18.864  0.00  0.00    +0.000 A 
ATOM     22  C   UNL     1       2.684   5.119  18.102  0.00  0.00    +0.000 A 
ATOM     23  C   UNL     1       3.362   6.349  17.818  0.00  0.00    +0.000 A 
ATOM     24  H   UNL     1       5.138   4.187  16.277  0.00  0.00    +0.000 HD
ENDBRANCH  12  23
ENDBRANCH   1  13
BRANCH  11  25
ATOM     25  C   UNL     1       0.276   8.929  20.374  0.00  0.00    +0.000 C 
BRANCH  25  26
ATOM     26  C   UNL     1       1.113   8.552  21.601  0.00  0.00    +0.000 C 
BRANCH  26  27
ATOM     27  O   UNL     1       1.690   7.259  21.439  0.00  0.00    +0.000 OA
ATOM     28  H   UNL     1       1.848   6.907  22.332  0.00  0.00    +0.000 HD
ENDBRANCH  26  27
ENDBRANCH  25  26
ENDBRANCH  11  25
TORSDOF 5
ENDMDL
MODEL 9
REMARK VINA RESULT:      -7.4      3.500      7.800
REMARK  Name = 
REMARK  6 active torsions:
REMARK  status: ('A' for Active; 'I' for Inactive)
REMARK    1  A    between atoms: C_1  and  C_2
REMARK    2  A    between atoms: C_10  and  C_11
REMARK    3  A    between atoms: C_12  and  C_13
REMARK    4  A    between atoms: N_23  and  C_24
REMARK    5  A    between atoms: C_24  and  C_25
REMARK    6  A    between atoms: C_25  and  O_26
REMARK                            x       y       z     vdW  Elec       q    Type
REMARK                         _______ _______ _______ _____ _____    ______ ____
ROOT
ATOM      1  C   UNL     1       0.545   9.455  18.656  0.00  0.00    +0.000 A 
ATOM      2  N   UNL     1      -0.204   9.287  17.606  0.00  0.00    +0.000 NA
ATOM      3  C   UNL     1      -1.394  10.004  17.496  0.00  0.00    +0.000 A 
ATOM      4  C   UNL     1      -2.106   9.942  16.297  0.00  0.00    +0.000 A 
ATOM      5  C   UNL     1      -3.270  10.696  16.120  0.00  0.00    +0.000 A 
ATOM      6  C   UNL     1      -3.737  11.506  17.155  0.00  0.00    +0.000 A 
ATOM      7  C   UNL     1      -3.045  11.557  18.366  0.00  0.00    +0.000 A 
ATOM      8  C   UNL     1      -1.873  10.807  18.524  0.00  0.00    +0.000 A 
ATOM      9  C   UNL     1      -1.062  10.893  19.750  0.00  0.00    +0.000 A 
ATOM     10  O   UNL     1      -1.499  11.507  20.724  0.00  0.00    +0.000 OA
ATOM     11  N   UNL     1       0.192  10.276  19.717  0.00  0.00    +0.000 N 
ENDROOT
BRANCH   1  13
ATOM     12  C   UNL     1       1.832   7.370  18.520  0.00  0.00    +0.000 C 
ATOM     13  C   UNL     1       1.819   8.698  18.731  0.00  0.00    +0.000 C 
BRANCH  12  23
ATOM     14  C   UNL     1       2.206   5.109  20.792  0.00  0.00    +0.000 C 
ATOM     15  C   UNL     1       3.107   5.562  19.698  0.00  0.00    +0.000 A 
ATOM     16  N   UNL     1       4.323   4.953  19.500  0.00  0.00    +0.000 N 
ATOM     17  C   UNL     1       4.923   5.411  18.353  0.00  0.00    +0.000 A 
ATOM     18  C   UNL     1       6.133   5.026  17.760  0.00  0.00    +0.000 A 
ATOM     19  C   UNL     1       6.488   5.641  16.558  0.00  0.00    +0.000 A 
ATOM     20  C   UNL     1       5.665   6.606  15.978  0.00  0.00    +0.000 A 
ATOM     21  C   UNL     1       4.465   6.988  16.595  0.00  0.00    +0.000 A 
ATOM     22  C   UNL     1       4.079   6.382  17.811  0.00  0.00    +0.000 A 
ATOM     23  C   UNL     1       2.959   6.509  18.695  0.00  0.00    +0.000 A 
ATOM     24  H   UNL     1       4.700   4.217  20.080  0.00  0.00    +0.000 HD
ENDBRANCH  12  23
ENDBRANCH   1  13
BRANCH  11  25
ATOM     25  C   UNL     1       1.086  10.601  20.839  0.00  0.00    +0.000 C 
BRANCH  25  26
ATOM     26  C   UNL     1       0.914   9.690  22.059  0.00  0.00    +0.000 C 
BRANCH  26  27
ATOM     27  O   UNL     1       0.160  10.345  23.075  0.00  0.00    +0.000 OA
ATOM     28  H   UNL     1      -0.773  10.310  22.801  0.00  0.00    +0.000 HD
ENDBRANCH  26  27
ENDBRANCH  25  26
ENDBRANCH  11  25
TORSDOF 5
ENDMDL
