MODEL 1
REMARK VINA RESULT:      -7.2      0.000      0.000
REMARK  Name = 
REMARK  13 active torsions:
REMARK  status: ('A' for Active; 'I' for Inactive)
REMARK    1  A    between atoms: C_1  and  C_2
REMARK    2  A    between atoms: C_2  and  C_3
REMARK    3  A    between atoms: C_3  and  N_4
REMARK    4  A    between atoms: N_4  and  C_5
REMARK    5  A    between atoms: N_4  and  C_8
REMARK    6  A    between atoms: C_5  and  C_6
REMARK    7  A    between atoms: C_6  and  C_7
REMARK    8  A    between atoms: C_8  and  C_9
REMARK    9  A    between atoms: C_9  and  C_10
REMARK   10  A    between atoms: C_13  and  N_14
REMARK   11  A    between atoms: C_15  and  C_17
REMARK   12  A    between atoms: C_21  and  N_22
REMARK   13  A    between atoms: C_23  and  C_25
REMARK                            x       y       z     vdW  Elec       q    Type
REMARK                         _______ _______ _______ _____ _____    ______ ____
ROOT
ATOM      1  C   UNL     1       1.446   9.070  19.745  0.00  0.00    +0.000 A 
ATOM      2  C   UNL     1       1.849   9.214  18.422  0.00  0.00    +0.000 A 
ATOM      3  C   UNL     1       2.436   8.144  17.743  0.00  0.00    +0.000 A 
ATOM      4  C   UNL     1       2.631   6.897  18.348  0.00  0.00    +0.000 A 
ATOM      5  C   UNL     1       2.209   6.721  19.689  0.00  0.00    +0.000 A 
ATOM      6  C   UNL     1       1.637   7.827  20.367  0.00  0.00    +0.000 A 
ENDROOT
BRANCH   4   7
ATOM      7  N   UNL     1       3.309   5.874  17.650  0.00  0.00    +0.000 N 
ATOM      8  C   UNL     1       4.670   5.583  17.650  0.00  0.00    +0.000 C 
ATOM      9  O   UNL     1       5.528   6.232  18.254  0.00  0.00    +0.000 OA
ATOM     10  H   UNL     1       2.783   5.407  16.911  0.00  0.00    +0.000 HD
BRANCH   8  11
ATOM     11  C   UNL     1       5.043   4.355  16.795  0.00  0.00    +0.000 C 
ATOM     12  F   UNL     1       6.364   4.025  16.890  0.00  0.00    +0.000 F 
ATOM     13  F   UNL     1       4.342   3.241  17.144  0.00  0.00    +0.000 F 
ATOM     14  F   UNL     1       4.805   4.563  15.469  0.00  0.00    +0.000 F 
ENDBRANCH   8  11
ENDBRANCH   4   7
BRANCH   5  15
ATOM     15  N   UNL     1       2.273   5.533  20.474  0.00  0.00    +0.000 N 
ATOM     16  C   UNL     1       1.771   4.258  20.221  0.00  0.00    +0.000 C 
ATOM     17  O   UNL     1       1.164   3.938  19.197  0.00  0.00    +0.000 OA
ATOM     18  H   UNL     1       2.650   5.654  21.413  0.00  0.00    +0.000 HD
BRANCH  16  19
ATOM     19  C   UNL     1       2.042   3.247  21.354  0.00  0.00    +0.000 C 
ATOM     20  F   UNL     1       0.917   2.551  21.688  0.00  0.00    +0.000 F 
ATOM     21  F   UNL     1       2.978   2.321  21.013  0.00  0.00    +0.000 F 
ATOM     22  F   UNL     1       2.477   3.850  22.493  0.00  0.00    +0.000 F 
ENDBRANCH  16  19
ENDBRANCH   5  15
BRANCH   1  23
ATOM     23  C   UNL     1       0.836  10.238  20.494  0.00  0.00    +0.000 C 
BRANCH  23  24
ATOM     24  C   UNL     1      -0.667  10.432  20.191  0.00  0.00    +0.000 C 
BRANCH  24  25
ATOM     25  N   UNL     1      -1.037  11.715  19.543  0.00  0.00    +0.000 NA
BRANCH  25  26
ATOM     26  C   UNL     1       0.083  12.668  19.702  0.00  0.00    +0.000 C 
BRANCH  26  28
ATOM     27  C   UNL     1       2.190  12.918  18.264  0.00  0.00    +0.000 C 
ATOM     28  C   UNL     1       0.711  13.238  18.420  0.00  0.00    +0.000 C 
ENDBRANCH  26  28
ENDBRANCH  25  26
BRANCH  25  29
ATOM     29  C   UNL     1      -1.490  11.564  18.150  0.00  0.00    +0.000 C 
BRANCH  29  30
ATOM     30  C   UNL     1      -1.756  10.126  17.681  0.00  0.00    +0.000 C 
ATOM     31  C   UNL     1      -2.428  10.105  16.316  0.00  0.00    +0.000 C 
ENDBRANCH  29  30
ENDBRANCH  25  29
ENDBRANCH  24  25
ENDBRANCH  23  24
ENDBRANCH   1  23
TORSDOF 11
ENDMDL
MODEL 2
REMARK VINA RESULT:      -7.1      4.689      7.866
REMARK  Name = 
REMARK  13 active torsions:
REMARK  status: ('A' for Active; 'I' for Inactive)
REMARK    1  A    between atoms: C_1  and  C_2
REMARK    2  A    between atoms: C_2  and  C_3
REMARK    3  A    between atoms: C_3  and  N_4
REMARK    4  A    between atoms: N_4  and  C_5
REMARK    5  A    between atoms: N_4  and  C_8
REMARK    6  A    between atoms: C_5  and  C_6
REMARK    7  A    between atoms: C_6  and  C_7
REMARK    8  A    between atoms: C_8  and  C_9
REMARK    9  A    between atoms: C_9  and  C_10
REMARK   10  A    between atoms: C_13  and  N_14
REMARK   11  A    between atoms: C_15  and  C_17
REMARK   12  A    between atoms: C_21  and  N_22
REMARK   13  A    between atoms: C_23  and  C_25
REMARK                            x       y       z     vdW  Elec       q    Type
REMARK                         _______ _______ _______ _____ _____    ______ ____
ROOT
ATOM      1  C   UNL     1       2.882   7.132  18.591  0.00  0.00    +0.000 A 
ATOM      2  C   UNL     1       2.955   8.059  17.558  0.00  0.00    +0.000 A 
ATOM      3  C   UNL     1       2.242   9.257  17.633  0.00  0.00    +0.000 A 
ATOM      4  C   UNL     1       1.444   9.579  18.738  0.00  0.00    +0.000 A 
ATOM      5  C   UNL     1       1.372   8.659  19.812  0.00  0.00    +0.000 A 
ATOM      6  C   UNL     1       2.086   7.439  19.705  0.00  0.00    +0.000 A 
ENDROOT
BRANCH   4   7
ATOM      7  N   UNL     1       0.673  10.762  18.729  0.00  0.00    +0.000 N 
ATOM      8  C   UNL     1      -0.713  10.888  18.707  0.00  0.00    +0.000 C 
ATOM      9  O   UNL     1      -1.505   9.945  18.648  0.00  0.00    +0.000 OA
ATOM     10  H   UNL     1       1.174  11.625  18.521  0.00  0.00    +0.000 HD
BRANCH   8  11
ATOM     11  C   UNL     1      -1.203  12.350  18.748  0.00  0.00    +0.000 C 
ATOM     12  F   UNL     1      -0.617  13.077  19.744  0.00  0.00    +0.000 F 
ATOM     13  F   UNL     1      -0.959  13.018  17.588  0.00  0.00    +0.000 F 
ATOM     14  F   UNL     1      -2.546  12.433  18.969  0.00  0.00    +0.000 F 
ENDBRANCH   8  11
ENDBRANCH   4   7
BRANCH   5  15
ATOM     15  N   UNL     1       0.662   8.806  21.039  0.00  0.00    +0.000 N 
ATOM     16  C   UNL     1       0.623   9.872  21.935  0.00  0.00    +0.000 C 
ATOM     17  O   UNL     1       1.230  10.934  21.783  0.00  0.00    +0.000 OA
ATOM     18  H   UNL     1       0.192   7.965  21.371  0.00  0.00    +0.000 HD
BRANCH  16  19
ATOM     19  C   UNL     1      -0.266   9.615  23.169  0.00  0.00    +0.000 C 
ATOM     20  F   UNL     1      -1.041  10.698  23.467  0.00  0.00    +0.000 F 
ATOM     21  F   UNL     1      -1.120   8.572  22.988  0.00  0.00    +0.000 F 
ATOM     22  F   UNL     1       0.463   9.342  24.285  0.00  0.00    +0.000 F 
ENDBRANCH  16  19
ENDBRANCH   5  15
BRANCH   1  23
ATOM     23  C   UNL     1       3.632   5.818  18.499  0.00  0.00    +0.000 C 
BRANCH  23  24
ATOM     24  C   UNL     1       2.824   4.709  17.790  0.00  0.00    +0.000 C 
BRANCH  24  25
ATOM     25  N   UNL     1       2.519   3.507  18.607  0.00  0.00    +0.000 NA
BRANCH  25  26
ATOM     26  C   UNL     1       1.165   3.657  19.185  0.00  0.00    +0.000 C 
BRANCH  26  28
ATOM     27  C   UNL     1       1.425   2.747  21.567  0.00  0.00    +0.000 C 
ATOM     28  C   UNL     1       1.070   3.940  20.693  0.00  0.00    +0.000 C 
ENDBRANCH  26  28
ENDBRANCH  25  26
BRANCH  25  29
ATOM     29  C   UNL     1       2.716   2.238  17.886  0.00  0.00    +0.000 C 
BRANCH  29  30
ATOM     30  C   UNL     1       3.763   1.283  18.477  0.00  0.00    +0.000 C 
ATOM     31  C   UNL     1       4.456   1.900  19.684  0.00  0.00    +0.000 C 
ENDBRANCH  29  30
ENDBRANCH  25  29
ENDBRANCH  24  25
ENDBRANCH  23  24
ENDBRANCH   1  23
TORSDOF 11
ENDMDL
MODEL 3
REMARK VINA RESULT:      -7.0      0.399      2.204
REMARK  Name = 
REMARK  13 active torsions:
REMARK  status: ('A' for Active; 'I' for Inactive)
REMARK    1  A    between atoms: C_1  and  C_2
REMARK    2  A    between atoms: C_2  and  C_3
REMARK    3  A    between atoms: C_3  and  N_4
REMARK    4  A    between atoms: N_4  and  C_5
REMARK    5  A    between atoms: N_4  and  C_8
REMARK    6  A    between atoms: C_5  and  C_6
REMARK    7  A    between atoms: C_6  and  C_7
REMARK    8  A    between atoms: C_8  and  C_9
REMARK    9  A    between atoms: C_9  and  C_10
REMARK   10  A    between atoms: C_13  and  N_14
REMARK   11  A    between atoms: C_15  and  C_17
REMARK   12  A    between atoms: C_21  and  N_22
REMARK   13  A    between atoms: C_23  and  C_25
REMARK                            x       y       z     vdW  Elec       q    Type
REMARK                         _______ _______ _______ _____ _____    ______ ____
ROOT
ATOM      1  C   UNL     1       1.512   8.913  19.628  0.00  0.00    +0.000 A 
ATOM      2  C   UNL     1       1.913   9.094  18.309  0.00  0.00    +0.000 A 
ATOM      3  C   UNL     1       2.555   8.064  17.619  0.00  0.00    +0.000 A 
ATOM      4  C   UNL     1       2.810   6.820  18.209  0.00  0.00    +0.000 A 
ATOM      5  C   UNL     1       2.391   6.605  19.545  0.00  0.00    +0.000 A 
ATOM      6  C   UNL     1       1.761   7.673  20.234  0.00  0.00    +0.000 A 
ENDROOT
BRANCH   4   7
ATOM      7  N   UNL     1       3.540   5.841  17.501  0.00  0.00    +0.000 N 
ATOM      8  C   UNL     1       4.890   5.521  17.614  0.00  0.00    +0.000 C 
ATOM      9  O   UNL     1       5.691   6.101  18.351  0.00  0.00    +0.000 OA
ATOM     10  H   UNL     1       3.086   5.447  16.677  0.00  0.00    +0.000 HD
BRANCH   8  11
ATOM     11  C   UNL     1       5.330   4.357  16.703  0.00  0.00    +0.000 C 
ATOM     12  F   UNL     1       5.058   4.584  15.385  0.00  0.00    +0.000 F 
ATOM     13  F   UNL     1       6.665   4.104  16.782  0.00  0.00    +0.000 F 
ATOM     14  F   UNL     1       4.696   3.192  17.019  0.00  0.00    +0.000 F 
ENDBRANCH   8  11
ENDBRANCH   4   7
BRANCH   5  15
ATOM     15  N   UNL     1       2.510   5.412  20.314  0.00  0.00    +0.000 N 
ATOM     16  C   UNL     1       1.888   4.174  20.160  0.00  0.00    +0.000 C 
ATOM     17  O   UNL     1       1.095   3.900  19.258  0.00  0.00    +0.000 OA
ATOM     18  H   UNL     1       3.050   5.503  21.174  0.00  0.00    +0.000 HD
BRANCH  16  19
ATOM     19  C   UNL     1       2.283   3.142  21.236  0.00  0.00    +0.000 C 
ATOM     20  F   UNL     1       1.372   2.129  21.320  0.00  0.00    +0.000 F 
ATOM     21  F   UNL     1       3.484   2.557  20.981  0.00  0.00    +0.000 F 
ATOM     22  F   UNL     1       2.365   3.693  22.477  0.00  0.00    +0.000 F 
ENDBRANCH  16  19
ENDBRANCH   5  15
BRANCH   1  23
ATOM     23  C   UNL     1       0.841  10.039  20.388  0.00  0.00    +0.000 C 
BRANCH  23  24
ATOM     24  C   UNL     1      -0.527  10.439  19.794  0.00  0.00    +0.000 C 
BRANCH  24  25
ATOM     25  N   UNL     1      -0.498  11.504  18.760  0.00  0.00    +0.000 NA
BRANCH  25  26
ATOM     26  C   UNL     1      -1.661  11.328  17.863  0.00  0.00    +0.000 C 
BRANCH  26  28
ATOM     27  C   UNL     1      -2.808   9.891  16.077  0.00  0.00    +0.000 C 
ATOM     28  C   UNL     1      -1.916   9.917  17.308  0.00  0.00    +0.000 C 
ENDBRANCH  26  28
ENDBRANCH  25  26
BRANCH  25  29
ATOM     29  C   UNL     1      -0.381  12.863  19.316  0.00  0.00    +0.000 C 
BRANCH  29  30
ATOM     30  C   UNL     1       0.670  13.770  18.662  0.00  0.00    +0.000 C 
ATOM     31  C   UNL     1       1.982  13.030  18.443  0.00  0.00    +0.000 C 
ENDBRANCH  29  30
ENDBRANCH  25  29
ENDBRANCH  24  25
ENDBRANCH  23  24
ENDBRANCH   1  23
TORSDOF 11
ENDMDL
MODEL 4
REMARK VINA RESULT:      -6.9      1.851      3.018
REMARK  Name = 
REMARK  13 active torsions:
REMARK  status: ('A' for Active; 'I' for Inactive)
REMARK    1  A    between atoms: C_1  and  C_2
REMARK    2  A    between atoms: C_2  and  C_3
REMARK    3  A    between atoms: C_3  and  N_4
REMARK    4  A    between atoms: N_4  and  C_5
REMARK    5  A    between atoms: N_4  and  C_8
REMARK    6  A    between atoms: C_5  and  C_6
REMARK    7  A    between atoms: C_6  and  C_7
REMARK    8  A    between atoms: C_8  and  C_9
REMARK    9  A    between atoms: C_9  and  C_10
REMARK   10  A    between atoms: C_13  and  N_14
REMARK   11  A    between atoms: C_15  and  C_17
REMARK   12  A    between atoms: C_21  and  N_22
REMARK   13  A    between atoms: C_23  and  C_25
REMARK                            x       y       z     vdW  Elec       q    Type
REMARK                         _______ _______ _______ _____ _____    ______ ____
ROOT
ATOM      1  C   UNL     1       2.120   7.958  19.112  0.00  0.00    +0.000 A 
ATOM      2  C   UNL     1       2.696   8.440  17.942  0.00  0.00    +0.000 A 
ATOM      3  C   UNL     1       3.510   7.615  17.164  0.00  0.00    +0.000 A 
ATOM      4  C   UNL     1       3.769   6.284  17.512  0.00  0.00    +0.000 A 
ATOM      5  C   UNL     1       3.174   5.763  18.688  0.00  0.00    +0.000 A 
ATOM      6  C   UNL     1       2.371   6.626  19.476  0.00  0.00    +0.000 A 
ENDROOT
BRANCH   4   7
ATOM      7  N   UNL     1       4.668   5.516  16.740  0.00  0.00    +0.000 N 
ATOM      8  C   UNL     1       5.991   5.802  16.418  0.00  0.00    +0.000 C 
ATOM      9  O   UNL     1       6.586   6.834  16.737  0.00  0.00    +0.000 OA
ATOM     10  H   UNL     1       4.260   4.758  16.193  0.00  0.00    +0.000 HD
BRANCH   8  11
ATOM     11  C   UNL     1       6.680   4.700  15.587  0.00  0.00    +0.000 C 
ATOM     12  F   UNL     1       7.035   5.122  14.338  0.00  0.00    +0.000 F 
ATOM     13  F   UNL     1       7.815   4.233  16.173  0.00  0.00    +0.000 F 
ATOM     14  F   UNL     1       5.869   3.620  15.398  0.00  0.00    +0.000 F 
ENDBRANCH   8  11
ENDBRANCH   4   7
BRANCH   5  15
ATOM     15  N   UNL     1       3.269   4.436  19.198  0.00  0.00    +0.000 N 
ATOM     16  C   UNL     1       4.390   3.657  19.480  0.00  0.00    +0.000 C 
ATOM     17  O   UNL     1       5.555   4.033  19.336  0.00  0.00    +0.000 OA
ATOM     18  H   UNL     1       2.385   3.935  19.268  0.00  0.00    +0.000 HD
BRANCH  16  19
ATOM     19  C   UNL     1       4.050   2.247  20.004  0.00  0.00    +0.000 C 
ATOM     20  F   UNL     1       3.916   1.349  18.985  0.00  0.00    +0.000 F 
ATOM     21  F   UNL     1       5.013   1.751  20.826  0.00  0.00    +0.000 F 
ATOM     22  F   UNL     1       2.882   2.220  20.700  0.00  0.00    +0.000 F 
ENDBRANCH  16  19
ENDBRANCH   5  15
BRANCH   1  23
ATOM     23  C   UNL     1       1.260   8.860  19.975  0.00  0.00    +0.000 C 
BRANCH  23  24
ATOM     24  C   UNL     1       1.115  10.286  19.400  0.00  0.00    +0.000 C 
BRANCH  24  25
ATOM     25  N   UNL     1      -0.091  11.038  19.830  0.00  0.00    +0.000 NA
BRANCH  25  26
ATOM     26  C   UNL     1      -0.916  11.333  18.640  0.00  0.00    +0.000 C 
BRANCH  26  28
ATOM     27  C   UNL     1      -2.745   9.821  17.672  0.00  0.00    +0.000 C 
ATOM     28  C   UNL     1      -1.263  10.157  17.713  0.00  0.00    +0.000 C 
ENDBRANCH  26  28
ENDBRANCH  25  26
BRANCH  25  29
ATOM     29  C   UNL     1      -0.836  10.384  20.919  0.00  0.00    +0.000 C 
BRANCH  29  30
ATOM     30  C   UNL     1      -0.535  10.886  22.338  0.00  0.00    +0.000 C 
ATOM     31  C   UNL     1      -0.242   9.730  23.284  0.00  0.00    +0.000 C 
ENDBRANCH  29  30
ENDBRANCH  25  29
ENDBRANCH  24  25
ENDBRANCH  23  24
ENDBRANCH   1  23
TORSDOF 11
ENDMDL
MODEL 5
REMARK VINA RESULT:      -6.9      1.805      4.412
REMARK  Name = 
REMARK  13 active torsions:
REMARK  status: ('A' for Active; 'I' for Inactive)
REMARK    1  A    between atoms: C_1  and  C_2
REMARK    2  A    between atoms: C_2  and  C_3
REMARK    3  A    between atoms: C_3  and  N_4
REMARK    4  A    between atoms: N_4  and  C_5
REMARK    5  A    between atoms: N_4  and  C_8
REMARK    6  A    between atoms: C_5  and  C_6
REMARK    7  A    between atoms: C_6  and  C_7
REMARK    8  A    between atoms: C_8  and  C_9
REMARK    9  A    between atoms: C_9  and  C_10
REMARK   10  A    between atoms: C_13  and  N_14
REMARK   11  A    between atoms: C_15  and  C_17
REMARK   12  A    between atoms: C_21  and  N_22
REMARK   13  A    between atoms: C_23  and  C_25
REMARK                            x       y       z     vdW  Elec       q    Type
REMARK                         _______ _______ _______ _____ _____    ______ ____
ROOT
ATOM      1  C   UNL     1       2.331   8.372  18.354  0.00  0.00    +0.000 A 
ATOM      2  C   UNL     1       1.910   7.864  19.578  0.00  0.00    +0.000 A 
ATOM      3  C   UNL     1       2.219   6.552  19.942  0.00  0.00    +0.000 A 
ATOM      4  C   UNL     1       2.965   5.706  19.112  0.00  0.00    +0.000 A 
ATOM      5  C   UNL     1       3.424   6.209  17.869  0.00  0.00    +0.000 A 
ATOM      6  C   UNL     1       3.079   7.536  17.510  0.00  0.00    +0.000 A 
ENDROOT
BRANCH   4   7
ATOM      7  N   UNL     1       3.177   4.361  19.485  0.00  0.00    +0.000 N 
ATOM      8  C   UNL     1       4.384   3.678  19.605  0.00  0.00    +0.000 C 
ATOM      9  O   UNL     1       5.492   4.157  19.351  0.00  0.00    +0.000 OA
ATOM     10  H   UNL     1       2.355   3.758  19.483  0.00  0.00    +0.000 HD
BRANCH   8  11
ATOM     11  C   UNL     1       4.227   2.219  20.080  0.00  0.00    +0.000 C 
ATOM     12  F   UNL     1       3.281   2.079  21.053  0.00  0.00    +0.000 F 
ATOM     13  F   UNL     1       3.873   1.375  19.073  0.00  0.00    +0.000 F 
ATOM     14  F   UNL     1       5.383   1.727  20.610  0.00  0.00    +0.000 F 
ENDBRANCH   8  11
ENDBRANCH   4   7
BRANCH   5  15
ATOM     15  N   UNL     1       4.228   5.539  16.902  0.00  0.00    +0.000 N 
ATOM     16  C   UNL     1       5.448   5.903  16.336  0.00  0.00    +0.000 C 
ATOM     17  O   UNL     1       6.071   6.928  16.620  0.00  0.00    +0.000 OA
ATOM     18  H   UNL     1       3.798   4.720  16.475  0.00  0.00    +0.000 HD
BRANCH  16  19
ATOM     19  C   UNL     1       5.977   4.894  15.297  0.00  0.00    +0.000 C 
ATOM     20  F   UNL     1       6.107   3.644  15.829  0.00  0.00    +0.000 F 
ATOM     21  F   UNL     1       5.150   4.769  14.224  0.00  0.00    +0.000 F 
ATOM     22  F   UNL     1       7.201   5.239  14.816  0.00  0.00    +0.000 F 
ENDBRANCH  16  19
ENDBRANCH   5  15
BRANCH   1  23
ATOM     23  C   UNL     1       1.972   9.786  17.943  0.00  0.00    +0.000 C 
BRANCH  23  24
ATOM     24  C   UNL     1       1.292  10.589  19.074  0.00  0.00    +0.000 C 
BRANCH  24  25
ATOM     25  N   UNL     1      -0.163  10.354  19.251  0.00  0.00    +0.000 NA
BRANCH  25  26
ATOM     26  C   UNL     1      -0.561  10.829  20.594  0.00  0.00    +0.000 C 
BRANCH  26  28
ATOM     27  C   UNL     1      -0.355   8.943  22.318  0.00  0.00    +0.000 C 
ATOM     28  C   UNL     1       0.205  10.258  21.799  0.00  0.00    +0.000 C 
ENDBRANCH  26  28
ENDBRANCH  25  26
BRANCH  25  29
ATOM     29  C   UNL     1      -0.986  10.906  18.161  0.00  0.00    +0.000 C 
BRANCH  29  30
ATOM     30  C   UNL     1      -2.305  10.174  17.877  0.00  0.00    +0.000 C 
ATOM     31  C   UNL     1      -2.449   9.846  16.398  0.00  0.00    +0.000 C 
ENDBRANCH  29  30
ENDBRANCH  25  29
ENDBRANCH  24  25
ENDBRANCH  23  24
ENDBRANCH   1  23
TORSDOF 11
ENDMDL
MODEL 6
REMARK VINA RESULT:      -6.8      1.118      4.456
REMARK  Name = 
REMARK  13 active torsions:
REMARK  status: ('A' for Active; 'I' for Inactive)
REMARK    1  A    between atoms: C_1  and  C_2
REMARK    2  A    between atoms: C_2  and  C_3
REMARK    3  A    between atoms: C_3  and  N_4
REMARK    4  A    between atoms: N_4  and  C_5
REMARK    5  A    between atoms: N_4  and  C_8
REMARK    6  A    between atoms: C_5  and  C_6
REMARK    7  A    between atoms: C_6  and  C_7
REMARK    8  A    between atoms: C_8  and  C_9
REMARK    9  A    between atoms: C_9  and  C_10
REMARK   10  A    between atoms: C_13  and  N_14
REMARK   11  A    between atoms: C_15  and  C_17
REMARK   12  A    between atoms: C_21  and  N_22
REMARK   13  A    between atoms: C_23  and  C_25
REMARK                            x       y       z     vdW  Elec       q    Type
REMARK                         _______ _______ _______ _____ _____    ______ ____
ROOT
ATOM      1  C   UNL     1       1.870   9.051  18.735  0.00  0.00    +0.000 A 
ATOM      2  C   UNL     1       1.425   8.614  19.978  0.00  0.00    +0.000 A 
ATOM      3  C   UNL     1       1.742   7.332  20.430  0.00  0.00    +0.000 A 
ATOM      4  C   UNL     1       2.519   6.447  19.673  0.00  0.00    +0.000 A 
ATOM      5  C   UNL     1       3.002   6.879  18.412  0.00  0.00    +0.000 A 
ATOM      6  C   UNL     1       2.649   8.176  17.963  0.00  0.00    +0.000 A 
ENDROOT
BRANCH   4   7
ATOM      7  N   UNL     1       2.739   5.131  20.133  0.00  0.00    +0.000 N 
ATOM      8  C   UNL     1       2.110   3.957  19.726  0.00  0.00    +0.000 C 
ATOM      9  O   UNL     1       1.198   3.899  18.898  0.00  0.00    +0.000 OA
ATOM     10  H   UNL     1       3.279   5.038  20.993  0.00  0.00    +0.000 HD
BRANCH   8  11
ATOM     11  C   UNL     1       2.646   2.692  20.426  0.00  0.00    +0.000 C 
ATOM     12  F   UNL     1       1.945   1.568  20.096  0.00  0.00    +0.000 F 
ATOM     13  F   UNL     1       3.948   2.437  20.124  0.00  0.00    +0.000 F 
ATOM     14  F   UNL     1       2.575   2.790  21.784  0.00  0.00    +0.000 F 
ENDBRANCH   8  11
ENDBRANCH   4   7
BRANCH   5  15
ATOM     15  N   UNL     1       3.838   6.162  17.508  0.00  0.00    +0.000 N 
ATOM     16  C   UNL     1       5.057   5.522  17.722  0.00  0.00    +0.000 C 
ATOM     17  O   UNL     1       5.632   5.462  18.811  0.00  0.00    +0.000 OA
ATOM     18  H   UNL     1       3.560   6.212  16.528  0.00  0.00    +0.000 HD
BRANCH  16  19
ATOM     19  C   UNL     1       5.650   4.874  16.454  0.00  0.00    +0.000 C 
ATOM     20  F   UNL     1       5.111   3.643  16.219  0.00  0.00    +0.000 F 
ATOM     21  F   UNL     1       5.420   5.613  15.336  0.00  0.00    +0.000 F 
ATOM     22  F   UNL     1       6.996   4.697  16.543  0.00  0.00    +0.000 F 
ENDBRANCH  16  19
ENDBRANCH   5  15
BRANCH   1  23
ATOM     23  C   UNL     1       1.503  10.432  18.229  0.00  0.00    +0.000 C 
BRANCH  23  24
ATOM     24  C   UNL     1       0.999  11.371  19.347  0.00  0.00    +0.000 C 
BRANCH  24  25
ATOM     25  N   UNL     1      -0.447  11.709  19.305  0.00  0.00    +0.000 NA
BRANCH  25  26
ATOM     26  C   UNL     1      -1.071  10.990  18.174  0.00  0.00    +0.000 C 
BRANCH  26  28
ATOM     27  C   UNL     1      -3.205   9.705  17.569  0.00  0.00    +0.000 C 
ATOM     28  C   UNL     1      -2.606  11.000  18.093  0.00  0.00    +0.000 C 
ENDBRANCH  26  28
ENDBRANCH  25  26
BRANCH  25  29
ATOM     29  C   UNL     1      -1.137  11.503  20.590  0.00  0.00    +0.000 C 
BRANCH  29  30
ATOM     30  C   UNL     1      -0.243  11.473  21.838  0.00  0.00    +0.000 C 
ATOM     31  C   UNL     1      -0.586  10.293  22.736  0.00  0.00    +0.000 C 
ENDBRANCH  29  30
ENDBRANCH  25  29
ENDBRANCH  24  25
ENDBRANCH  23  24
ENDBRANCH   1  23
TORSDOF 11
ENDMDL
MODEL 7
REMARK VINA RESULT:      -6.8      0.898      1.713
REMARK  Name = 
REMARK  13 active torsions:
REMARK  status: ('A' for Active; 'I' for Inactive)
REMARK    1  A    between atoms: C_1  and  C_2
REMARK    2  A    between atoms: C_2  and  C_3
REMARK    3  A    between atoms: C_3  and  N_4
REMARK    4  A    between atoms: N_4  and  C_5
REMARK    5  A    between atoms: N_4  and  C_8
REMARK    6  A    between atoms: C_5  and  C_6
REMARK    7  A    between atoms: C_6  and  C_7
REMARK    8  A    between atoms: C_8  and  C_9
REMARK    9  A    between atoms: C_9  and  C_10
REMARK   10  A    between atoms: C_13  and  N_14
REMARK   11  A    between atoms: C_15  and  C_17
REMARK   12  A    between atoms: C_21  and  N_22
REMARK   13  A    between atoms: C_23  and  C_25
REMARK                            x       y       z     vdW  Elec       q    Type
REMARK                         _______ _______ _______ _____ _____    ______ ____
ROOT
ATOM      1  C   UNL     1       1.508   8.975  19.669  0.00  0.00    +0.000 A 
ATOM      2  C   UNL     1       1.917   9.155  18.353  0.00  0.00    +0.000 A 
ATOM      3  C   UNL     1       2.548   8.120  17.661  0.00  0.00    +0.000 A 
ATOM      4  C   UNL     1       2.783   6.870  18.246  0.00  0.00    +0.000 A 
ATOM      5  C   UNL     1       2.356   6.655  19.580  0.00  0.00    +0.000 A 
ATOM      6  C   UNL     1       1.738   7.728  20.271  0.00  0.00    +0.000 A 
ENDROOT
BRANCH   4   7
ATOM      7  N   UNL     1       3.503   5.884  17.537  0.00  0.00    +0.000 N 
ATOM      8  C   UNL     1       4.855   5.872  17.206  0.00  0.00    +0.000 C 
ATOM      9  O   UNL     1       5.649   6.782  17.459  0.00  0.00    +0.000 OA
ATOM     10  H   UNL     1       2.946   5.189  17.040  0.00  0.00    +0.000 HD
BRANCH   8  11
ATOM     11  C   UNL     1       5.300   4.599  16.459  0.00  0.00    +0.000 C 
ATOM     12  F   UNL     1       4.605   3.489  16.843  0.00  0.00    +0.000 F 
ATOM     13  F   UNL     1       5.147   4.701  15.111  0.00  0.00    +0.000 F 
ATOM     14  F   UNL     1       6.614   4.310  16.679  0.00  0.00    +0.000 F 
ENDBRANCH   8  11
ENDBRANCH   4   7
BRANCH   5  15
ATOM     15  N   UNL     1       2.456   5.457  20.344  0.00  0.00    +0.000 N 
ATOM     16  C   UNL     1       2.004   4.169  20.064  0.00  0.00    +0.000 C 
ATOM     17  O   UNL     1       1.421   3.844  19.028  0.00  0.00    +0.000 OA
ATOM     18  H   UNL     1       2.817   5.575  21.290  0.00  0.00    +0.000 HD
BRANCH  16  19
ATOM     19  C   UNL     1       2.300   3.149  21.182  0.00  0.00    +0.000 C 
ATOM     20  F   UNL     1       2.401   3.753  22.402  0.00  0.00    +0.000 F 
ATOM     21  F   UNL     1       1.326   2.208  21.301  0.00  0.00    +0.000 F 
ATOM     22  F   UNL     1       3.470   2.485  20.981  0.00  0.00    +0.000 F 
ENDBRANCH  16  19
ENDBRANCH   5  15
BRANCH   1  23
ATOM     23  C   UNL     1       0.849  10.106  20.432  0.00  0.00    +0.000 C 
BRANCH  23  24
ATOM     24  C   UNL     1       0.479  11.307  19.533  0.00  0.00    +0.000 C 
BRANCH  24  25
ATOM     25  N   UNL     1      -0.920  11.791  19.643  0.00  0.00    +0.000 NA
BRANCH  25  26
ATOM     26  C   UNL     1      -0.916  13.102  20.328  0.00  0.00    +0.000 C 
BRANCH  26  28
ATOM     27  C   UNL     1      -1.783  11.901  22.420  0.00  0.00    +0.000 C 
ATOM     28  C   UNL     1      -1.027  13.096  21.861  0.00  0.00    +0.000 C 
ENDBRANCH  26  28
ENDBRANCH  25  26
BRANCH  25  29
ATOM     29  C   UNL     1      -1.644  11.797  18.361  0.00  0.00    +0.000 C 
BRANCH  29  30
ATOM     30  C   UNL     1      -1.613  10.485  17.564  0.00  0.00    +0.000 C 
ATOM     31  C   UNL     1      -2.907   9.703  17.734  0.00  0.00    +0.000 C 
ENDBRANCH  29  30
ENDBRANCH  25  29
ENDBRANCH  24  25
ENDBRANCH  23  24
ENDBRANCH   1  23
TORSDOF 11
ENDMDL
MODEL 8
REMARK VINA RESULT:      -6.8      1.071      2.345
REMARK  Name = 
REMARK  13 active torsions:
REMARK  status: ('A' for Active; 'I' for Inactive)
REMARK    1  A    between atoms: C_1  and  C_2
REMARK    2  A    between atoms: C_2  and  C_3
REMARK    3  A    between atoms: C_3  and  N_4
REMARK    4  A    between atoms: N_4  and  C_5
REMARK    5  A    between atoms: N_4  and  C_8
REMARK    6  A    between atoms: C_5  and  C_6
REMARK    7  A    between atoms: C_6  and  C_7
REMARK    8  A    between atoms: C_8  and  C_9
REMARK    9  A    between atoms: C_9  and  C_10
REMARK   10  A    between atoms: C_13  and  N_14
REMARK   11  A    between atoms: C_15  and  C_17
REMARK   12  A    between atoms: C_21  and  N_22
REMARK   13  A    between atoms: C_23  and  C_25
REMARK                            x       y       z     vdW  Elec       q    Type
REMARK                         _______ _______ _______ _____ _____    ______ ____
ROOT
ATOM      1  C   UNL     1       1.441   9.059  19.515  0.00  0.00    +0.000 A 
ATOM      2  C   UNL     1       1.961   9.231  18.238  0.00  0.00    +0.000 A 
ATOM      3  C   UNL     1       2.668   8.199  17.619  0.00  0.00    +0.000 A 
ATOM      4  C   UNL     1       2.871   6.960  18.239  0.00  0.00    +0.000 A 
ATOM      5  C   UNL     1       2.331   6.754  19.532  0.00  0.00    +0.000 A 
ATOM      6  C   UNL     1       1.637   7.823  20.152  0.00  0.00    +0.000 A 
ENDROOT
BRANCH   4   7
ATOM      7  N   UNL     1       3.667   5.979  17.609  0.00  0.00    +0.000 N 
ATOM      8  C   UNL     1       4.812   5.353  18.095  0.00  0.00    +0.000 C 
ATOM      9  O   UNL     1       5.346   5.606  19.177  0.00  0.00    +0.000 OA
ATOM     10  H   UNL     1       3.510   5.843  16.611  0.00  0.00    +0.000 HD
BRANCH   8  11
ATOM     11  C   UNL     1       5.394   4.294  17.137  0.00  0.00    +0.000 C 
ATOM     12  F   UNL     1       5.201   4.606  15.822  0.00  0.00    +0.000 F 
ATOM     13  F   UNL     1       6.733   4.118  17.300  0.00  0.00    +0.000 F 
ATOM     14  F   UNL     1       4.818   3.071  17.318  0.00  0.00    +0.000 F 
ENDBRANCH   8  11
ENDBRANCH   4   7
BRANCH   5  15
ATOM     15  N   UNL     1       2.383   5.567  20.318  0.00  0.00    +0.000 N 
ATOM     16  C   UNL     1       1.808   4.316  20.100  0.00  0.00    +0.000 C 
ATOM     17  O   UNL     1       1.132   4.021  19.113  0.00  0.00    +0.000 OA
ATOM     18  H   UNL     1       2.815   5.672  21.235  0.00  0.00    +0.000 HD
BRANCH  16  19
ATOM     19  C   UNL     1       2.094   3.296  21.222  0.00  0.00    +0.000 C 
ATOM     20  F   UNL     1       2.449   3.914  22.386  0.00  0.00    +0.000 F 
ATOM     21  F   UNL     1       1.012   2.525  21.513  0.00  0.00    +0.000 F 
ATOM     22  F   UNL     1       3.111   2.450  20.906  0.00  0.00    +0.000 F 
ENDBRANCH  16  19
ENDBRANCH   5  15
BRANCH   1  23
ATOM     23  C   UNL     1       0.698  10.188  20.202  0.00  0.00    +0.000 C 
BRANCH  23  24
ATOM     24  C   UNL     1      -0.786  10.277  19.785  0.00  0.00    +0.000 C 
BRANCH  24  25
ATOM     25  N   UNL     1      -1.064  11.031  18.536  0.00  0.00    +0.000 NA
BRANCH  25  26
ATOM     26  C   UNL     1      -1.592  10.093  17.522  0.00  0.00    +0.000 C 
BRANCH  26  28
ATOM     27  C   UNL     1      -2.874  10.093  15.302  0.00  0.00    +0.000 C 
ATOM     28  C   UNL     1      -2.859  10.518  16.762  0.00  0.00    +0.000 C 
ENDBRANCH  26  28
ENDBRANCH  25  26
BRANCH  25  29
ATOM     29  C   UNL     1      -1.911  12.219  18.741  0.00  0.00    +0.000 C 
BRANCH  29  30
ATOM     30  C   UNL     1      -2.136  12.642  20.200  0.00  0.00    +0.000 C 
ATOM     31  C   UNL     1      -1.588  14.036  20.463  0.00  0.00    +0.000 C 
ENDBRANCH  29  30
ENDBRANCH  25  29
ENDBRANCH  24  25
ENDBRANCH  23  24
ENDBRANCH   1  23
TORSDOF 11
ENDMDL
MODEL 9
REMARK VINA RESULT:      -6.8      1.736      4.378
REMARK  Name = 
REMARK  13 active torsions:
REMARK  status: ('A' for Active; 'I' for Inactive)
REMARK    1  A    between atoms: C_1  and  C_2
REMARK    2  A    between atoms: C_2  and  C_3
REMARK    3  A    between atoms: C_3  and  N_4
REMARK    4  A    between atoms: N_4  and  C_5
REMARK    5  A    between atoms: N_4  and  C_8
REMARK    6  A    between atoms: C_5  and  C_6
REMARK    7  A    between atoms: C_6  and  C_7
REMARK    8  A    between atoms: C_8  and  C_9
REMARK    9  A    between atoms: C_9  and  C_10
REMARK   10  A    between atoms: C_13  and  N_14
REMARK   11  A    between atoms: C_15  and  C_17
REMARK   12  A    between atoms: C_21  and  N_22
REMARK   13  A    between atoms: C_23  and  C_25
REMARK                            x       y       z     vdW  Elec       q    Type
REMARK                         _______ _______ _______ _____ _____    ______ ____
ROOT
ATOM      1  C   UNL     1       1.481   8.608  19.899  0.00  0.00    +0.000 A 
ATOM      2  C   UNL     1       1.098   7.680  20.860  0.00  0.00    +0.000 A 
ATOM      3  C   UNL     1       1.472   6.341  20.737  0.00  0.00    +0.000 A 
ATOM      4  C   UNL     1       2.248   5.881  19.666  0.00  0.00    +0.000 A 
ATOM      5  C   UNL     1       2.668   6.813  18.685  0.00  0.00    +0.000 A 
ATOM      6  C   UNL     1       2.257   8.163  18.818  0.00  0.00    +0.000 A 
ENDROOT
BRANCH   4   7
ATOM      7  N   UNL     1       2.526   4.503  19.538  0.00  0.00    +0.000 N 
ATOM      8  C   UNL     1       2.108   3.625  18.542  0.00  0.00    +0.000 C 
ATOM      9  O   UNL     1       1.364   3.927  17.605  0.00  0.00    +0.000 OA
ATOM     10  H   UNL     1       2.917   4.043  20.360  0.00  0.00    +0.000 HD
BRANCH   8  11
ATOM     11  C   UNL     1       2.649   2.191  18.710  0.00  0.00    +0.000 C 
ATOM     12  F   UNL     1       3.826   2.147  19.400  0.00  0.00    +0.000 F 
ATOM     13  F   UNL     1       1.783   1.378  19.373  0.00  0.00    +0.000 F 
ATOM     14  F   UNL     1       2.898   1.595  17.510  0.00  0.00    +0.000 F 
ENDBRANCH   8  11
ENDBRANCH   4   7
BRANCH   5  15
ATOM     15  N   UNL     1       3.491   6.568  17.548  0.00  0.00    +0.000 N 
ATOM     16  C   UNL     1       4.757   5.992  17.458  0.00  0.00    +0.000 C 
ATOM     17  O   UNL     1       5.396   5.560  18.419  0.00  0.00    +0.000 OA
ATOM     18  H   UNL     1       3.154   6.972  16.674  0.00  0.00    +0.000 HD
BRANCH  16  19
ATOM     19  C   UNL     1       5.312   5.933  16.020  0.00  0.00    +0.000 C 
ATOM     20  F   UNL     1       4.944   4.783  15.384  0.00  0.00    +0.000 F 
ATOM     21  F   UNL     1       4.866   6.958  15.247  0.00  0.00    +0.000 F 
ATOM     22  F   UNL     1       6.672   5.975  15.988  0.00  0.00    +0.000 F 
ENDBRANCH  16  19
ENDBRANCH   5  15
BRANCH   1  23
ATOM     23  C   UNL     1       1.052  10.057  20.014  0.00  0.00    +0.000 C 
BRANCH  23  24
ATOM     24  C   UNL     1      -0.482  10.237  19.988  0.00  0.00    +0.000 C 
BRANCH  24  25
ATOM     25  N   UNL     1      -0.970  11.594  19.635  0.00  0.00    +0.000 NA
BRANCH  25  26
ATOM     26  C   UNL     1      -1.540  11.555  18.271  0.00  0.00    +0.000 C 
BRANCH  26  28
ATOM     27  C   UNL     1      -3.189   9.731  17.548  0.00  0.00    +0.000 C 
ATOM     28  C   UNL     1      -1.736  10.172  17.629  0.00  0.00    +0.000 C 
ENDBRANCH  26  28
ENDBRANCH  25  26
BRANCH  25  29
ATOM     29  C   UNL     1      -1.879  12.173  20.639  0.00  0.00    +0.000 C 
BRANCH  29  30
ATOM     30  C   UNL     1      -1.333  12.259  22.071  0.00  0.00    +0.000 C 
ATOM     31  C   UNL     1      -2.428  12.006  23.097  0.00  0.00    +0.000 C 
ENDBRANCH  29  30
ENDBRANCH  25  29
ENDBRANCH  24  25
ENDBRANCH  23  24
ENDBRANCH   1  23
TORSDOF 11
ENDMDL
