MODEL 1
REMARK VINA RESULT:      -7.3      0.000      0.000
REMARK  Name = 
REMARK  5 active torsions:
REMARK  status: ('A' for Active; 'I' for Inactive)
REMARK    1  A    between atoms: C_1  and  O_2
REMARK    2  A    between atoms: O_2  and  C_3
REMARK    3  A    between atoms: C_8  and  C_9
REMARK    4  A    between atoms: C_9  and  C_10
REMARK    5  A    between atoms: N_12  and  C_13
REMARK                            x       y       z     vdW  Elec       q    Type
REMARK                         _______ _______ _______ _____ _____    ______ ____
ROOT
ATOM      1  C   UNL     1       6.658   4.624  17.012  0.00  0.00    +0.000 C 
ATOM      2  O   UNL     1       7.839   4.284  17.062  0.00  0.00    +0.000 OA
ATOM      3  N   UNL     1       5.929   4.876  15.859  0.00  0.00    +0.000 N 
ATOM      4  H   UNL     1       5.046   5.359  15.992  0.00  0.00    +0.000 HD
ENDROOT
BRANCH   3   5
ATOM      5  C   UNL     1       6.347   4.653  14.529  0.00  0.00    +0.000 A 
ATOM      6  C   UNL     1       7.426   5.317  13.934  0.00  0.00    +0.000 A 
ATOM      7  C   UNL     1       7.798   5.042  12.612  0.00  0.00    +0.000 A 
ATOM      8  C   UNL     1       7.097   4.094  11.874  0.00  0.00    +0.000 A 
ATOM      9  C   UNL     1       6.035   3.424  12.469  0.00  0.00    +0.000 A 
ATOM     10  F   UNL     1       5.357   2.509  11.765  0.00  0.00    +0.000 F 
ATOM     11  C   UNL     1       5.662   3.687  13.787  0.00  0.00    +0.000 A 
ENDBRANCH   3   5
BRANCH   1  12
ATOM     12  C   UNL     1       5.847   4.795  18.286  0.00  0.00    +0.000 C 
BRANCH  12  18
ATOM     13  C   UNL     1       3.353   5.044  17.810  0.00  0.00    +0.000 A 
ATOM     14  C   UNL     1       2.075   4.474  17.738  0.00  0.00    +0.000 A 
ATOM     15  C   UNL     1       1.884   3.118  18.006  0.00  0.00    +0.000 A 
ATOM     16  C   UNL     1       2.965   2.317  18.358  0.00  0.00    +0.000 A 
ATOM     17  C   UNL     1       4.239   2.877  18.449  0.00  0.00    +0.000 A 
ATOM     18  C   UNL     1       4.448   4.241  18.177  0.00  0.00    +0.000 A 
BRANCH  13  20
ATOM     19  C   UNL     1       2.793   7.294  18.286  0.00  0.00    +0.000 C 
ATOM     20  O   UNL     1       3.612   6.369  17.568  0.00  0.00    +0.000 OA
ENDBRANCH  13  20
ENDBRANCH  12  18
ENDBRANCH   1  12
TORSDOF 4
ENDMDL
MODEL 2
REMARK VINA RESULT:      -7.2      2.787      6.283
REMARK  Name = 
REMARK  5 active torsions:
REMARK  status: ('A' for Active; 'I' for Inactive)
REMARK    1  A    between atoms: C_1  and  O_2
REMARK    2  A    between atoms: O_2  and  C_3
REMARK    3  A    between atoms: C_8  and  C_9
REMARK    4  A    between atoms: C_9  and  C_10
REMARK    5  A    between atoms: N_12  and  C_13
REMARK                            x       y       z     vdW  Elec       q    Type
REMARK                         _______ _______ _______ _____ _____    ______ ____
ROOT
ATOM      1  C   UNL     1       3.397   6.731  18.012  0.00  0.00    +0.000 C 
ATOM      2  O   UNL     1       2.407   7.409  18.282  0.00  0.00    +0.000 OA
ATOM      3  N   UNL     1       3.658   5.448  18.472  0.00  0.00    +0.000 N 
ATOM      4  H   UNL     1       4.609   5.118  18.342  0.00  0.00    +0.000 HD
ENDROOT
BRANCH   3   5
ATOM      5  C   UNL     1       2.786   4.621  19.211  0.00  0.00    +0.000 A 
ATOM      6  C   UNL     1       2.701   4.637  20.609  0.00  0.00    +0.000 A 
ATOM      7  C   UNL     1       1.806   3.799  21.284  0.00  0.00    +0.000 A 
ATOM      8  C   UNL     1       0.980   2.939  20.567  0.00  0.00    +0.000 A 
ATOM      9  C   UNL     1       1.053   2.934  19.178  0.00  0.00    +0.000 A 
ATOM     10  F   UNL     1       0.259   2.111  18.482  0.00  0.00    +0.000 F 
ATOM     11  C   UNL     1       1.937   3.770  18.499  0.00  0.00    +0.000 A 
ENDBRANCH   3   5
BRANCH   1  12
ATOM     12  C   UNL     1       4.475   7.269  17.085  0.00  0.00    +0.000 C 
BRANCH  12  18
ATOM     13  C   UNL     1       6.477   5.699  17.275  0.00  0.00    +0.000 A 
ATOM     14  C   UNL     1       7.292   4.708  16.712  0.00  0.00    +0.000 A 
ATOM     15  C   UNL     1       7.014   4.192  15.445  0.00  0.00    +0.000 A 
ATOM     16  C   UNL     1       5.924   4.668  14.722  0.00  0.00    +0.000 A 
ATOM     17  C   UNL     1       5.118   5.667  15.266  0.00  0.00    +0.000 A 
ATOM     18  C   UNL     1       5.382   6.192  16.543  0.00  0.00    +0.000 A 
BRANCH  13  20
ATOM     19  C   UNL     1       7.790   5.705  19.244  0.00  0.00    +0.000 C 
ATOM     20  O   UNL     1       6.696   6.256  18.510  0.00  0.00    +0.000 OA
ENDBRANCH  13  20
ENDBRANCH  12  18
ENDBRANCH   1  12
TORSDOF 4
ENDMDL
MODEL 3
REMARK VINA RESULT:      -7.1      1.145      1.586
REMARK  Name = 
REMARK  5 active torsions:
REMARK  status: ('A' for Active; 'I' for Inactive)
REMARK    1  A    between atoms: C_1  and  O_2
REMARK    2  A    between atoms: O_2  and  C_3
REMARK    3  A    between atoms: C_8  and  C_9
REMARK    4  A    between atoms: C_9  and  C_10
REMARK    5  A    between atoms: N_12  and  C_13
REMARK                            x       y       z     vdW  Elec       q    Type
REMARK                         _______ _______ _______ _____ _____    ______ ____
ROOT
ATOM      1  C   UNL     1       6.501   4.622  17.196  0.00  0.00    +0.000 C 
ATOM      2  O   UNL     1       7.708   4.392  17.262  0.00  0.00    +0.000 OA
ATOM      3  N   UNL     1       5.762   4.778  16.032  0.00  0.00    +0.000 N 
ATOM      4  H   UNL     1       4.838   5.182  16.148  0.00  0.00    +0.000 HD
ENDROOT
BRANCH   3   5
ATOM      5  C   UNL     1       6.210   4.561  14.711  0.00  0.00    +0.000 A 
ATOM      6  C   UNL     1       5.623   3.639  13.836  0.00  0.00    +0.000 A 
ATOM      7  C   UNL     1       6.106   3.478  12.532  0.00  0.00    +0.000 A 
ATOM      8  C   UNL     1       7.178   4.244  12.087  0.00  0.00    +0.000 A 
ATOM      9  C   UNL     1       7.751   5.171  12.950  0.00  0.00    +0.000 A 
ATOM     10  F   UNL     1       8.782   5.914  12.528  0.00  0.00    +0.000 F 
ATOM     11  C   UNL     1       7.272   5.341  14.248  0.00  0.00    +0.000 A 
ENDBRANCH   3   5
BRANCH   1  12
ATOM     12  C   UNL     1       5.668   4.750  18.460  0.00  0.00    +0.000 C 
BRANCH  12  18
ATOM     13  C   UNL     1       3.187   5.004  17.921  0.00  0.00    +0.000 A 
ATOM     14  C   UNL     1       1.911   4.436  17.810  0.00  0.00    +0.000 A 
ATOM     15  C   UNL     1       1.713   3.077  18.058  0.00  0.00    +0.000 A 
ATOM     16  C   UNL     1       2.785   2.272  18.429  0.00  0.00    +0.000 A 
ATOM     17  C   UNL     1       4.055   2.831  18.560  0.00  0.00    +0.000 A 
ATOM     18  C   UNL     1       4.272   4.198  18.308  0.00  0.00    +0.000 A 
BRANCH  13  20
ATOM     19  C   UNL     1       2.663   7.249  18.461  0.00  0.00    +0.000 C 
ATOM     20  O   UNL     1       3.452   6.332  17.700  0.00  0.00    +0.000 OA
ENDBRANCH  13  20
ENDBRANCH  12  18
ENDBRANCH   1  12
TORSDOF 4
ENDMDL
MODEL 4
REMARK VINA RESULT:      -7.1      3.208      6.517
REMARK  Name = 
REMARK  5 active torsions:
REMARK  status: ('A' for Active; 'I' for Inactive)
REMARK    1  A    between atoms: C_1  and  O_2
REMARK    2  A    between atoms: O_2  and  C_3
REMARK    3  A    between atoms: C_8  and  C_9
REMARK    4  A    between atoms: C_9  and  C_10
REMARK    5  A    between atoms: N_12  and  C_13
REMARK                            x       y       z     vdW  Elec       q    Type
REMARK                         _______ _______ _______ _____ _____    ______ ____
ROOT
ATOM      1  C   UNL     1       3.317   6.672  17.900  0.00  0.00    +0.000 C 
ATOM      2  O   UNL     1       2.257   7.286  18.013  0.00  0.00    +0.000 OA
ATOM      3  N   UNL     1       3.579   5.399  18.386  0.00  0.00    +0.000 N 
ATOM      4  H   UNL     1       4.557   5.128  18.408  0.00  0.00    +0.000 HD
ENDROOT
BRANCH   3   5
ATOM      5  C   UNL     1       2.651   4.509  18.968  0.00  0.00    +0.000 A 
ATOM      6  C   UNL     1       1.711   3.779  18.232  0.00  0.00    +0.000 A 
ATOM      7  C   UNL     1       0.824   2.902  18.868  0.00  0.00    +0.000 A 
ATOM      8  C   UNL     1       0.873   2.741  20.249  0.00  0.00    +0.000 A 
ATOM      9  C   UNL     1       1.817   3.455  20.979  0.00  0.00    +0.000 A 
ATOM     10  F   UNL     1       1.873   3.303  22.308  0.00  0.00    +0.000 F 
ATOM     11  C   UNL     1       2.708   4.325  20.352  0.00  0.00    +0.000 A 
ENDBRANCH   3   5
BRANCH   1  12
ATOM     12  C   UNL     1       4.494   7.289  17.163  0.00  0.00    +0.000 C 
BRANCH  12  18
ATOM     13  C   UNL     1       6.516   5.737  17.275  0.00  0.00    +0.000 A 
ATOM     14  C   UNL     1       7.350   4.795  16.658  0.00  0.00    +0.000 A 
ATOM     15  C   UNL     1       7.093   4.359  15.357  0.00  0.00    +0.000 A 
ATOM     16  C   UNL     1       6.005   4.866  14.654  0.00  0.00    +0.000 A 
ATOM     17  C   UNL     1       5.180   5.817  15.251  0.00  0.00    +0.000 A 
ATOM     18  C   UNL     1       5.422   6.262  16.563  0.00  0.00    +0.000 A 
BRANCH  13  20
ATOM     19  C   UNL     1       7.849   5.681  19.230  0.00  0.00    +0.000 C 
ATOM     20  O   UNL     1       6.714   6.215  18.545  0.00  0.00    +0.000 OA
ENDBRANCH  13  20
ENDBRANCH  12  18
ENDBRANCH   1  12
TORSDOF 4
ENDMDL
MODEL 5
REMARK VINA RESULT:      -7.0      3.076      6.584
REMARK  Name = 
REMARK  5 active torsions:
REMARK  status: ('A' for Active; 'I' for Inactive)
REMARK    1  A    between atoms: C_1  and  O_2
REMARK    2  A    between atoms: O_2  and  C_3
REMARK    3  A    between atoms: C_8  and  C_9
REMARK    4  A    between atoms: C_9  and  C_10
REMARK    5  A    between atoms: N_12  and  C_13
REMARK                            x       y       z     vdW  Elec       q    Type
REMARK                         _______ _______ _______ _____ _____    ______ ____
ROOT
ATOM      1  C   UNL     1       2.846   4.685  18.172  0.00  0.00    +0.000 C 
ATOM      2  O   UNL     1       1.682   4.445  17.855  0.00  0.00    +0.000 OA
ATOM      3  N   UNL     1       3.322   5.884  18.683  0.00  0.00    +0.000 N 
ATOM      4  H   UNL     1       4.331   5.995  18.681  0.00  0.00    +0.000 HD
ENDROOT
BRANCH   3   5
ATOM      5  C   UNL     1       2.554   7.002  19.074  0.00  0.00    +0.000 A 
ATOM      6  C   UNL     1       2.002   7.154  20.352  0.00  0.00    +0.000 A 
ATOM      7  C   UNL     1       1.257   8.293  20.682  0.00  0.00    +0.000 A 
ATOM      8  C   UNL     1       1.062   9.295  19.738  0.00  0.00    +0.000 A 
ATOM      9  C   UNL     1       1.622   9.151  18.474  0.00  0.00    +0.000 A 
ATOM     10  F   UNL     1       1.441  10.114  17.561  0.00  0.00    +0.000 F 
ATOM     11  C   UNL     1       2.371   8.023  18.140  0.00  0.00    +0.000 A 
ENDBRANCH   3   5
BRANCH   1  12
ATOM     12  C   UNL     1       3.922   3.621  18.035  0.00  0.00    +0.000 C 
BRANCH  12  18
ATOM     13  C   UNL     1       6.260   4.564  17.645  0.00  0.00    +0.000 A 
ATOM     14  C   UNL     1       7.275   4.947  16.758  0.00  0.00    +0.000 A 
ATOM     15  C   UNL     1       7.113   4.793  15.381  0.00  0.00    +0.000 A 
ATOM     16  C   UNL     1       5.932   4.262  14.873  0.00  0.00    +0.000 A 
ATOM     17  C   UNL     1       4.908   3.895  15.745  0.00  0.00    +0.000 A 
ATOM     18  C   UNL     1       5.059   4.039  17.136  0.00  0.00    +0.000 A 
BRANCH  13  20
ATOM     19  C   UNL     1       7.341   5.612  19.472  0.00  0.00    +0.000 C 
ATOM     20  O   UNL     1       6.348   4.695  19.008  0.00  0.00    +0.000 OA
ENDBRANCH  13  20
ENDBRANCH  12  18
ENDBRANCH   1  12
TORSDOF 4
ENDMDL
MODEL 6
REMARK VINA RESULT:      -7.0      1.730      2.094
REMARK  Name = 
REMARK  5 active torsions:
REMARK  status: ('A' for Active; 'I' for Inactive)
REMARK    1  A    between atoms: C_1  and  O_2
REMARK    2  A    between atoms: O_2  and  C_3
REMARK    3  A    between atoms: C_8  and  C_9
REMARK    4  A    between atoms: C_9  and  C_10
REMARK    5  A    between atoms: N_12  and  C_13
REMARK                            x       y       z     vdW  Elec       q    Type
REMARK                         _______ _______ _______ _____ _____    ______ ____
ROOT
ATOM      1  C   UNL     1       5.214   4.638  16.713  0.00  0.00    +0.000 C 
ATOM      2  O   UNL     1       4.766   5.730  16.368  0.00  0.00    +0.000 OA
ATOM      3  N   UNL     1       5.880   3.734  15.898  0.00  0.00    +0.000 N 
ATOM      4  H   UNL     1       5.985   2.796  16.273  0.00  0.00    +0.000 HD
ENDROOT
BRANCH   3   5
ATOM      5  C   UNL     1       6.302   3.946  14.568  0.00  0.00    +0.000 A 
ATOM      6  C   UNL     1       5.727   3.307  13.462  0.00  0.00    +0.000 A 
ATOM      7  C   UNL     1       6.183   3.569  12.165  0.00  0.00    +0.000 A 
ATOM      8  C   UNL     1       7.216   4.479  11.959  0.00  0.00    +0.000 A 
ATOM      9  C   UNL     1       7.776   5.124  13.056  0.00  0.00    +0.000 A 
ATOM     10  F   UNL     1       8.768   6.003  12.865  0.00  0.00    +0.000 F 
ATOM     11  C   UNL     1       7.323   4.873  14.350  0.00  0.00    +0.000 A 
ENDBRANCH   3   5
BRANCH   1  12
ATOM     12  C   UNL     1       5.078   4.164  18.151  0.00  0.00    +0.000 C 
BRANCH  12  18
ATOM     13  C   UNL     1       2.802   4.653  19.196  0.00  0.00    +0.000 A 
ATOM     14  C   UNL     1       1.506   4.229  19.519  0.00  0.00    +0.000 A 
ATOM     15  C   UNL     1       1.061   2.957  19.155  0.00  0.00    +0.000 A 
ATOM     16  C   UNL     1       1.908   2.091  18.471  0.00  0.00    +0.000 A 
ATOM     17  C   UNL     1       3.205   2.496  18.161  0.00  0.00    +0.000 A 
ATOM     18  C   UNL     1       3.666   3.776  18.516  0.00  0.00    +0.000 A 
BRANCH  13  20
ATOM     19  C   UNL     1       2.333   6.894  19.795  0.00  0.00    +0.000 C 
ATOM     20  O   UNL     1       3.307   5.884  19.530  0.00  0.00    +0.000 OA
ENDBRANCH  13  20
ENDBRANCH  12  18
ENDBRANCH   1  12
TORSDOF 4
ENDMDL
MODEL 7
REMARK VINA RESULT:      -6.9      3.950      4.994
REMARK  Name = 
REMARK  5 active torsions:
REMARK  status: ('A' for Active; 'I' for Inactive)
REMARK    1  A    between atoms: C_1  and  O_2
REMARK    2  A    between atoms: O_2  and  C_3
REMARK    3  A    between atoms: C_8  and  C_9
REMARK    4  A    between atoms: C_9  and  C_10
REMARK    5  A    between atoms: N_12  and  C_13
REMARK                            x       y       z     vdW  Elec       q    Type
REMARK                         _______ _______ _______ _____ _____    ______ ____
ROOT
ATOM      1  C   UNL     1       3.092   6.146  17.953  0.00  0.00    +0.000 C 
ATOM      2  O   UNL     1       2.978   7.360  18.112  0.00  0.00    +0.000 OA
ATOM      3  N   UNL     1       4.284   5.447  17.828  0.00  0.00    +0.000 N 
ATOM      4  H   UNL     1       4.203   4.496  17.482  0.00  0.00    +0.000 HD
ENDROOT
BRANCH   3   5
ATOM      5  C   UNL     1       5.588   5.960  18.002  0.00  0.00    +0.000 A 
ATOM      6  C   UNL     1       6.127   6.987  17.217  0.00  0.00    +0.000 A 
ATOM      7  C   UNL     1       7.424   7.460  17.447  0.00  0.00    +0.000 A 
ATOM      8  C   UNL     1       8.194   6.916  18.469  0.00  0.00    +0.000 A 
ATOM      9  C   UNL     1       7.653   5.907  19.258  0.00  0.00    +0.000 A 
ATOM     10  F   UNL     1       8.387   5.380  20.246  0.00  0.00    +0.000 F 
ATOM     11  C   UNL     1       6.360   5.434  19.040  0.00  0.00    +0.000 A 
ENDBRANCH   3   5
BRANCH   1  12
ATOM     12  C   UNL     1       1.863   5.255  17.892  0.00  0.00    +0.000 C 
BRANCH  12  18
ATOM     13  C   UNL     1       1.863   2.892  18.855  0.00  0.00    +0.000 A 
ATOM     14  C   UNL     1       1.762   2.041  19.963  0.00  0.00    +0.000 A 
ATOM     15  C   UNL     1       1.598   2.560  21.249  0.00  0.00    +0.000 A 
ATOM     16  C   UNL     1       1.524   3.935  21.441  0.00  0.00    +0.000 A 
ATOM     17  C   UNL     1       1.605   4.791  20.343  0.00  0.00    +0.000 A 
ATOM     18  C   UNL     1       1.776   4.283  19.043  0.00  0.00    +0.000 A 
BRANCH  13  20
ATOM     19  C   UNL     1       3.322   1.976  17.232  0.00  0.00    +0.000 C 
ATOM     20  O   UNL     1       2.017   2.451  17.566  0.00  0.00    +0.000 OA
ENDBRANCH  13  20
ENDBRANCH  12  18
ENDBRANCH   1  12
TORSDOF 4
ENDMDL
MODEL 8
REMARK VINA RESULT:      -6.9      1.564      2.636
REMARK  Name = 
REMARK  5 active torsions:
REMARK  status: ('A' for Active; 'I' for Inactive)
REMARK    1  A    between atoms: C_1  and  O_2
REMARK    2  A    between atoms: O_2  and  C_3
REMARK    3  A    between atoms: C_8  and  C_9
REMARK    4  A    between atoms: C_9  and  C_10
REMARK    5  A    between atoms: N_12  and  C_13
REMARK                            x       y       z     vdW  Elec       q    Type
REMARK                         _______ _______ _______ _____ _____    ______ ____
ROOT
ATOM      1  C   UNL     1       6.781   4.541  17.118  0.00  0.00    +0.000 C 
ATOM      2  O   UNL     1       7.998   4.359  17.118  0.00  0.00    +0.000 OA
ATOM      3  N   UNL     1       5.979   4.696  15.996  0.00  0.00    +0.000 N 
ATOM      4  H   UNL     1       5.046   5.058  16.168  0.00  0.00    +0.000 HD
ENDROOT
BRANCH   3   5
ATOM      5  C   UNL     1       6.368   4.532  14.649  0.00  0.00    +0.000 A 
ATOM      6  C   UNL     1       5.775   3.610  13.778  0.00  0.00    +0.000 A 
ATOM      7  C   UNL     1       6.199   3.503  12.448  0.00  0.00    +0.000 A 
ATOM      8  C   UNL     1       7.217   4.324  11.973  0.00  0.00    +0.000 A 
ATOM      9  C   UNL     1       7.795   5.250  12.833  0.00  0.00    +0.000 A 
ATOM     10  F   UNL     1       8.773   6.044  12.382  0.00  0.00    +0.000 F 
ATOM     11  C   UNL     1       7.374   5.366  14.157  0.00  0.00    +0.000 A 
ENDBRANCH   3   5
BRANCH   1  12
ATOM     12  C   UNL     1       6.007   4.600  18.424  0.00  0.00    +0.000 C 
BRANCH  12  18
ATOM     13  C   UNL     1       3.636   3.818  17.897  0.00  0.00    +0.000 A 
ATOM     14  C   UNL     1       2.279   4.116  17.715  0.00  0.00    +0.000 A 
ATOM     15  C   UNL     1       1.808   5.419  17.881  0.00  0.00    +0.000 A 
ATOM     16  C   UNL     1       2.688   6.442  18.221  0.00  0.00    +0.000 A 
ATOM     17  C   UNL     1       4.043   6.160  18.386  0.00  0.00    +0.000 A 
ATOM     18  C   UNL     1       4.532   4.850  18.228  0.00  0.00    +0.000 A 
BRANCH  13  20
ATOM     19  C   UNL     1       3.492   1.520  18.445  0.00  0.00    +0.000 C 
ATOM     20  O   UNL     1       4.169   2.564  17.742  0.00  0.00    +0.000 OA
ENDBRANCH  13  20
ENDBRANCH  12  18
ENDBRANCH   1  12
TORSDOF 4
ENDMDL
MODEL 9
REMARK VINA RESULT:      -6.9      1.209      2.112
REMARK  Name = 
REMARK  5 active torsions:
REMARK  status: ('A' for Active; 'I' for Inactive)
REMARK    1  A    between atoms: C_1  and  O_2
REMARK    2  A    between atoms: O_2  and  C_3
REMARK    3  A    between atoms: C_8  and  C_9
REMARK    4  A    between atoms: C_9  and  C_10
REMARK    5  A    between atoms: N_12  and  C_13
REMARK                            x       y       z     vdW  Elec       q    Type
REMARK                         _______ _______ _______ _____ _____    ______ ____
ROOT
ATOM      1  C   UNL     1       6.109   4.910  17.100  0.00  0.00    +0.000 C 
ATOM      2  O   UNL     1       7.141   4.278  17.323  0.00  0.00    +0.000 OA
ATOM      3  N   UNL     1       5.637   5.287  15.851  0.00  0.00    +0.000 N 
ATOM      4  H   UNL     1       4.903   5.987  15.850  0.00  0.00    +0.000 HD
ENDROOT
BRANCH   3   5
ATOM      5  C   UNL     1       6.159   4.900  14.597  0.00  0.00    +0.000 A 
ATOM      6  C   UNL     1       7.348   5.410  14.062  0.00  0.00    +0.000 A 
ATOM      7  C   UNL     1       7.819   4.977  12.817  0.00  0.00    +0.000 A 
ATOM      8  C   UNL     1       7.108   4.023  12.096  0.00  0.00    +0.000 A 
ATOM      9  C   UNL     1       5.935   3.506  12.634  0.00  0.00    +0.000 A 
ATOM     10  F   UNL     1       5.247   2.586  11.947  0.00  0.00    +0.000 F 
ATOM     11  C   UNL     1       5.463   3.927  13.876  0.00  0.00    +0.000 A 
ENDBRANCH   3   5
BRANCH   1  12
ATOM     12  C   UNL     1       5.206   5.345  18.241  0.00  0.00    +0.000 C 
BRANCH  12  18
ATOM     13  C   UNL     1       3.846   3.344  19.052  0.00  0.00    +0.000 A 
ATOM     14  C   UNL     1       2.636   2.639  19.081  0.00  0.00    +0.000 A 
ATOM     15  C   UNL     1       1.510   3.128  18.416  0.00  0.00    +0.000 A 
ATOM     16  C   UNL     1       1.584   4.322  17.706  0.00  0.00    +0.000 A 
ATOM     17  C   UNL     1       2.788   5.022  17.655  0.00  0.00    +0.000 A 
ATOM     18  C   UNL     1       3.929   4.545  18.325  0.00  0.00    +0.000 A 
BRANCH  13  20
ATOM     19  C   UNL     1       4.841   1.776  20.519  0.00  0.00    +0.000 C 
ATOM     20  O   UNL     1       4.992   2.918  19.675  0.00  0.00    +0.000 OA
ENDBRANCH  13  20
ENDBRANCH  12  18
ENDBRANCH   1  12
TORSDOF 4
ENDMDL
