MODEL 1
REMARK VINA RESULT:      -7.7      0.000      0.000
REMARK  Name = 
REMARK  3 active torsions:
REMARK  status: ('A' for Active; 'I' for Inactive)
REMARK    1  A    between atoms: C_2  and  C_12
REMARK    2  A    between atoms: N_3  and  N_4
REMARK    3  A    between atoms: N_4  and  C_5
REMARK                            x       y       z     vdW  Elec       q    Type
REMARK                         _______ _______ _______ _____ _____    ______ ____
ROOT
ATOM      1  O   UNL     1       6.779   5.378  19.927  0.00  0.00    +0.000 OA
ATOM      2  C   UNL     1       6.084   4.726  19.148  0.00  0.00    +0.000 C 
ATOM      3  N   UNL     1       5.636   3.464  19.511  0.00  0.00    +0.000 N 
ATOM      4  H   UNL     1       5.797   3.165  20.470  0.00  0.00    +0.000 HD
ENDROOT
BRANCH   2   5
ATOM      5  C   UNL     1       5.756   5.263  17.803  0.00  0.00    +0.000 A 
ATOM      6  C   UNL     1       6.582   4.978  16.708  0.00  0.00    +0.000 A 
ATOM      7  F   UNL     1       7.581   4.085  16.809  0.00  0.00    +0.000 F 
ATOM      8  C   UNL     1       6.406   5.600  15.477  0.00  0.00    +0.000 A 
ATOM      9  C   UNL     1       5.325   6.451  15.285  0.00  0.00    +0.000 A 
ATOM     10  C   UNL     1       4.423   6.659  16.328  0.00  0.00    +0.000 A 
ATOM     11  C   UNL     1       4.638   6.081  17.588  0.00  0.00    +0.000 A 
ATOM     12 CL   UNL     1       3.487   6.464  18.820  0.00  0.00    +0.000 Cl
ENDBRANCH   2   5
BRANCH   3  13
ATOM     13  N   UNL     1       4.651   2.807  18.774  0.00  0.00    +0.000 N 
ATOM     14  H   UNL     1       4.715   2.993  17.763  0.00  0.00    +0.000 HD
BRANCH  13  15
ATOM     15  C   UNL     1       3.316   2.945  19.213  0.00  0.00    +0.000 A 
ATOM     16  C   UNL     1       2.932   2.802  20.546  0.00  0.00    +0.000 A 
ATOM     17  C   UNL     1       1.579   2.866  20.900  0.00  0.00    +0.000 A 
ATOM     18  C   UNL     1       0.600   3.041  19.925  0.00  0.00    +0.000 A 
ATOM     19  C   UNL     1       0.959   3.134  18.587  0.00  0.00    +0.000 A 
ATOM     20  C   UNL     1       2.310   3.079  18.241  0.00  0.00    +0.000 A 
ATOM     21  F   UNL     1       2.649   3.159  16.945  0.00  0.00    +0.000 F 
ENDBRANCH  13  15
ENDBRANCH   3  13
TORSDOF 3
ENDMDL
MODEL 2
REMARK VINA RESULT:      -7.6      2.447      5.542
REMARK  Name = 
REMARK  3 active torsions:
REMARK  status: ('A' for Active; 'I' for Inactive)
REMARK    1  A    between atoms: C_2  and  C_12
REMARK    2  A    between atoms: N_3  and  N_4
REMARK    3  A    between atoms: N_4  and  C_5
REMARK                            x       y       z     vdW  Elec       q    Type
REMARK                         _______ _______ _______ _____ _____    ______ ____
ROOT
ATOM      1  O   UNL     1       3.828   1.346  17.707  0.00  0.00    +0.000 OA
ATOM      2  C   UNL     1       3.857   2.507  18.112  0.00  0.00    +0.000 C 
ATOM      3  N   UNL     1       4.723   3.422  17.530  0.00  0.00    +0.000 N 
ATOM      4  H   UNL     1       5.225   3.129  16.695  0.00  0.00    +0.000 HD
ENDROOT
BRANCH   2   5
ATOM      5  C   UNL     1       3.001   2.928  19.250  0.00  0.00    +0.000 A 
ATOM      6  C   UNL     1       3.359   2.599  20.563  0.00  0.00    +0.000 A 
ATOM      7  F   UNL     1       4.556   2.052  20.837  0.00  0.00    +0.000 F 
ATOM      8  C   UNL     1       2.501   2.822  21.635  0.00  0.00    +0.000 A 
ATOM      9  C   UNL     1       1.297   3.482  21.424  0.00  0.00    +0.000 A 
ATOM     10  C   UNL     1       0.972   3.922  20.142  0.00  0.00    +0.000 A 
ATOM     11  C   UNL     1       1.808   3.639  19.053  0.00  0.00    +0.000 A 
ATOM     12 CL   UNL     1       1.268   4.180  17.502  0.00  0.00    +0.000 Cl
ENDBRANCH   2   5
BRANCH   3  13
ATOM     13  N   UNL     1       4.608   4.788  17.783  0.00  0.00    +0.000 N 
ATOM     14  H   UNL     1       3.996   5.271  17.110  0.00  0.00    +0.000 HD
BRANCH  13  15
ATOM     15  C   UNL     1       5.806   5.515  17.962  0.00  0.00    +0.000 A 
ATOM     16  C   UNL     1       6.714   5.250  18.987  0.00  0.00    +0.000 A 
ATOM     17  C   UNL     1       7.839   6.064  19.160  0.00  0.00    +0.000 A 
ATOM     18  C   UNL     1       8.050   7.165  18.333  0.00  0.00    +0.000 A 
ATOM     19  C   UNL     1       7.129   7.475  17.340  0.00  0.00    +0.000 A 
ATOM     20  C   UNL     1       6.015   6.654  17.167  0.00  0.00    +0.000 A 
ATOM     21  F   UNL     1       5.124   6.966  16.212  0.00  0.00    +0.000 F 
ENDBRANCH  13  15
ENDBRANCH   3  13
TORSDOF 3
ENDMDL
MODEL 3
REMARK VINA RESULT:      -7.4      2.374      5.744
REMARK  Name = 
REMARK  3 active torsions:
REMARK  status: ('A' for Active; 'I' for Inactive)
REMARK    1  A    between atoms: C_2  and  C_12
REMARK    2  A    between atoms: N_3  and  N_4
REMARK    3  A    between atoms: N_4  and  C_5
REMARK                            x       y       z     vdW  Elec       q    Type
REMARK                         _______ _______ _______ _____ _____    ______ ____
ROOT
ATOM      1  O   UNL     1       3.654   2.244  17.245  0.00  0.00    +0.000 OA
ATOM      2  C   UNL     1       4.038   2.924  18.195  0.00  0.00    +0.000 C 
ATOM      3  N   UNL     1       5.331   3.426  18.209  0.00  0.00    +0.000 N 
ATOM      4  H   UNL     1       5.888   3.316  17.365  0.00  0.00    +0.000 HD
ENDROOT
BRANCH   2   5
ATOM      5  C   UNL     1       3.139   3.177  19.350  0.00  0.00    +0.000 A 
ATOM      6  C   UNL     1       3.385   2.561  20.584  0.00  0.00    +0.000 A 
ATOM      7  F   UNL     1       4.518   1.872  20.799  0.00  0.00    +0.000 F 
ATOM      8  C   UNL     1       2.475   2.635  21.633  0.00  0.00    +0.000 A 
ATOM      9  C   UNL     1       1.338   3.421  21.502  0.00  0.00    +0.000 A 
ATOM     10  C   UNL     1       1.131   4.136  20.323  0.00  0.00    +0.000 A 
ATOM     11  C   UNL     1       2.017   4.010  19.243  0.00  0.00    +0.000 A 
ATOM     12 CL   UNL     1       1.621   4.895  17.811  0.00  0.00    +0.000 Cl
ENDBRANCH   2   5
BRANCH   3  13
ATOM     13  N   UNL     1       5.719   4.398  19.131  0.00  0.00    +0.000 N 
ATOM     14  H   UNL     1       4.980   4.623  19.812  0.00  0.00    +0.000 HD
BRANCH  13  15
ATOM     15  C   UNL     1       6.289   5.584  18.618  0.00  0.00    +0.000 A 
ATOM     16  C   UNL     1       5.752   6.283  17.537  0.00  0.00    +0.000 A 
ATOM     17  C   UNL     1       6.414   7.404  17.023  0.00  0.00    +0.000 A 
ATOM     18  C   UNL     1       7.631   7.816  17.563  0.00  0.00    +0.000 A 
ATOM     19  C   UNL     1       8.207   7.101  18.605  0.00  0.00    +0.000 A 
ATOM     20  C   UNL     1       7.537   5.990  19.119  0.00  0.00    +0.000 A 
ATOM     21  F   UNL     1       8.105   5.298  20.119  0.00  0.00    +0.000 F 
ENDBRANCH  13  15
ENDBRANCH   3  13
TORSDOF 3
ENDMDL
MODEL 4
REMARK VINA RESULT:      -7.4      2.276      5.532
REMARK  Name = 
REMARK  3 active torsions:
REMARK  status: ('A' for Active; 'I' for Inactive)
REMARK    1  A    between atoms: C_2  and  C_12
REMARK    2  A    between atoms: N_3  and  N_4
REMARK    3  A    between atoms: N_4  and  C_5
REMARK                            x       y       z     vdW  Elec       q    Type
REMARK                         _______ _______ _______ _____ _____    ______ ____
ROOT
ATOM      1  O   UNL     1       0.985   4.235  17.049  0.00  0.00    +0.000 OA
ATOM      2  C   UNL     1       2.009   3.818  17.588  0.00  0.00    +0.000 C 
ATOM      3  N   UNL     1       3.080   3.400  16.811  0.00  0.00    +0.000 N 
ATOM      4  H   UNL     1       3.028   3.569  15.810  0.00  0.00    +0.000 HD
ENDROOT
BRANCH   2   5
ATOM      5  C   UNL     1       2.093   3.718  19.068  0.00  0.00    +0.000 A 
ATOM      6  C   UNL     1       1.872   2.491  19.706  0.00  0.00    +0.000 A 
ATOM      7  F   UNL     1       1.751   1.355  18.999  0.00  0.00    +0.000 F 
ATOM      8  C   UNL     1       1.771   2.394  21.090  0.00  0.00    +0.000 A 
ATOM      9  C   UNL     1       1.994   3.516  21.876  0.00  0.00    +0.000 A 
ATOM     10  C   UNL     1       2.330   4.724  21.266  0.00  0.00    +0.000 A 
ATOM     11  C   UNL     1       2.368   4.836  19.869  0.00  0.00    +0.000 A 
ATOM     12 CL   UNL     1       2.732   6.400  19.228  0.00  0.00    +0.000 Cl
ENDBRANCH   2   5
BRANCH   3  13
ATOM     13  N   UNL     1       4.333   3.163  17.374  0.00  0.00    +0.000 N 
ATOM     14  H   UNL     1       4.278   2.765  18.323  0.00  0.00    +0.000 HD
BRANCH  13  15
ATOM     15  C   UNL     1       5.266   4.223  17.342  0.00  0.00    +0.000 A 
ATOM     16  C   UNL     1       5.760   4.769  16.158  0.00  0.00    +0.000 A 
ATOM     17  C   UNL     1       6.749   5.759  16.197  0.00  0.00    +0.000 A 
ATOM     18  C   UNL     1       7.273   6.188  17.415  0.00  0.00    +0.000 A 
ATOM     19  C   UNL     1       6.830   5.619  18.602  0.00  0.00    +0.000 A 
ATOM     20  C   UNL     1       5.838   4.639  18.556  0.00  0.00    +0.000 A 
ATOM     21  F   UNL     1       5.423   4.086  19.707  0.00  0.00    +0.000 F 
ENDBRANCH  13  15
ENDBRANCH   3  13
TORSDOF 3
ENDMDL
MODEL 5
REMARK VINA RESULT:      -7.3      2.058      5.067
REMARK  Name = 
REMARK  3 active torsions:
REMARK  status: ('A' for Active; 'I' for Inactive)
REMARK    1  A    between atoms: C_2  and  C_12
REMARK    2  A    between atoms: N_3  and  N_4
REMARK    3  A    between atoms: N_4  and  C_5
REMARK                            x       y       z     vdW  Elec       q    Type
REMARK                         _______ _______ _______ _____ _____    ______ ____
ROOT
ATOM      1  O   UNL     1       5.159   1.647  20.744  0.00  0.00    +0.000 OA
ATOM      2  C   UNL     1       4.664   2.538  20.055  0.00  0.00    +0.000 C 
ATOM      3  N   UNL     1       5.437   3.623  19.668  0.00  0.00    +0.000 N 
ATOM      4  H   UNL     1       6.434   3.586  19.867  0.00  0.00    +0.000 HD
ENDROOT
BRANCH   2   5
ATOM      5  C   UNL     1       3.231   2.482  19.669  0.00  0.00    +0.000 A 
ATOM      6  C   UNL     1       2.846   1.859  18.475  0.00  0.00    +0.000 A 
ATOM      7  F   UNL     1       3.729   1.157  17.745  0.00  0.00    +0.000 F 
ATOM      8  C   UNL     1       1.542   1.938  17.996  0.00  0.00    +0.000 A 
ATOM      9  C   UNL     1       0.565   2.560  18.762  0.00  0.00    +0.000 A 
ATOM     10  C   UNL     1       0.903   3.086  20.008  0.00  0.00    +0.000 A 
ATOM     11  C   UNL     1       2.230   3.063  20.461  0.00  0.00    +0.000 A 
ATOM     12 CL   UNL     1       2.538   3.804  21.992  0.00  0.00    +0.000 Cl
ENDBRANCH   2   5
BRANCH   3  13
ATOM     13  N   UNL     1       4.995   4.514  18.690  0.00  0.00    +0.000 N 
ATOM     14  H   UNL     1       3.971   4.505  18.572  0.00  0.00    +0.000 HD
BRANCH  13  15
ATOM     15  C   UNL     1       5.632   4.459  17.431  0.00  0.00    +0.000 A 
ATOM     16  C   UNL     1       6.987   4.734  17.249  0.00  0.00    +0.000 A 
ATOM     17  C   UNL     1       7.537   4.747  15.961  0.00  0.00    +0.000 A 
ATOM     18  C   UNL     1       6.733   4.517  14.847  0.00  0.00    +0.000 A 
ATOM     19  C   UNL     1       5.372   4.293  15.005  0.00  0.00    +0.000 A 
ATOM     20  C   UNL     1       4.832   4.272  16.291  0.00  0.00    +0.000 A 
ATOM     21  F   UNL     1       3.513   4.066  16.436  0.00  0.00    +0.000 F 
ENDBRANCH  13  15
ENDBRANCH   3  13
TORSDOF 3
ENDMDL
MODEL 6
REMARK VINA RESULT:      -7.3      1.052      1.521
REMARK  Name = 
REMARK  3 active torsions:
REMARK  status: ('A' for Active; 'I' for Inactive)
REMARK    1  A    between atoms: C_2  and  C_12
REMARK    2  A    between atoms: N_3  and  N_4
REMARK    3  A    between atoms: N_4  and  C_5
REMARK                            x       y       z     vdW  Elec       q    Type
REMARK                         _______ _______ _______ _____ _____    ______ ____
ROOT
ATOM      1  O   UNL     1       6.626   5.197  19.942  0.00  0.00    +0.000 OA
ATOM      2  C   UNL     1       5.961   4.594  19.101  0.00  0.00    +0.000 C 
ATOM      3  N   UNL     1       5.555   3.289  19.345  0.00  0.00    +0.000 N 
ATOM      4  H   UNL     1       5.721   2.911  20.275  0.00  0.00    +0.000 HD
ENDROOT
BRANCH   2   5
ATOM      5  C   UNL     1       5.622   5.237  17.806  0.00  0.00    +0.000 A 
ATOM      6  C   UNL     1       6.409   4.999  16.673  0.00  0.00    +0.000 A 
ATOM      7  F   UNL     1       7.373   4.063  16.684  0.00  0.00    +0.000 F 
ATOM      8  C   UNL     1       6.229   5.714  15.493  0.00  0.00    +0.000 A 
ATOM      9  C   UNL     1       5.180   6.618  15.390  0.00  0.00    +0.000 A 
ATOM     10  C   UNL     1       4.312   6.785  16.469  0.00  0.00    +0.000 A 
ATOM     11  C   UNL     1       4.533   6.112  17.679  0.00  0.00    +0.000 A 
ATOM     12 CL   UNL     1       3.429   6.451  18.965  0.00  0.00    +0.000 Cl
ENDBRANCH   2   5
BRANCH   3  13
ATOM     13  N   UNL     1       4.600   2.667  18.543  0.00  0.00    +0.000 N 
ATOM     14  H   UNL     1       4.703   2.897  17.544  0.00  0.00    +0.000 HD
BRANCH  13  15
ATOM     15  C   UNL     1       3.249   2.788  18.935  0.00  0.00    +0.000 A 
ATOM     16  C   UNL     1       2.240   3.221  18.075  0.00  0.00    +0.000 A 
ATOM     17  C   UNL     1       0.936   3.402  18.552  0.00  0.00    +0.000 A 
ATOM     18  C   UNL     1       0.638   3.183  19.895  0.00  0.00    +0.000 A 
ATOM     19  C   UNL     1       1.640   2.801  20.777  0.00  0.00    +0.000 A 
ATOM     20  C   UNL     1       2.935   2.614  20.294  0.00  0.00    +0.000 A 
ATOM     21  F   UNL     1       3.901   2.255  21.154  0.00  0.00    +0.000 F 
ENDBRANCH  13  15
ENDBRANCH   3  13
TORSDOF 3
ENDMDL
MODEL 7
REMARK VINA RESULT:      -7.3      2.565      5.186
REMARK  Name = 
REMARK  3 active torsions:
REMARK  status: ('A' for Active; 'I' for Inactive)
REMARK    1  A    between atoms: C_2  and  C_12
REMARK    2  A    between atoms: N_3  and  N_4
REMARK    3  A    between atoms: N_4  and  C_5
REMARK                            x       y       z     vdW  Elec       q    Type
REMARK                         _______ _______ _______ _____ _____    ______ ____
ROOT
ATOM      1  O   UNL     1       2.204   2.426  17.379  0.00  0.00    +0.000 OA
ATOM      2  C   UNL     1       2.995   3.034  18.097  0.00  0.00    +0.000 C 
ATOM      3  N   UNL     1       4.303   2.588  18.219  0.00  0.00    +0.000 N 
ATOM      4  H   UNL     1       4.602   1.832  17.608  0.00  0.00    +0.000 HD
ENDROOT
BRANCH   2   5
ATOM      5  C   UNL     1       2.550   4.223  18.869  0.00  0.00    +0.000 A 
ATOM      6  C   UNL     1       2.750   5.511  18.358  0.00  0.00    +0.000 A 
ATOM      7  F   UNL     1       3.186   5.698  17.101  0.00  0.00    +0.000 F 
ATOM      8  C   UNL     1       2.506   6.648  19.123  0.00  0.00    +0.000 A 
ATOM      9  C   UNL     1       1.954   6.517  20.390  0.00  0.00    +0.000 A 
ATOM     10  C   UNL     1       1.639   5.248  20.873  0.00  0.00    +0.000 A 
ATOM     11  C   UNL     1       1.944   4.100  20.127  0.00  0.00    +0.000 A 
ATOM     12 CL   UNL     1       1.566   2.580  20.858  0.00  0.00    +0.000 Cl
ENDBRANCH   2   5
BRANCH   3  13
ATOM     13  N   UNL     1       5.285   3.381  18.811  0.00  0.00    +0.000 N 
ATOM     14  H   UNL     1       4.978   3.806  19.698  0.00  0.00    +0.000 HD
BRANCH  13  15
ATOM     15  C   UNL     1       5.911   4.350  17.997  0.00  0.00    +0.000 A 
ATOM     16  C   UNL     1       6.067   4.203  16.619  0.00  0.00    +0.000 A 
ATOM     17  C   UNL     1       6.774   5.162  15.883  0.00  0.00    +0.000 A 
ATOM     18  C   UNL     1       7.357   6.255  16.521  0.00  0.00    +0.000 A 
ATOM     19  C   UNL     1       7.256   6.390  17.900  0.00  0.00    +0.000 A 
ATOM     20  C   UNL     1       6.542   5.436  18.626  0.00  0.00    +0.000 A 
ATOM     21  F   UNL     1       6.459   5.568  19.959  0.00  0.00    +0.000 F 
ENDBRANCH  13  15
ENDBRANCH   3  13
TORSDOF 3
ENDMDL
MODEL 8
REMARK VINA RESULT:      -7.2      2.504      5.000
REMARK  Name = 
REMARK  3 active torsions:
REMARK  status: ('A' for Active; 'I' for Inactive)
REMARK    1  A    between atoms: C_2  and  C_12
REMARK    2  A    between atoms: N_3  and  N_4
REMARK    3  A    between atoms: N_4  and  C_5
REMARK                            x       y       z     vdW  Elec       q    Type
REMARK                         _______ _______ _______ _____ _____    ______ ____
ROOT
ATOM      1  O   UNL     1       2.268   3.055  16.753  0.00  0.00    +0.000 OA
ATOM      2  C   UNL     1       2.998   3.408  17.678  0.00  0.00    +0.000 C 
ATOM      3  N   UNL     1       4.242   2.816  17.844  0.00  0.00    +0.000 N 
ATOM      4  H   UNL     1       4.565   2.187  17.112  0.00  0.00    +0.000 HD
ENDROOT
BRANCH   2   5
ATOM      5  C   UNL     1       2.539   4.435  18.648  0.00  0.00    +0.000 A 
ATOM      6  C   UNL     1       2.818   5.790  18.426  0.00  0.00    +0.000 A 
ATOM      7  F   UNL     1       3.349   6.205  17.264  0.00  0.00    +0.000 F 
ATOM      8  C   UNL     1       2.559   6.758  19.391  0.00  0.00    +0.000 A 
ATOM      9  C   UNL     1       1.914   6.401  20.567  0.00  0.00    +0.000 A 
ATOM     10  C   UNL     1       1.522   5.076  20.759  0.00  0.00    +0.000 A 
ATOM     11  C   UNL     1       1.841   4.090  19.814  0.00  0.00    +0.000 A 
ATOM     12 CL   UNL     1       1.361   2.473  20.192  0.00  0.00    +0.000 Cl
ENDBRANCH   2   5
BRANCH   3  13
ATOM     13  N   UNL     1       5.189   3.356  18.713  0.00  0.00    +0.000 N 
ATOM     14  H   UNL     1       4.792   3.620  19.626  0.00  0.00    +0.000 HD
BRANCH  13  15
ATOM     15  C   UNL     1       6.004   4.396  18.214  0.00  0.00    +0.000 A 
ATOM     16  C   UNL     1       6.449   5.459  18.999  0.00  0.00    +0.000 A 
ATOM     17  C   UNL     1       7.182   6.503  18.421  0.00  0.00    +0.000 A 
ATOM     18  C   UNL     1       7.449   6.508  17.054  0.00  0.00    +0.000 A 
ATOM     19  C   UNL     1       6.969   5.483  16.248  0.00  0.00    +0.000 A 
ATOM     20  C   UNL     1       6.247   4.442  16.831  0.00  0.00    +0.000 A 
ATOM     21  F   UNL     1       5.779   3.461  16.044  0.00  0.00    +0.000 F 
ENDBRANCH  13  15
ENDBRANCH   3  13
TORSDOF 3
ENDMDL
MODEL 9
REMARK VINA RESULT:      -7.2      1.817      2.250
REMARK  Name = 
REMARK  3 active torsions:
REMARK  status: ('A' for Active; 'I' for Inactive)
REMARK    1  A    between atoms: C_2  and  C_12
REMARK    2  A    between atoms: N_3  and  N_4
REMARK    3  A    between atoms: N_4  and  C_5
REMARK                            x       y       z     vdW  Elec       q    Type
REMARK                         _______ _______ _______ _____ _____    ______ ____
ROOT
ATOM      1  O   UNL     1       6.852   5.149  19.862  0.00  0.00    +0.000 OA
ATOM      2  C   UNL     1       5.929   4.767  19.144  0.00  0.00    +0.000 C 
ATOM      3  N   UNL     1       5.671   3.410  19.011  0.00  0.00    +0.000 N 
ATOM      4  H   UNL     1       6.184   2.772  19.616  0.00  0.00    +0.000 HD
ENDROOT
BRANCH   2   5
ATOM      5  C   UNL     1       5.112   5.747  18.383  0.00  0.00    +0.000 A 
ATOM      6  C   UNL     1       3.922   6.246  18.926  0.00  0.00    +0.000 A 
ATOM      7  F   UNL     1       3.581   5.989  20.200  0.00  0.00    +0.000 F 
ATOM      8  C   UNL     1       3.047   7.027  18.178  0.00  0.00    +0.000 A 
ATOM      9  C   UNL     1       3.399   7.412  16.891  0.00  0.00    +0.000 A 
ATOM     10  C   UNL     1       4.633   7.022  16.372  0.00  0.00    +0.000 A 
ATOM     11  C   UNL     1       5.485   6.182  17.103  0.00  0.00    +0.000 A 
ATOM     12 CL   UNL     1       6.958   5.713  16.330  0.00  0.00    +0.000 Cl
ENDBRANCH   2   5
BRANCH   3  13
ATOM     13  N   UNL     1       4.495   2.952  18.420  0.00  0.00    +0.000 N 
ATOM     14  H   UNL     1       4.326   3.363  17.491  0.00  0.00    +0.000 HD
BRANCH  13  15
ATOM     15  C   UNL     1       3.318   3.003  19.199  0.00  0.00    +0.000 A 
ATOM     16  C   UNL     1       3.281   2.659  20.550  0.00  0.00    +0.000 A 
ATOM     17  C   UNL     1       2.063   2.650  21.242  0.00  0.00    +0.000 A 
ATOM     18  C   UNL     1       0.873   2.952  20.583  0.00  0.00    +0.000 A 
ATOM     19  C   UNL     1       0.885   3.246  19.226  0.00  0.00    +0.000 A 
ATOM     20  C   UNL     1       2.102   3.263  18.545  0.00  0.00    +0.000 A 
ATOM     21  F   UNL     1       2.103   3.538  17.231  0.00  0.00    +0.000 F 
ENDBRANCH  13  15
ENDBRANCH   3  13
TORSDOF 3
ENDMDL
