MODEL 1
REMARK VINA RESULT:      -8.1      0.000      0.000
REMARK  Name = 
REMARK  4 active torsions:
REMARK  status: ('A' for Active; 'I' for Inactive)
REMARK    1  A    between atoms: C_2  and  C_5
REMARK    2  A    between atoms: C_6  and  C_7
REMARK    3  A    between atoms: C_7  and  C_8
REMARK    4  A    between atoms: C_8  and  C_9
REMARK                            x       y       z     vdW  Elec       q    Type
REMARK                         _______ _______ _______ _____ _____    ______ ____
ROOT
ATOM      1  C   UNL     1       3.574   5.800  17.603  0.00  0.00    +0.000 A 
ATOM      2  C   UNL     1       3.994   4.608  16.978  0.00  0.00    +0.000 A 
ATOM      3  N   UNL     1       3.520   3.575  17.754  0.00  0.00    +0.000 N 
ATOM      4  C   UNL     1       2.747   4.061  18.782  0.00  0.00    +0.000 A 
ATOM      5  C   UNL     1       2.086   3.304  19.755  0.00  0.00    +0.000 A 
ATOM      6  C   UNL     1       1.350   4.014  20.708  0.00  0.00    +0.000 A 
ATOM      7  C   UNL     1       1.324   5.409  20.686  0.00  0.00    +0.000 A 
ATOM      8  C   UNL     1       2.024   6.136  19.708  0.00  0.00    +0.000 A 
ATOM      9  C   UNL     1       2.752   5.440  18.724  0.00  0.00    +0.000 A 
ATOM     10  C   UNL     1       2.172   1.808  19.692  0.00  0.00    +0.000 C 
ATOM     11  C   UNL     1       3.472   1.394  18.979  0.00  0.00    +0.000 C 
ATOM     12  C   UNL     1       3.698   2.132  17.645  0.00  0.00    +0.000 C 
ENDROOT
BRANCH   1  14
ATOM     13  F   UNL     1       2.812   8.048  17.295  0.00  0.00    +0.000 F 
ATOM     14  C   UNL     1       3.887   7.220  17.241  0.00  0.00    +0.000 C 
ATOM     15  F   UNL     1       4.376   7.317  15.975  0.00  0.00    +0.000 F 
ATOM     16  F   UNL     1       4.830   7.755  18.062  0.00  0.00    +0.000 F 
ENDBRANCH   1  14
BRANCH   2  17
ATOM     17  C   UNL     1       4.873   4.466  15.753  0.00  0.00    +0.000 C 
BRANCH  17  18
ATOM     18  C   UNL     1       6.356   4.173  15.991  0.00  0.00    +0.000 C 
BRANCH  18  19
ATOM     19  C   UNL     1       6.978   5.165  16.947  0.00  0.00    +0.000 A 
ATOM     20  C   UNL     1       7.269   6.471  16.524  0.00  0.00    +0.000 A 
ATOM     21  C   UNL     1       7.835   7.391  17.404  0.00  0.00    +0.000 A 
ATOM     22  C   UNL     1       8.116   7.016  18.714  0.00  0.00    +0.000 A 
ATOM     23  C   UNL     1       7.840   5.720  19.148  0.00  0.00    +0.000 A 
ATOM     24  C   UNL     1       7.277   4.793  18.263  0.00  0.00    +0.000 A 
ENDBRANCH  18  19
ENDBRANCH  17  18
ENDBRANCH   2  17
TORSDOF 4
ENDMDL
MODEL 2
REMARK VINA RESULT:      -7.8      1.781      2.967
REMARK  Name = 
REMARK  4 active torsions:
REMARK  status: ('A' for Active; 'I' for Inactive)
REMARK    1  A    between atoms: C_2  and  C_5
REMARK    2  A    between atoms: C_6  and  C_7
REMARK    3  A    between atoms: C_7  and  C_8
REMARK    4  A    between atoms: C_8  and  C_9
REMARK                            x       y       z     vdW  Elec       q    Type
REMARK                         _______ _______ _______ _____ _____    ______ ____
ROOT
ATOM      1  C   UNL     1       3.844   5.701  17.534  0.00  0.00    +0.000 A 
ATOM      2  C   UNL     1       3.770   4.375  17.060  0.00  0.00    +0.000 A 
ATOM      3  N   UNL     1       2.952   3.696  17.935  0.00  0.00    +0.000 N 
ATOM      4  C   UNL     1       2.439   4.554  18.878  0.00  0.00    +0.000 A 
ATOM      5  C   UNL     1       1.556   4.223  19.912  0.00  0.00    +0.000 A 
ATOM      6  C   UNL     1       1.161   5.264  20.757  0.00  0.00    +0.000 A 
ATOM      7  C   UNL     1       1.668   6.552  20.576  0.00  0.00    +0.000 A 
ATOM      8  C   UNL     1       2.574   6.841  19.543  0.00  0.00    +0.000 A 
ATOM      9  C   UNL     1       2.967   5.812  18.664  0.00  0.00    +0.000 A 
ATOM     10  C   UNL     1       1.066   2.809  20.021  0.00  0.00    +0.000 C 
ATOM     11  C   UNL     1       2.099   1.853  19.397  0.00  0.00    +0.000 C 
ATOM     12  C   UNL     1       2.566   2.291  17.995  0.00  0.00    +0.000 C 
ENDROOT
BRANCH   1  14
ATOM     13  F   UNL     1       4.782   6.872  15.670  0.00  0.00    +0.000 F 
ATOM     14  C   UNL     1       4.668   6.843  17.023  0.00  0.00    +0.000 C 
ATOM     15  F   UNL     1       5.938   6.802  17.509  0.00  0.00    +0.000 F 
ATOM     16  F   UNL     1       4.150   8.045  17.393  0.00  0.00    +0.000 F 
ENDBRANCH   1  14
BRANCH   2  17
ATOM     17  C   UNL     1       4.508   3.769  15.884  0.00  0.00    +0.000 C 
BRANCH  17  18
ATOM     18  C   UNL     1       6.024   3.968  15.837  0.00  0.00    +0.000 C 
BRANCH  18  19
ATOM     19  C   UNL     1       6.517   4.198  14.426  0.00  0.00    +0.000 A 
ATOM     20  C   UNL     1       6.018   3.425  13.368  0.00  0.00    +0.000 A 
ATOM     21  C   UNL     1       6.463   3.638  12.064  0.00  0.00    +0.000 A 
ATOM     22  C   UNL     1       7.412   4.623  11.807  0.00  0.00    +0.000 A 
ATOM     23  C   UNL     1       7.923   5.394  12.851  0.00  0.00    +0.000 A 
ATOM     24  C   UNL     1       7.481   5.177  14.160  0.00  0.00    +0.000 A 
ENDBRANCH  18  19
ENDBRANCH  17  18
ENDBRANCH   2  17
TORSDOF 4
ENDMDL
MODEL 3
REMARK VINA RESULT:      -7.8      1.784      2.975
REMARK  Name = 
REMARK  4 active torsions:
REMARK  status: ('A' for Active; 'I' for Inactive)
REMARK    1  A    between atoms: C_2  and  C_5
REMARK    2  A    between atoms: C_6  and  C_7
REMARK    3  A    between atoms: C_7  and  C_8
REMARK    4  A    between atoms: C_8  and  C_9
REMARK                            x       y       z     vdW  Elec       q    Type
REMARK                         _______ _______ _______ _____ _____    ______ ____
ROOT
ATOM      1  C   UNL     1       3.836   5.705  17.533  0.00  0.00    +0.000 A 
ATOM      2  C   UNL     1       3.743   4.383  17.050  0.00  0.00    +0.000 A 
ATOM      3  N   UNL     1       2.914   3.710  17.919  0.00  0.00    +0.000 N 
ATOM      4  C   UNL     1       2.412   4.569  18.867  0.00  0.00    +0.000 A 
ATOM      5  C   UNL     1       1.523   4.244  19.897  0.00  0.00    +0.000 A 
ATOM      6  C   UNL     1       1.141   5.284  20.749  0.00  0.00    +0.000 A 
ATOM      7  C   UNL     1       1.667   6.566  20.578  0.00  0.00    +0.000 A 
ATOM      8  C   UNL     1       2.579   6.849  19.548  0.00  0.00    +0.000 A 
ATOM      9  C   UNL     1       2.958   5.820  18.663  0.00  0.00    +0.000 A 
ATOM     10  C   UNL     1       1.012   2.837  19.996  0.00  0.00    +0.000 C 
ATOM     11  C   UNL     1       2.031   1.870  19.366  0.00  0.00    +0.000 C 
ATOM     12  C   UNL     1       2.507   2.311  17.968  0.00  0.00    +0.000 C 
ENDROOT
BRANCH   1  14
ATOM     13  F   UNL     1       5.961   6.803  17.472  0.00  0.00    +0.000 F 
ATOM     14  C   UNL     1       4.677   6.838  17.031  0.00  0.00    +0.000 C 
ATOM     15  F   UNL     1       4.177   8.043  17.419  0.00  0.00    +0.000 F 
ATOM     16  F   UNL     1       4.734   6.863  15.673  0.00  0.00    +0.000 F 
ENDBRANCH   1  14
BRANCH   2  17
ATOM     17  C   UNL     1       4.474   3.775  15.871  0.00  0.00    +0.000 C 
BRANCH  17  18
ATOM     18  C   UNL     1       5.993   3.951  15.829  0.00  0.00    +0.000 C 
BRANCH  18  19
ATOM     19  C   UNL     1       6.492   4.188  14.421  0.00  0.00    +0.000 A 
ATOM     20  C   UNL     1       7.467   5.166  14.171  0.00  0.00    +0.000 A 
ATOM     21  C   UNL     1       7.937   5.383  12.876  0.00  0.00    +0.000 A 
ATOM     22  C   UNL     1       7.437   4.626  11.821  0.00  0.00    +0.000 A 
ATOM     23  C   UNL     1       6.462   3.656  12.054  0.00  0.00    +0.000 A 
ATOM     24  C   UNL     1       5.986   3.442  13.352  0.00  0.00    +0.000 A 
ENDBRANCH  18  19
ENDBRANCH  17  18
ENDBRANCH   2  17
TORSDOF 4
ENDMDL
MODEL 4
REMARK VINA RESULT:      -7.8      2.298      3.513
REMARK  Name = 
REMARK  4 active torsions:
REMARK  status: ('A' for Active; 'I' for Inactive)
REMARK    1  A    between atoms: C_2  and  C_5
REMARK    2  A    between atoms: C_6  and  C_7
REMARK    3  A    between atoms: C_7  and  C_8
REMARK    4  A    between atoms: C_8  and  C_9
REMARK                            x       y       z     vdW  Elec       q    Type
REMARK                         _______ _______ _______ _____ _____    ______ ____
ROOT
ATOM      1  C   UNL     1       3.499   3.605  17.963  0.00  0.00    +0.000 A 
ATOM      2  C   UNL     1       4.047   4.634  17.169  0.00  0.00    +0.000 A 
ATOM      3  N   UNL     1       3.570   5.817  17.685  0.00  0.00    +0.000 N 
ATOM      4  C   UNL     1       2.825   5.583  18.817  0.00  0.00    +0.000 A 
ATOM      5  C   UNL     1       2.202   6.547  19.617  0.00  0.00    +0.000 A 
ATOM      6  C   UNL     1       1.496   6.078  20.728  0.00  0.00    +0.000 A 
ATOM      7  C   UNL     1       1.402   4.708  20.980  0.00  0.00    +0.000 A 
ATOM      8  C   UNL     1       2.019   3.768  20.138  0.00  0.00    +0.000 A 
ATOM      9  C   UNL     1       2.757   4.220  19.026  0.00  0.00    +0.000 A 
ATOM     10  C   UNL     1       2.363   7.996  19.264  0.00  0.00    +0.000 C 
ATOM     11  C   UNL     1       2.629   8.135  17.754  0.00  0.00    +0.000 C 
ATOM     12  C   UNL     1       3.739   7.196  17.241  0.00  0.00    +0.000 C 
ENDROOT
BRANCH   1  14
ATOM     13  F   UNL     1       4.505   1.743  16.847  0.00  0.00    +0.000 F 
ATOM     14  C   UNL     1       3.608   2.120  17.794  0.00  0.00    +0.000 C 
ATOM     15  F   UNL     1       2.419   1.569  17.430  0.00  0.00    +0.000 F 
ATOM     16  F   UNL     1       3.982   1.506  18.948  0.00  0.00    +0.000 F 
ENDBRANCH   1  14
BRANCH   2  17
ATOM     17  C   UNL     1       4.912   4.490  15.934  0.00  0.00    +0.000 C 
BRANCH  17  18
ATOM     18  C   UNL     1       6.402   4.221  16.155  0.00  0.00    +0.000 C 
BRANCH  18  19
ATOM     19  C   UNL     1       7.025   5.241  17.081  0.00  0.00    +0.000 A 
ATOM     20  C   UNL     1       7.129   6.584  16.688  0.00  0.00    +0.000 A 
ATOM     21  C   UNL     1       7.696   7.530  17.542  0.00  0.00    +0.000 A 
ATOM     22  C   UNL     1       8.164   7.142  18.793  0.00  0.00    +0.000 A 
ATOM     23  C   UNL     1       8.075   5.810  19.194  0.00  0.00    +0.000 A 
ATOM     24  C   UNL     1       7.512   4.859  18.336  0.00  0.00    +0.000 A 
ENDBRANCH  18  19
ENDBRANCH  17  18
ENDBRANCH   2  17
TORSDOF 4
ENDMDL
MODEL 5
REMARK VINA RESULT:      -7.5      1.884      2.976
REMARK  Name = 
REMARK  4 active torsions:
REMARK  status: ('A' for Active; 'I' for Inactive)
REMARK    1  A    between atoms: C_2  and  C_5
REMARK    2  A    between atoms: C_6  and  C_7
REMARK    3  A    between atoms: C_7  and  C_8
REMARK    4  A    between atoms: C_8  and  C_9
REMARK                            x       y       z     vdW  Elec       q    Type
REMARK                         _______ _______ _______ _____ _____    ______ ____
ROOT
ATOM      1  C   UNL     1       4.331   5.814  17.775  0.00  0.00    +0.000 A 
ATOM      2  C   UNL     1       4.845   4.503  17.704  0.00  0.00    +0.000 A 
ATOM      3  N   UNL     1       4.273   3.805  18.744  0.00  0.00    +0.000 N 
ATOM      4  C   UNL     1       3.357   4.590  19.403  0.00  0.00    +0.000 A 
ATOM      5  C   UNL     1       2.568   4.211  20.495  0.00  0.00    +0.000 A 
ATOM      6  C   UNL     1       1.698   5.177  21.006  0.00  0.00    +0.000 A 
ATOM      7  C   UNL     1       1.666   6.461  20.458  0.00  0.00    +0.000 A 
ATOM      8  C   UNL     1       2.493   6.813  19.378  0.00  0.00    +0.000 A 
ATOM      9  C   UNL     1       3.360   5.847  18.832  0.00  0.00    +0.000 A 
ATOM     10  C   UNL     1       2.674   2.806  21.011  0.00  0.00    +0.000 C 
ATOM     11  C   UNL     1       4.065   2.236  20.681  0.00  0.00    +0.000 C 
ATOM     12  C   UNL     1       4.475   2.438  19.209  0.00  0.00    +0.000 C 
ENDROOT
BRANCH   1  14
ATOM     13  F   UNL     1       4.754   6.759  15.618  0.00  0.00    +0.000 F 
ATOM     14  C   UNL     1       4.682   7.014  16.949  0.00  0.00    +0.000 C 
ATOM     15  F   UNL     1       5.892   7.527  17.302  0.00  0.00    +0.000 F 
ATOM     16  F   UNL     1       3.777   8.017  17.103  0.00  0.00    +0.000 F 
ENDBRANCH   1  14
BRANCH   2  17
ATOM     17  C   UNL     1       5.891   3.969  16.748  0.00  0.00    +0.000 C 
BRANCH  17  18
ATOM     18  C   UNL     1       5.394   3.411  15.413  0.00  0.00    +0.000 C 
BRANCH  18  19
ATOM     19  C   UNL     1       6.192   3.949  14.247  0.00  0.00    +0.000 A 
ATOM     20  C   UNL     1       7.120   4.982  14.440  0.00  0.00    +0.000 A 
ATOM     21  C   UNL     1       7.865   5.475  13.369  0.00  0.00    +0.000 A 
ATOM     22  C   UNL     1       7.686   4.942  12.097  0.00  0.00    +0.000 A 
ATOM     23  C   UNL     1       6.761   3.920  11.887  0.00  0.00    +0.000 A 
ATOM     24  C   UNL     1       6.010   3.428  12.960  0.00  0.00    +0.000 A 
ENDBRANCH  18  19
ENDBRANCH  17  18
ENDBRANCH   2  17
TORSDOF 4
ENDMDL
MODEL 6
REMARK VINA RESULT:      -7.5      1.864      2.994
REMARK  Name = 
REMARK  4 active torsions:
REMARK  status: ('A' for Active; 'I' for Inactive)
REMARK    1  A    between atoms: C_2  and  C_5
REMARK    2  A    between atoms: C_6  and  C_7
REMARK    3  A    between atoms: C_7  and  C_8
REMARK    4  A    between atoms: C_8  and  C_9
REMARK                            x       y       z     vdW  Elec       q    Type
REMARK                         _______ _______ _______ _____ _____    ______ ____
ROOT
ATOM      1  C   UNL     1       4.339   5.848  17.838  0.00  0.00    +0.000 A 
ATOM      2  C   UNL     1       4.827   4.527  17.757  0.00  0.00    +0.000 A 
ATOM      3  N   UNL     1       4.223   3.827  18.777  0.00  0.00    +0.000 N 
ATOM      4  C   UNL     1       3.313   4.621  19.432  0.00  0.00    +0.000 A 
ATOM      5  C   UNL     1       2.499   4.242  20.505  0.00  0.00    +0.000 A 
ATOM      6  C   UNL     1       1.641   5.219  21.017  0.00  0.00    +0.000 A 
ATOM      7  C   UNL     1       1.645   6.511  20.488  0.00  0.00    +0.000 A 
ATOM      8  C   UNL     1       2.496   6.862  19.427  0.00  0.00    +0.000 A 
ATOM      9  C   UNL     1       3.352   5.885  18.880  0.00  0.00    +0.000 A 
ATOM     10  C   UNL     1       2.566   2.829  21.002  0.00  0.00    +0.000 C 
ATOM     11  C   UNL     1       3.950   2.234  20.687  0.00  0.00    +0.000 C 
ATOM     12  C   UNL     1       4.389   2.449  19.225  0.00  0.00    +0.000 C 
ENDROOT
BRANCH   1  14
ATOM     13  F   UNL     1       5.995   7.481  17.279  0.00  0.00    +0.000 F 
ATOM     14  C   UNL     1       4.730   7.051  17.037  0.00  0.00    +0.000 C 
ATOM     15  F   UNL     1       3.914   8.110  17.294  0.00  0.00    +0.000 F 
ATOM     16  F   UNL     1       4.649   6.817  15.700  0.00  0.00    +0.000 F 
ENDBRANCH   1  14
BRANCH   2  17
ATOM     17  C   UNL     1       5.877   3.985  16.810  0.00  0.00    +0.000 C 
BRANCH  17  18
ATOM     18  C   UNL     1       5.386   3.416  15.477  0.00  0.00    +0.000 C 
BRANCH  18  19
ATOM     19  C   UNL     1       6.184   3.950  14.309  0.00  0.00    +0.000 A 
ATOM     20  C   UNL     1       5.978   3.439  13.019  0.00  0.00    +0.000 A 
ATOM     21  C   UNL     1       6.706   3.934  11.937  0.00  0.00    +0.000 A 
ATOM     22  C   UNL     1       7.645   4.941  12.136  0.00  0.00    +0.000 A 
ATOM     23  C   UNL     1       7.866   5.453  13.414  0.00  0.00    +0.000 A 
ATOM     24  C   UNL     1       7.140   4.953  14.501  0.00  0.00    +0.000 A 
ENDBRANCH  18  19
ENDBRANCH  17  18
ENDBRANCH   2  17
TORSDOF 4
ENDMDL
MODEL 7
REMARK VINA RESULT:      -7.4      3.012      5.991
REMARK  Name = 
REMARK  4 active torsions:
REMARK  status: ('A' for Active; 'I' for Inactive)
REMARK    1  A    between atoms: C_2  and  C_5
REMARK    2  A    between atoms: C_6  and  C_7
REMARK    3  A    between atoms: C_7  and  C_8
REMARK    4  A    between atoms: C_8  and  C_9
REMARK                            x       y       z     vdW  Elec       q    Type
REMARK                         _______ _______ _______ _____ _____    ______ ____
ROOT
ATOM      1  C   UNL     1       2.332   7.395  19.155  0.00  0.00    +0.000 A 
ATOM      2  C   UNL     1       1.728   6.958  20.352  0.00  0.00    +0.000 A 
ATOM      3  N   UNL     1       1.047   8.041  20.861  0.00  0.00    +0.000 N 
ATOM      4  C   UNL     1       1.119   9.106  19.995  0.00  0.00    +0.000 A 
ATOM      5  C   UNL     1       0.531  10.362  20.170  0.00  0.00    +0.000 A 
ATOM      6  C   UNL     1       0.735  11.298  19.152  0.00  0.00    +0.000 A 
ATOM      7  C   UNL     1       1.523  10.978  18.045  0.00  0.00    +0.000 A 
ATOM      8  C   UNL     1       2.121   9.713  17.917  0.00  0.00    +0.000 A 
ATOM      9  C   UNL     1       1.908   8.747  18.920  0.00  0.00    +0.000 A 
ATOM     10  C   UNL     1      -0.301  10.609  21.394  0.00  0.00    +0.000 C 
ATOM     11  C   UNL     1       0.164   9.682  22.531  0.00  0.00    +0.000 C 
ATOM     12  C   UNL     1       0.297   8.208  22.101  0.00  0.00    +0.000 C 
ENDROOT
BRANCH   1  14
ATOM     13  F   UNL     1       3.905   7.462  17.354  0.00  0.00    +0.000 F 
ATOM     14  C   UNL     1       3.264   6.660  18.243  0.00  0.00    +0.000 C 
ATOM     15  F   UNL     1       2.608   5.725  17.503  0.00  0.00    +0.000 F 
ATOM     16  F   UNL     1       4.230   5.998  18.934  0.00  0.00    +0.000 F 
ENDBRANCH   1  14
BRANCH   2  17
ATOM     17  C   UNL     1       1.864   5.604  21.017  0.00  0.00    +0.000 C 
BRANCH  17  18
ATOM     18  C   UNL     1       1.053   4.452  20.421  0.00  0.00    +0.000 C 
BRANCH  18  19
ATOM     19  C   UNL     1       1.932   3.472  19.677  0.00  0.00    +0.000 A 
ATOM     20  C   UNL     1       1.502   2.917  18.461  0.00  0.00    +0.000 A 
ATOM     21  C   UNL     1       2.313   2.020  17.767  0.00  0.00    +0.000 A 
ATOM     22  C   UNL     1       3.557   1.668  18.281  0.00  0.00    +0.000 A 
ATOM     23  C   UNL     1       3.994   2.205  19.492  0.00  0.00    +0.000 A 
ATOM     24  C   UNL     1       3.179   3.101  20.192  0.00  0.00    +0.000 A 
ENDBRANCH  18  19
ENDBRANCH  17  18
ENDBRANCH   2  17
TORSDOF 4
ENDMDL
MODEL 8
REMARK VINA RESULT:      -7.4      2.968      6.020
REMARK  Name = 
REMARK  4 active torsions:
REMARK  status: ('A' for Active; 'I' for Inactive)
REMARK    1  A    between atoms: C_2  and  C_5
REMARK    2  A    between atoms: C_6  and  C_7
REMARK    3  A    between atoms: C_7  and  C_8
REMARK    4  A    between atoms: C_8  and  C_9
REMARK                            x       y       z     vdW  Elec       q    Type
REMARK                         _______ _______ _______ _____ _____    ______ ____
ROOT
ATOM      1  C   UNL     1       2.384   7.317  19.149  0.00  0.00    +0.000 A 
ATOM      2  C   UNL     1       1.755   6.894  20.338  0.00  0.00    +0.000 A 
ATOM      3  N   UNL     1       1.057   7.981  20.815  0.00  0.00    +0.000 N 
ATOM      4  C   UNL     1       1.144   9.032  19.935  0.00  0.00    +0.000 A 
ATOM      5  C   UNL     1       0.544  10.288  20.077  0.00  0.00    +0.000 A 
ATOM      6  C   UNL     1       0.766  11.209  19.050  0.00  0.00    +0.000 A 
ATOM      7  C   UNL     1       1.582  10.877  17.966  0.00  0.00    +0.000 A 
ATOM      8  C   UNL     1       2.189   9.614  17.871  0.00  0.00    +0.000 A 
ATOM      9  C   UNL     1       1.958   8.662  18.883  0.00  0.00    +0.000 A 
ATOM     10  C   UNL     1      -0.316  10.548  21.278  0.00  0.00    +0.000 C 
ATOM     11  C   UNL     1       0.127   9.641  22.439  0.00  0.00    +0.000 C 
ATOM     12  C   UNL     1       0.279   8.162  22.035  0.00  0.00    +0.000 C 
ENDROOT
BRANCH   1  14
ATOM     13  F   UNL     1       4.286   5.879  18.954  0.00  0.00    +0.000 F 
ATOM     14  C   UNL     1       3.341   6.573  18.269  0.00  0.00    +0.000 C 
ATOM     15  F   UNL     1       4.017   7.414  17.440  0.00  0.00    +0.000 F 
ATOM     16  F   UNL     1       2.703   5.675  17.473  0.00  0.00    +0.000 F 
ENDBRANCH   1  14
BRANCH   2  17
ATOM     17  C   UNL     1       1.884   5.551  21.027  0.00  0.00    +0.000 C 
BRANCH  17  18
ATOM     18  C   UNL     1       1.076   4.391  20.444  0.00  0.00    +0.000 C 
BRANCH  18  19
ATOM     19  C   UNL     1       1.949   3.430  19.669  0.00  0.00    +0.000 A 
ATOM     20  C   UNL     1       3.187   3.023  20.188  0.00  0.00    +0.000 A 
ATOM     21  C   UNL     1       3.993   2.130  19.482  0.00  0.00    +0.000 A 
ATOM     22  C   UNL     1       3.569   1.639  18.251  0.00  0.00    +0.000 A 
ATOM     23  C   UNL     1       2.344   2.040  17.719  0.00  0.00    +0.000 A 
ATOM     24  C   UNL     1       1.538   2.940  18.424  0.00  0.00    +0.000 A 
ENDBRANCH  18  19
ENDBRANCH  17  18
ENDBRANCH   2  17
TORSDOF 4
ENDMDL
MODEL 9
REMARK VINA RESULT:      -7.4      3.241      5.995
REMARK  Name = 
REMARK  4 active torsions:
REMARK  status: ('A' for Active; 'I' for Inactive)
REMARK    1  A    between atoms: C_2  and  C_5
REMARK    2  A    between atoms: C_6  and  C_7
REMARK    3  A    between atoms: C_7  and  C_8
REMARK    4  A    between atoms: C_8  and  C_9
REMARK                            x       y       z     vdW  Elec       q    Type
REMARK                         _______ _______ _______ _____ _____    ______ ____
ROOT
ATOM      1  C   UNL     1       2.381   5.282  19.390  0.00  0.00    +0.000 A 
ATOM      2  C   UNL     1       2.851   6.383  18.645  0.00  0.00    +0.000 A 
ATOM      3  N   UNL     1       3.684   5.870  17.676  0.00  0.00    +0.000 N 
ATOM      4  C   UNL     1       3.684   4.496  17.721  0.00  0.00    +0.000 A 
ATOM      5  C   UNL     1       4.394   3.636  16.877  0.00  0.00    +0.000 A 
ATOM      6  C   UNL     1       4.241   2.266  17.105  0.00  0.00    +0.000 A 
ATOM      7  C   UNL     1       3.442   1.808  18.154  0.00  0.00    +0.000 A 
ATOM      8  C   UNL     1       2.765   2.704  18.999  0.00  0.00    +0.000 A 
ATOM      9  C   UNL     1       2.886   4.089  18.771  0.00  0.00    +0.000 A 
ATOM     10  C   UNL     1       5.225   4.225  15.776  0.00  0.00    +0.000 C 
ATOM     11  C   UNL     1       5.663   5.649  16.162  0.00  0.00    +0.000 C 
ATOM     12  C   UNL     1       4.503   6.529  16.666  0.00  0.00    +0.000 C 
ENDROOT
BRANCH   1  14
ATOM     13  F   UNL     1       1.088   6.497  20.994  0.00  0.00    +0.000 F 
ATOM     14  C   UNL     1       1.523   5.267  20.617  0.00  0.00    +0.000 C 
ATOM     15  F   UNL     1       2.189   4.757  21.688  0.00  0.00    +0.000 F 
ATOM     16  F   UNL     1       0.414   4.498  20.449  0.00  0.00    +0.000 F 
ENDBRANCH   1  14
BRANCH   2  17
ATOM     17  C   UNL     1       2.587   7.853  18.898  0.00  0.00    +0.000 C 
BRANCH  17  18
ATOM     18  C   UNL     1       1.722   8.591  17.875  0.00  0.00    +0.000 C 
BRANCH  18  19
ATOM     19  C   UNL     1       0.714   9.500  18.541  0.00  0.00    +0.000 A 
ATOM     20  C   UNL     1      -0.396   9.973  17.825  0.00  0.00    +0.000 A 
ATOM     21  C   UNL     1      -1.332  10.805  18.438  0.00  0.00    +0.000 A 
ATOM     22  C   UNL     1      -1.167  11.172  19.769  0.00  0.00    +0.000 A 
ATOM     23  C   UNL     1      -0.064  10.717  20.492  0.00  0.00    +0.000 A 
ATOM     24  C   UNL     1       0.879   9.887  19.876  0.00  0.00    +0.000 A 
ENDBRANCH  18  19
ENDBRANCH  17  18
ENDBRANCH   2  17
TORSDOF 4
ENDMDL
