MODEL 1
REMARK VINA RESULT:      -7.4      0.000      0.000
REMARK  Name = 
REMARK  4 active torsions:
REMARK  status: ('A' for Active; 'I' for Inactive)
REMARK    1  A    between atoms: C_2  and  O_3
REMARK    2  A    between atoms: C_2  and  C_4
REMARK    3  A    between atoms: N_7  and  S_8
REMARK    4  A    between atoms: S_8  and  C_11
REMARK                            x       y       z     vdW  Elec       q    Type
REMARK                         _______ _______ _______ _____ _____    ______ ____
ROOT
ATOM      1  C   UNL     1       1.563   2.658  19.078  0.00  0.00    +0.000 C 
ATOM      2  C   UNL     1       2.901   1.919  19.160  0.00  0.00    +0.000 C 
ATOM      3  C   UNL     1       4.106   2.856  19.238  0.00  0.00    +0.000 C 
ATOM      4  N   UNL     1       4.076   3.848  18.122  0.00  0.00    +0.000 NA
ATOM      5  C   UNL     1       2.812   4.645  18.120  0.00  0.00    +0.000 C 
ATOM      6  C   UNL     1       1.602   3.721  17.984  0.00  0.00    +0.000 C 
ENDROOT
BRANCH   4   7
ATOM      7  S   UNL     1       5.470   4.877  18.091  0.00  0.00    +0.000 S 
ATOM      8  O   UNL     1       5.026   6.238  18.316  0.00  0.00    +0.000 OA
ATOM      9  O   UNL     1       6.478   4.271  18.932  0.00  0.00    +0.000 OA
BRANCH   7  10
ATOM     10  C   UNL     1       6.013   4.787  16.423  0.00  0.00    +0.000 A 
ATOM     11  C   UNL     1       5.336   4.031  15.468  0.00  0.00    +0.000 A 
ATOM     12  C   UNL     1       5.834   3.996  14.167  0.00  0.00    +0.000 A 
ATOM     13  C   UNL     1       6.982   4.722  13.882  0.00  0.00    +0.000 A 
ATOM     14  N   UNL     1       7.654   5.460  14.795  0.00  0.00    +0.000 NA
ATOM     15  C   UNL     1       7.159   5.468  16.057  0.00  0.00    +0.000 A 
ENDBRANCH   7  10
ENDBRANCH   4   7
BRANCH   1  17
ATOM     16  O   UNL     1       0.681   4.380  20.552  0.00  0.00    +0.000 OA
ATOM     17  C   UNL     1       1.169   3.271  20.412  0.00  0.00    +0.000 C 
BRANCH  17  18
ATOM     18  O   UNL     1       1.389   2.452  21.464  0.00  0.00    +0.000 OA
ATOM     19  H   UNL     1       0.791   1.683  21.519  0.00  0.00    +0.000 HD
ENDBRANCH  17  18
ENDBRANCH   1  17
TORSDOF 4
ENDMDL
MODEL 2
REMARK VINA RESULT:      -6.9      0.915      1.106
REMARK  Name = 
REMARK  4 active torsions:
REMARK  status: ('A' for Active; 'I' for Inactive)
REMARK    1  A    between atoms: C_2  and  O_3
REMARK    2  A    between atoms: C_2  and  C_4
REMARK    3  A    between atoms: N_7  and  S_8
REMARK    4  A    between atoms: S_8  and  C_11
REMARK                            x       y       z     vdW  Elec       q    Type
REMARK                         _______ _______ _______ _____ _____    ______ ____
ROOT
ATOM      1  C   UNL     1       1.641   2.615  19.253  0.00  0.00    +0.000 C 
ATOM      2  C   UNL     1       2.867   2.155  18.459  0.00  0.00    +0.000 C 
ATOM      3  C   UNL     1       3.989   3.192  18.425  0.00  0.00    +0.000 C 
ATOM      4  N   UNL     1       3.474   4.512  17.955  0.00  0.00    +0.000 NA
ATOM      5  C   UNL     1       2.351   5.007  18.807  0.00  0.00    +0.000 C 
ATOM      6  C   UNL     1       1.198   4.004  18.801  0.00  0.00    +0.000 C 
ENDROOT
BRANCH   4   7
ATOM      7  S   UNL     1       4.718   5.708  17.794  0.00  0.00    +0.000 S 
ATOM      8  O   UNL     1       4.082   6.980  17.514  0.00  0.00    +0.000 OA
ATOM      9  O   UNL     1       5.619   5.554  18.915  0.00  0.00    +0.000 OA
BRANCH   7  10
ATOM     10  C   UNL     1       5.565   5.229  16.332  0.00  0.00    +0.000 A 
ATOM     11  C   UNL     1       4.946   4.481  15.333  0.00  0.00    +0.000 A 
ATOM     12  C   UNL     1       5.686   4.126  14.207  0.00  0.00    +0.000 A 
ATOM     13  C   UNL     1       7.008   4.539  14.131  0.00  0.00    +0.000 A 
ATOM     14  N   UNL     1       7.628   5.263  15.091  0.00  0.00    +0.000 NA
ATOM     15  C   UNL     1       6.893   5.586  16.184  0.00  0.00    +0.000 A 
ENDBRANCH   7  10
ENDBRANCH   4   7
BRANCH   1  17
ATOM     16  O   UNL     1       2.986   2.454  21.273  0.00  0.00    +0.000 OA
ATOM     17  C   UNL     1       1.892   2.590  20.752  0.00  0.00    +0.000 C 
BRANCH  17  18
ATOM     18  O   UNL     1       0.770   2.762  21.485  0.00  0.00    +0.000 OA
ATOM     19  H   UNL     1      -0.052   2.848  20.968  0.00  0.00    +0.000 HD
ENDBRANCH  17  18
ENDBRANCH   1  17
TORSDOF 4
ENDMDL
MODEL 3
REMARK VINA RESULT:      -6.7      1.368      1.582
REMARK  Name = 
REMARK  4 active torsions:
REMARK  status: ('A' for Active; 'I' for Inactive)
REMARK    1  A    between atoms: C_2  and  O_3
REMARK    2  A    between atoms: C_2  and  C_4
REMARK    3  A    between atoms: N_7  and  S_8
REMARK    4  A    between atoms: S_8  and  C_11
REMARK                            x       y       z     vdW  Elec       q    Type
REMARK                         _______ _______ _______ _____ _____    ______ ____
ROOT
ATOM      1  C   UNL     1       2.310   1.896  19.455  0.00  0.00    +0.000 C 
ATOM      2  C   UNL     1       2.998   2.493  20.686  0.00  0.00    +0.000 C 
ATOM      3  C   UNL     1       3.638   3.855  20.419  0.00  0.00    +0.000 C 
ATOM      4  N   UNL     1       4.550   3.789  19.238  0.00  0.00    +0.000 NA
ATOM      5  C   UNL     1       3.839   3.314  18.013  0.00  0.00    +0.000 C 
ATOM      6  C   UNL     1       3.245   1.926  18.249  0.00  0.00    +0.000 C 
ENDROOT
BRANCH   4   7
ATOM      7  S   UNL     1       5.388   5.277  18.944  0.00  0.00    +0.000 S 
ATOM      8  O   UNL     1       4.415   6.350  18.970  0.00  0.00    +0.000 OA
ATOM      9  O   UNL     1       6.550   5.301  19.804  0.00  0.00    +0.000 OA
BRANCH   7  10
ATOM     10  C   UNL     1       5.932   5.123  17.281  0.00  0.00    +0.000 A 
ATOM     11  C   UNL     1       5.129   5.496  16.205  0.00  0.00    +0.000 A 
ATOM     12  C   UNL     1       5.623   5.332  14.913  0.00  0.00    +0.000 A 
ATOM     13  C   UNL     1       6.898   4.807  14.757  0.00  0.00    +0.000 A 
ATOM     14  N   UNL     1       7.692   4.436  15.788  0.00  0.00    +0.000 NA
ATOM     15  C   UNL     1       7.185   4.592  17.036  0.00  0.00    +0.000 A 
ENDBRANCH   7  10
ENDBRANCH   4   7
BRANCH   1  17
ATOM     16  O   UNL     1       0.543   2.750  18.019  0.00  0.00    +0.000 OA
ATOM     17  C   UNL     1       1.000   2.600  19.139  0.00  0.00    +0.000 C 
BRANCH  17  18
ATOM     18  O   UNL     1       0.349   3.037  20.239  0.00  0.00    +0.000 OA
ATOM     19  H   UNL     1      -0.530   2.639  20.383  0.00  0.00    +0.000 HD
ENDBRANCH  17  18
ENDBRANCH   1  17
TORSDOF 4
ENDMDL
MODEL 4
REMARK VINA RESULT:      -6.6      2.380      5.856
REMARK  Name = 
REMARK  4 active torsions:
REMARK  status: ('A' for Active; 'I' for Inactive)
REMARK    1  A    between atoms: C_2  and  O_3
REMARK    2  A    between atoms: C_2  and  C_4
REMARK    3  A    between atoms: N_7  and  S_8
REMARK    4  A    between atoms: S_8  and  C_11
REMARK                            x       y       z     vdW  Elec       q    Type
REMARK                         _______ _______ _______ _____ _____    ______ ____
ROOT
ATOM      1  C   UNL     1       6.207   5.760  17.414  0.00  0.00    +0.000 C 
ATOM      2  C   UNL     1       4.928   6.445  17.904  0.00  0.00    +0.000 C 
ATOM      3  C   UNL     1       3.817   5.461  18.268  0.00  0.00    +0.000 C 
ATOM      4  N   UNL     1       3.556   4.518  17.140  0.00  0.00    +0.000 NA
ATOM      5  C   UNL     1       4.787   3.769  16.745  0.00  0.00    +0.000 C 
ATOM      6  C   UNL     1       5.887   4.742  16.323  0.00  0.00    +0.000 C 
ENDROOT
BRANCH   4   7
ATOM      7  S   UNL     1       2.234   3.441  17.449  0.00  0.00    +0.000 S 
ATOM      8  O   UNL     1       1.004   4.146  17.150  0.00  0.00    +0.000 OA
ATOM      9  O   UNL     1       2.544   2.177  16.818  0.00  0.00    +0.000 OA
BRANCH   7  10
ATOM     10  C   UNL     1       2.282   3.217  19.191  0.00  0.00    +0.000 A 
ATOM     11  C   UNL     1       1.247   3.647  20.018  0.00  0.00    +0.000 A 
ATOM     12  C   UNL     1       1.361   3.447  21.392  0.00  0.00    +0.000 A 
ATOM     13  C   UNL     1       2.502   2.822  21.873  0.00  0.00    +0.000 A 
ATOM     14  N   UNL     1       3.519   2.399  21.088  0.00  0.00    +0.000 NA
ATOM     15  C   UNL     1       3.393   2.616  19.755  0.00  0.00    +0.000 A 
ENDBRANCH   7  10
ENDBRANCH   4   7
BRANCH   1  17
ATOM     16  O   UNL     1       6.770   5.312  19.737  0.00  0.00    +0.000 OA
ATOM     17  C   UNL     1       6.974   5.107  18.552  0.00  0.00    +0.000 C 
BRANCH  17  18
ATOM     18  O   UNL     1       7.914   4.232  18.132  0.00  0.00    +0.000 OA
ATOM     19  H   UNL     1       8.722   4.638  17.767  0.00  0.00    +0.000 HD
ENDBRANCH  17  18
ENDBRANCH   1  17
TORSDOF 4
ENDMDL
MODEL 5
REMARK VINA RESULT:      -6.6      2.240      6.165
REMARK  Name = 
REMARK  4 active torsions:
REMARK  status: ('A' for Active; 'I' for Inactive)
REMARK    1  A    between atoms: C_2  and  O_3
REMARK    2  A    between atoms: C_2  and  C_4
REMARK    3  A    between atoms: N_7  and  S_8
REMARK    4  A    between atoms: S_8  and  C_11
REMARK                            x       y       z     vdW  Elec       q    Type
REMARK                         _______ _______ _______ _____ _____    ______ ____
ROOT
ATOM      1  C   UNL     1       5.814   4.964  14.909  0.00  0.00    +0.000 C 
ATOM      2  C   UNL     1       5.123   6.298  15.205  0.00  0.00    +0.000 C 
ATOM      3  C   UNL     1       4.891   6.540  16.696  0.00  0.00    +0.000 C 
ATOM      4  N   UNL     1       4.176   5.384  17.315  0.00  0.00    +0.000 NA
ATOM      5  C   UNL     1       4.918   4.102  17.119  0.00  0.00    +0.000 C 
ATOM      6  C   UNL     1       5.105   3.820  15.628  0.00  0.00    +0.000 C 
ENDROOT
BRANCH   4   7
ATOM      7  S   UNL     1       3.790   5.640  18.984  0.00  0.00    +0.000 S 
ATOM      8  O   UNL     1       4.994   5.417  19.760  0.00  0.00    +0.000 OA
ATOM      9  O   UNL     1       3.061   6.885  19.078  0.00  0.00    +0.000 OA
BRANCH   7  10
ATOM     10  C   UNL     1       2.690   4.324  19.360  0.00  0.00    +0.000 A 
ATOM     11  C   UNL     1       1.667   3.948  18.492  0.00  0.00    +0.000 A 
ATOM     12  C   UNL     1       0.824   2.903  18.864  0.00  0.00    +0.000 A 
ATOM     13  C   UNL     1       1.046   2.281  20.084  0.00  0.00    +0.000 A 
ATOM     14  N   UNL     1       2.031   2.632  20.942  0.00  0.00    +0.000 NA
ATOM     15  C   UNL     1       2.831   3.660  20.565  0.00  0.00    +0.000 A 
ENDBRANCH   7  10
ENDBRANCH   4   7
BRANCH   1  17
ATOM     16  O   UNL     1       7.775   4.481  16.263  0.00  0.00    +0.000 OA
ATOM     17  C   UNL     1       7.289   4.996  15.270  0.00  0.00    +0.000 C 
BRANCH  17  18
ATOM     18  O   UNL     1       8.050   5.641  14.358  0.00  0.00    +0.000 OA
ATOM     19  H   UNL     1       7.592   5.873  13.530  0.00  0.00    +0.000 HD
ENDBRANCH  17  18
ENDBRANCH   1  17
TORSDOF 4
ENDMDL
MODEL 6
REMARK VINA RESULT:      -6.6      2.664      6.285
REMARK  Name = 
REMARK  4 active torsions:
REMARK  status: ('A' for Active; 'I' for Inactive)
REMARK    1  A    between atoms: C_2  and  O_3
REMARK    2  A    between atoms: C_2  and  C_4
REMARK    3  A    between atoms: N_7  and  S_8
REMARK    4  A    between atoms: S_8  and  C_11
REMARK                            x       y       z     vdW  Elec       q    Type
REMARK                         _______ _______ _______ _____ _____    ______ ____
ROOT
ATOM      1  C   UNL     1       7.068   5.727  17.279  0.00  0.00    +0.000 C 
ATOM      2  C   UNL     1       5.938   5.930  16.266  0.00  0.00    +0.000 C 
ATOM      3  C   UNL     1       4.630   6.397  16.904  0.00  0.00    +0.000 C 
ATOM      4  N   UNL     1       4.232   5.488  18.019  0.00  0.00    +0.000 NA
ATOM      5  C   UNL     1       5.297   5.387  19.062  0.00  0.00    +0.000 C 
ATOM      6  C   UNL     1       6.595   4.864  18.446  0.00  0.00    +0.000 C 
ENDROOT
BRANCH   4   7
ATOM      7  S   UNL     1       2.702   5.904  18.719  0.00  0.00    +0.000 S 
ATOM      8  O   UNL     1       2.915   7.005  19.637  0.00  0.00    +0.000 OA
ATOM      9  O   UNL     1       1.742   6.003  17.643  0.00  0.00    +0.000 OA
BRANCH   7  10
ATOM     10  C   UNL     1       2.299   4.499  19.694  0.00  0.00    +0.000 A 
ATOM     11  C   UNL     1       1.869   3.304  19.121  0.00  0.00    +0.000 A 
ATOM     12  C   UNL     1       1.553   2.236  19.959  0.00  0.00    +0.000 A 
ATOM     13  C   UNL     1       1.687   2.412  21.329  0.00  0.00    +0.000 A 
ATOM     14  N   UNL     1       2.101   3.565  21.904  0.00  0.00    +0.000 NA
ATOM     15  C   UNL     1       2.389   4.594  21.070  0.00  0.00    +0.000 A 
ENDBRANCH   7  10
ENDBRANCH   4   7
BRANCH   1  17
ATOM     16  O   UNL     1       7.471   8.124  17.226  0.00  0.00    +0.000 OA
ATOM     17  C   UNL     1       7.628   7.049  17.779  0.00  0.00    +0.000 C 
BRANCH  17  18
ATOM     18  O   UNL     1       8.315   6.936  18.937  0.00  0.00    +0.000 OA
ATOM     19  H   UNL     1       8.988   7.626  19.085  0.00  0.00    +0.000 HD
ENDBRANCH  17  18
ENDBRANCH   1  17
TORSDOF 4
ENDMDL
MODEL 7
REMARK VINA RESULT:      -6.6      2.445      3.230
REMARK  Name = 
REMARK  4 active torsions:
REMARK  status: ('A' for Active; 'I' for Inactive)
REMARK    1  A    between atoms: C_2  and  O_3
REMARK    2  A    between atoms: C_2  and  C_4
REMARK    3  A    between atoms: N_7  and  S_8
REMARK    4  A    between atoms: S_8  and  C_11
REMARK                            x       y       z     vdW  Elec       q    Type
REMARK                         _______ _______ _______ _____ _____    ______ ____
ROOT
ATOM      1  C   UNL     1       2.085   4.217  18.723  0.00  0.00    +0.000 C 
ATOM      2  C   UNL     1       2.507   3.112  17.751  0.00  0.00    +0.000 C 
ATOM      3  C   UNL     1       3.911   3.312  17.181  0.00  0.00    +0.000 C 
ATOM      4  N   UNL     1       4.050   4.673  16.583  0.00  0.00    +0.000 NA
ATOM      5  C   UNL     1       3.747   5.749  17.575  0.00  0.00    +0.000 C 
ATOM      6  C   UNL     1       2.323   5.593  18.108  0.00  0.00    +0.000 C 
ENDROOT
BRANCH   4   7
ATOM      7  S   UNL     1       5.587   4.928  15.826  0.00  0.00    +0.000 S 
ATOM      8  O   UNL     1       6.109   3.636  15.429  0.00  0.00    +0.000 OA
ATOM      9  O   UNL     1       5.430   5.998  14.867  0.00  0.00    +0.000 OA
BRANCH   7  10
ATOM     10  C   UNL     1       6.603   5.506  17.138  0.00  0.00    +0.000 A 
ATOM     11  C   UNL     1       7.051   6.824  17.197  0.00  0.00    +0.000 A 
ATOM     12  C   UNL     1       7.865   7.207  18.261  0.00  0.00    +0.000 A 
ATOM     13  C   UNL     1       8.188   6.256  19.218  0.00  0.00    +0.000 A 
ATOM     14  N   UNL     1       7.766   4.971  19.177  0.00  0.00    +0.000 NA
ATOM     15  C   UNL     1       6.986   4.618  18.126  0.00  0.00    +0.000 A 
ENDBRANCH   7  10
ENDBRANCH   4   7
BRANCH   1  17
ATOM     16  O   UNL     1       3.379   3.100  20.454  0.00  0.00    +0.000 OA
ATOM     17  C   UNL     1       2.792   4.096  20.063  0.00  0.00    +0.000 C 
BRANCH  17  18
ATOM     18  O   UNL     1       2.738   5.226  20.801  0.00  0.00    +0.000 OA
ATOM     19  H   UNL     1       2.068   5.224  21.509  0.00  0.00    +0.000 HD
ENDBRANCH  17  18
ENDBRANCH   1  17
TORSDOF 4
ENDMDL
MODEL 8
REMARK VINA RESULT:      -6.6      2.610      6.178
REMARK  Name = 
REMARK  4 active torsions:
REMARK  status: ('A' for Active; 'I' for Inactive)
REMARK    1  A    between atoms: C_2  and  O_3
REMARK    2  A    between atoms: C_2  and  C_4
REMARK    3  A    between atoms: N_7  and  S_8
REMARK    4  A    between atoms: S_8  and  C_11
REMARK                            x       y       z     vdW  Elec       q    Type
REMARK                         _______ _______ _______ _____ _____    ______ ____
ROOT
ATOM      1  C   UNL     1       7.400   5.842  17.977  0.00  0.00    +0.000 C 
ATOM      2  C   UNL     1       7.438   4.552  17.152  0.00  0.00    +0.000 C 
ATOM      3  C   UNL     1       6.050   4.000  16.830  0.00  0.00    +0.000 C 
ATOM      4  N   UNL     1       5.238   3.852  18.074  0.00  0.00    +0.000 NA
ATOM      5  C   UNL     1       5.111   5.144  18.813  0.00  0.00    +0.000 C 
ATOM      6  C   UNL     1       6.492   5.677  19.192  0.00  0.00    +0.000 C 
ENDROOT
BRANCH   4   7
ATOM      7  S   UNL     1       3.688   3.132  17.790  0.00  0.00    +0.000 S 
ATOM      8  O   UNL     1       2.939   4.014  16.917  0.00  0.00    +0.000 OA
ATOM      9  O   UNL     1       3.906   1.745  17.443  0.00  0.00    +0.000 OA
BRANCH   7  10
ATOM     10  C   UNL     1       2.910   3.193  19.364  0.00  0.00    +0.000 A 
ATOM     11  C   UNL     1       1.736   3.912  19.578  0.00  0.00    +0.000 A 
ATOM     12  C   UNL     1       1.183   3.925  20.857  0.00  0.00    +0.000 A 
ATOM     13  C   UNL     1       1.828   3.216  21.860  0.00  0.00    +0.000 A 
ATOM     14  N   UNL     1       2.969   2.513  21.673  0.00  0.00    +0.000 NA
ATOM     15  C   UNL     1       3.496   2.525  20.423  0.00  0.00    +0.000 A 
ENDBRANCH   7  10
ENDBRANCH   4   7
BRANCH   1  17
ATOM     16  O   UNL     1       6.029   7.044  16.367  0.00  0.00    +0.000 OA
ATOM     17  C   UNL     1       6.971   7.038  17.142  0.00  0.00    +0.000 C 
BRANCH  17  18
ATOM     18  O   UNL     1       7.727   8.137  17.353  0.00  0.00    +0.000 OA
ATOM     19  H   UNL     1       7.231   8.935  17.616  0.00  0.00    +0.000 HD
ENDBRANCH  17  18
ENDBRANCH   1  17
TORSDOF 4
ENDMDL
MODEL 9
REMARK VINA RESULT:      -6.6      2.716      6.234
REMARK  Name = 
REMARK  4 active torsions:
REMARK  status: ('A' for Active; 'I' for Inactive)
REMARK    1  A    between atoms: C_2  and  O_3
REMARK    2  A    between atoms: C_2  and  C_4
REMARK    3  A    between atoms: N_7  and  S_8
REMARK    4  A    between atoms: S_8  and  C_11
REMARK                            x       y       z     vdW  Elec       q    Type
REMARK                         _______ _______ _______ _____ _____    ______ ____
ROOT
ATOM      1  C   UNL     1       7.067   5.860  17.247  0.00  0.00    +0.000 C 
ATOM      2  C   UNL     1       5.955   6.176  16.243  0.00  0.00    +0.000 C 
ATOM      3  C   UNL     1       4.678   6.697  16.899  0.00  0.00    +0.000 C 
ATOM      4  N   UNL     1       4.220   5.769  17.976  0.00  0.00    +0.000 NA
ATOM      5  C   UNL     1       5.273   5.558  19.014  0.00  0.00    +0.000 C 
ATOM      6  C   UNL     1       6.537   4.981  18.377  0.00  0.00    +0.000 C 
ENDROOT
BRANCH   4   7
ATOM      7  S   UNL     1       2.717   6.250  18.692  0.00  0.00    +0.000 S 
ATOM      8  O   UNL     1       3.008   6.868  19.970  0.00  0.00    +0.000 OA
ATOM      9  O   UNL     1       1.955   6.949  17.681  0.00  0.00    +0.000 OA
BRANCH   7  10
ATOM     10  C   UNL     1       1.915   4.725  19.034  0.00  0.00    +0.000 A 
ATOM     11  C   UNL     1       1.591   4.338  20.332  0.00  0.00    +0.000 A 
ATOM     12  C   UNL     1       0.967   3.107  20.528  0.00  0.00    +0.000 A 
ATOM     13  C   UNL     1       0.694   2.325  19.415  0.00  0.00    +0.000 A 
ATOM     14  N   UNL     1       1.003   2.681  18.147  0.00  0.00    +0.000 NA
ATOM     15  C   UNL     1       1.621   3.877  17.983  0.00  0.00    +0.000 A 
ENDBRANCH   7  10
ENDBRANCH   4   7
BRANCH   1  17
ATOM     16  O   UNL     1       7.643   8.223  17.280  0.00  0.00    +0.000 OA
ATOM     17  C   UNL     1       7.707   7.122  17.802  0.00  0.00    +0.000 C 
BRANCH  17  18
ATOM     18  O   UNL     1       8.354   6.925  18.971  0.00  0.00    +0.000 OA
ATOM     19  H   UNL     1       8.544   5.993  19.186  0.00  0.00    +0.000 HD
ENDBRANCH  17  18
ENDBRANCH   1  17
TORSDOF 4
ENDMDL
