MODEL 1
REMARK VINA RESULT:      -6.4      0.000      0.000
REMARK  Name = 
REMARK  7 active torsions:
REMARK  status: ('A' for Active; 'I' for Inactive)
REMARK    1  A    between atoms: C_1  and  C_2
REMARK    2  A    between atoms: C_2  and  C_3
REMARK    3  A    between atoms: C_3  and  C_4
REMARK    4  A    between atoms: C_4  and  C_5
REMARK    5  A    between atoms: C_5  and  C_6
REMARK    6  A    between atoms: C_10  and  C_11
REMARK    7  A    between atoms: C_11  and  C_12
REMARK                            x       y       z     vdW  Elec       q    Type
REMARK                         _______ _______ _______ _____ _____    ______ ____
ROOT
ATOM      1  C   UNL     1       2.526   4.680  18.020  0.00  0.00    +0.000 A 
ATOM      2  C   UNL     1       2.580   6.071  18.154  0.00  0.00    +0.000 A 
ATOM      3  C   UNL     1       3.663   6.782  17.632  0.00  0.00    +0.000 A 
ATOM      4  C   UNL     1       4.692   6.112  16.973  0.00  0.00    +0.000 A 
ATOM      5  C   UNL     1       4.668   4.719  16.824  0.00  0.00    +0.000 A 
ATOM      6  C   UNL     1       3.572   4.019  17.349  0.00  0.00    +0.000 A 
ENDROOT
BRANCH   1   7
ATOM      7  C   UNL     1       1.348   3.899  18.536  0.00  0.00    +0.000 C 
BRANCH   7   8
ATOM      8  C   UNL     1       1.043   4.107  20.021  0.00  0.00    +0.000 C 
BRANCH   8   9
ATOM      9  C   UNL     1       2.293   4.094  20.906  0.00  0.00    +0.000 C 
BRANCH   9  11
ATOM     10  C   UNL     1       4.028   2.316  20.448  0.00  0.00    +0.000 C 
ATOM     11  C   UNL     1       2.743   2.658  21.183  0.00  0.00    +0.000 C 
ENDBRANCH   9  11
ENDBRANCH   8   9
ENDBRANCH   7   8
ENDBRANCH   1   7
BRANCH   5  12
ATOM     12  C   UNL     1       5.742   4.038  16.009  0.00  0.00    +0.000 C 
BRANCH  12  13
ATOM     13  C   UNL     1       7.129   4.692  15.976  0.00  0.00    +0.000 C 
ATOM     14  O   UNL     1       7.903   4.421  16.942  0.00  0.00    +0.000 OA
ATOM     15  O   UNL     1       7.372   5.392  14.951  0.00  0.00    +0.000 OA
ENDBRANCH  12  13
ENDBRANCH   5  12
TORSDOF 6
ENDMDL
MODEL 2
REMARK VINA RESULT:      -6.3      1.159      1.617
REMARK  Name = 
REMARK  7 active torsions:
REMARK  status: ('A' for Active; 'I' for Inactive)
REMARK    1  A    between atoms: C_1  and  C_2
REMARK    2  A    between atoms: C_2  and  C_3
REMARK    3  A    between atoms: C_3  and  C_4
REMARK    4  A    between atoms: C_4  and  C_5
REMARK    5  A    between atoms: C_5  and  C_6
REMARK    6  A    between atoms: C_10  and  C_11
REMARK    7  A    between atoms: C_11  and  C_12
REMARK                            x       y       z     vdW  Elec       q    Type
REMARK                         _______ _______ _______ _____ _____    ______ ____
ROOT
ATOM      1  C   UNL     1       3.011   5.053  17.626  0.00  0.00    +0.000 A 
ATOM      2  C   UNL     1       3.168   6.435  17.780  0.00  0.00    +0.000 A 
ATOM      3  C   UNL     1       4.360   7.050  17.392  0.00  0.00    +0.000 A 
ATOM      4  C   UNL     1       5.397   6.295  16.846  0.00  0.00    +0.000 A 
ATOM      5  C   UNL     1       5.270   4.909  16.681  0.00  0.00    +0.000 A 
ATOM      6  C   UNL     1       4.066   4.306  17.071  0.00  0.00    +0.000 A 
ENDROOT
BRANCH   1   7
ATOM      7  C   UNL     1       1.719   4.377  17.997  0.00  0.00    +0.000 C 
BRANCH   7   8
ATOM      8  C   UNL     1       1.835   2.873  18.254  0.00  0.00    +0.000 C 
BRANCH   8   9
ATOM      9  C   UNL     1       0.967   2.386  19.420  0.00  0.00    +0.000 C 
BRANCH   9  11
ATOM     10  C   UNL     1       2.291   2.930  21.502  0.00  0.00    +0.000 C 
ATOM     11  C   UNL     1       1.112   3.318  20.625  0.00  0.00    +0.000 C 
ENDBRANCH   9  11
ENDBRANCH   8   9
ENDBRANCH   7   8
ENDBRANCH   1   7
BRANCH   5  12
ATOM     12  C   UNL     1       6.368   4.139  15.985  0.00  0.00    +0.000 C 
BRANCH  12  13
ATOM     13  C   UNL     1       6.729   4.557  14.553  0.00  0.00    +0.000 C 
ATOM     14  O   UNL     1       7.650   5.420  14.434  0.00  0.00    +0.000 OA
ATOM     15  O   UNL     1       6.103   3.949  13.638  0.00  0.00    +0.000 OA
ENDBRANCH  12  13
ENDBRANCH   5  12
TORSDOF 6
ENDMDL
MODEL 3
REMARK VINA RESULT:      -6.3      0.889      1.026
REMARK  Name = 
REMARK  7 active torsions:
REMARK  status: ('A' for Active; 'I' for Inactive)
REMARK    1  A    between atoms: C_1  and  C_2
REMARK    2  A    between atoms: C_2  and  C_3
REMARK    3  A    between atoms: C_3  and  C_4
REMARK    4  A    between atoms: C_4  and  C_5
REMARK    5  A    between atoms: C_5  and  C_6
REMARK    6  A    between atoms: C_10  and  C_11
REMARK    7  A    between atoms: C_11  and  C_12
REMARK                            x       y       z     vdW  Elec       q    Type
REMARK                         _______ _______ _______ _____ _____    ______ ____
ROOT
ATOM      1  C   UNL     1       2.141   4.352  17.925  0.00  0.00    +0.000 A 
ATOM      2  C   UNL     1       2.039   5.716  18.218  0.00  0.00    +0.000 A 
ATOM      3  C   UNL     1       3.113   6.569  17.958  0.00  0.00    +0.000 A 
ATOM      4  C   UNL     1       4.291   6.069  17.403  0.00  0.00    +0.000 A 
ATOM      5  C   UNL     1       4.424   4.707  17.101  0.00  0.00    +0.000 A 
ATOM      6  C   UNL     1       3.335   3.864  17.363  0.00  0.00    +0.000 A 
ENDROOT
BRANCH   1   7
ATOM      7  C   UNL     1       0.980   3.423  18.156  0.00  0.00    +0.000 C 
BRANCH   7   8
ATOM      8  C   UNL     1       1.094   2.556  19.411  0.00  0.00    +0.000 C 
BRANCH   8   9
ATOM      9  C   UNL     1       1.050   3.361  20.714  0.00  0.00    +0.000 C 
BRANCH   9  11
ATOM     10  C   UNL     1       3.426   2.510  20.817  0.00  0.00    +0.000 C 
ATOM     11  C   UNL     1       2.227   2.989  21.618  0.00  0.00    +0.000 C 
ENDBRANCH   9  11
ENDBRANCH   8   9
ENDBRANCH   7   8
ENDBRANCH   1   7
BRANCH   5  12
ATOM     12  C   UNL     1       5.670   4.218  16.399  0.00  0.00    +0.000 C 
BRANCH  12  13
ATOM     13  C   UNL     1       7.012   4.418  17.116  0.00  0.00    +0.000 C 
ATOM     14  O   UNL     1       6.987   4.370  18.383  0.00  0.00    +0.000 OA
ATOM     15  O   UNL     1       8.015   4.554  16.358  0.00  0.00    +0.000 OA
ENDBRANCH  12  13
ENDBRANCH   5  12
TORSDOF 6
ENDMDL
MODEL 4
REMARK VINA RESULT:      -6.2      1.186      1.663
REMARK  Name = 
REMARK  7 active torsions:
REMARK  status: ('A' for Active; 'I' for Inactive)
REMARK    1  A    between atoms: C_1  and  C_2
REMARK    2  A    between atoms: C_2  and  C_3
REMARK    3  A    between atoms: C_3  and  C_4
REMARK    4  A    between atoms: C_4  and  C_5
REMARK    5  A    between atoms: C_5  and  C_6
REMARK    6  A    between atoms: C_10  and  C_11
REMARK    7  A    between atoms: C_11  and  C_12
REMARK                            x       y       z     vdW  Elec       q    Type
REMARK                         _______ _______ _______ _____ _____    ______ ____
ROOT
ATOM      1  C   UNL     1       2.467   4.887  17.781  0.00  0.00    +0.000 A 
ATOM      2  C   UNL     1       2.146   6.202  18.135  0.00  0.00    +0.000 A 
ATOM      3  C   UNL     1       3.109   7.207  18.036  0.00  0.00    +0.000 A 
ATOM      4  C   UNL     1       4.393   6.909  17.581  0.00  0.00    +0.000 A 
ATOM      5  C   UNL     1       4.746   5.602  17.221  0.00  0.00    +0.000 A 
ATOM      6  C   UNL     1       3.766   4.604  17.322  0.00  0.00    +0.000 A 
ENDROOT
BRANCH   1   7
ATOM      7  C   UNL     1       1.432   3.797  17.839  0.00  0.00    +0.000 C 
BRANCH   7   8
ATOM      8  C   UNL     1       1.992   2.395  18.088  0.00  0.00    +0.000 C 
BRANCH   8   9
ATOM      9  C   UNL     1       2.396   2.150  19.545  0.00  0.00    +0.000 C 
BRANCH   9  11
ATOM     10  C   UNL     1       2.081   3.695  21.519  0.00  0.00    +0.000 C 
ATOM     11  C   UNL     1       1.394   2.802  20.500  0.00  0.00    +0.000 C 
ENDBRANCH   9  11
ENDBRANCH   8   9
ENDBRANCH   7   8
ENDBRANCH   1   7
BRANCH   5  12
ATOM     12  C   UNL     1       6.109   5.335  16.628  0.00  0.00    +0.000 C 
BRANCH  12  13
ATOM     13  C   UNL     1       7.177   4.729  17.549  0.00  0.00    +0.000 C 
ATOM     14  O   UNL     1       6.946   4.788  18.794  0.00  0.00    +0.000 OA
ATOM     15  O   UNL     1       8.152   4.182  16.959  0.00  0.00    +0.000 OA
ENDBRANCH  12  13
ENDBRANCH   5  12
TORSDOF 6
ENDMDL
MODEL 5
REMARK VINA RESULT:      -6.2      1.668      2.259
REMARK  Name = 
REMARK  7 active torsions:
REMARK  status: ('A' for Active; 'I' for Inactive)
REMARK    1  A    between atoms: C_1  and  C_2
REMARK    2  A    between atoms: C_2  and  C_3
REMARK    3  A    between atoms: C_3  and  C_4
REMARK    4  A    between atoms: C_4  and  C_5
REMARK    5  A    between atoms: C_5  and  C_6
REMARK    6  A    between atoms: C_10  and  C_11
REMARK    7  A    between atoms: C_11  and  C_12
REMARK                            x       y       z     vdW  Elec       q    Type
REMARK                         _______ _______ _______ _____ _____    ______ ____
ROOT
ATOM      1  C   UNL     1       3.121   4.457  17.446  0.00  0.00    +0.000 A 
ATOM      2  C   UNL     1       2.423   5.555  17.960  0.00  0.00    +0.000 A 
ATOM      3  C   UNL     1       3.059   6.791  18.086  0.00  0.00    +0.000 A 
ATOM      4  C   UNL     1       4.391   6.939  17.700  0.00  0.00    +0.000 A 
ATOM      5  C   UNL     1       5.117   5.858  17.185  0.00  0.00    +0.000 A 
ATOM      6  C   UNL     1       4.463   4.624  17.059  0.00  0.00    +0.000 A 
ENDROOT
BRANCH   1   7
ATOM      7  C   UNL     1       2.441   3.127  17.260  0.00  0.00    +0.000 C 
BRANCH   7   8
ATOM      8  C   UNL     1       2.282   2.305  18.541  0.00  0.00    +0.000 C 
BRANCH   8   9
ATOM      9  C   UNL     1       0.894   2.432  19.177  0.00  0.00    +0.000 C 
BRANCH   9  11
ATOM     10  C   UNL     1       1.601   2.706  21.587  0.00  0.00    +0.000 C 
ATOM     11  C   UNL     1       0.939   3.365  20.389  0.00  0.00    +0.000 C 
ENDBRANCH   9  11
ENDBRANCH   8   9
ENDBRANCH   7   8
ENDBRANCH   1   7
BRANCH   5  12
ATOM     12  C   UNL     1       6.522   6.080  16.673  0.00  0.00    +0.000 C 
BRANCH  12  13
ATOM     13  C   UNL     1       7.468   6.920  17.541  0.00  0.00    +0.000 C 
ATOM     14  O   UNL     1       7.725   8.090  17.125  0.00  0.00    +0.000 OA
ATOM     15  O   UNL     1       7.845   6.371  18.615  0.00  0.00    +0.000 OA
ENDBRANCH  12  13
ENDBRANCH   5  12
TORSDOF 6
ENDMDL
MODEL 6
REMARK VINA RESULT:      -6.2      0.968      1.683
REMARK  Name = 
REMARK  7 active torsions:
REMARK  status: ('A' for Active; 'I' for Inactive)
REMARK    1  A    between atoms: C_1  and  C_2
REMARK    2  A    between atoms: C_2  and  C_3
REMARK    3  A    between atoms: C_3  and  C_4
REMARK    4  A    between atoms: C_4  and  C_5
REMARK    5  A    between atoms: C_5  and  C_6
REMARK    6  A    between atoms: C_10  and  C_11
REMARK    7  A    between atoms: C_11  and  C_12
REMARK                            x       y       z     vdW  Elec       q    Type
REMARK                         _______ _______ _______ _____ _____    ______ ____
ROOT
ATOM      1  C   UNL     1       3.086   4.340  17.580  0.00  0.00    +0.000 A 
ATOM      2  C   UNL     1       2.152   5.302  17.976  0.00  0.00    +0.000 A 
ATOM      3  C   UNL     1       2.528   6.643  18.073  0.00  0.00    +0.000 A 
ATOM      4  C   UNL     1       3.834   7.031  17.773  0.00  0.00    +0.000 A 
ATOM      5  C   UNL     1       4.793   6.090  17.377  0.00  0.00    +0.000 A 
ATOM      6  C   UNL     1       4.398   4.748  17.279  0.00  0.00    +0.000 A 
ENDROOT
BRANCH   1   7
ATOM      7  C   UNL     1       2.690   2.896  17.426  0.00  0.00    +0.000 C 
BRANCH   7   8
ATOM      8  C   UNL     1       2.273   2.205  18.726  0.00  0.00    +0.000 C 
BRANCH   8   9
ATOM      9  C   UNL     1       3.285   2.383  19.863  0.00  0.00    +0.000 C 
BRANCH   9  11
ATOM     10  C   UNL     1       1.141   3.241  20.888  0.00  0.00    +0.000 C 
ATOM     11  C   UNL     1       2.581   2.829  21.146  0.00  0.00    +0.000 C 
ENDBRANCH   9  11
ENDBRANCH   8   9
ENDBRANCH   7   8
ENDBRANCH   1   7
BRANCH   5  12
ATOM     12  C   UNL     1       6.165   6.558  16.953  0.00  0.00    +0.000 C 
BRANCH  12  13
ATOM     13  C   UNL     1       7.139   5.502  16.414  0.00  0.00    +0.000 C 
ATOM     14  O   UNL     1       7.709   4.769  17.277  0.00  0.00    +0.000 OA
ATOM     15  O   UNL     1       7.225   5.439  15.154  0.00  0.00    +0.000 OA
ENDBRANCH  12  13
ENDBRANCH   5  12
TORSDOF 6
ENDMDL
MODEL 7
REMARK VINA RESULT:      -6.1      1.288      1.550
REMARK  Name = 
REMARK  7 active torsions:
REMARK  status: ('A' for Active; 'I' for Inactive)
REMARK    1  A    between atoms: C_1  and  C_2
REMARK    2  A    between atoms: C_2  and  C_3
REMARK    3  A    between atoms: C_3  and  C_4
REMARK    4  A    between atoms: C_4  and  C_5
REMARK    5  A    between atoms: C_5  and  C_6
REMARK    6  A    between atoms: C_10  and  C_11
REMARK    7  A    between atoms: C_11  and  C_12
REMARK                            x       y       z     vdW  Elec       q    Type
REMARK                         _______ _______ _______ _____ _____    ______ ____
ROOT
ATOM      1  C   UNL     1       2.887   4.081  17.818  0.00  0.00    +0.000 A 
ATOM      2  C   UNL     1       2.287   5.344  17.878  0.00  0.00    +0.000 A 
ATOM      3  C   UNL     1       3.078   6.490  17.973  0.00  0.00    +0.000 A 
ATOM      4  C   UNL     1       4.468   6.385  18.005  0.00  0.00    +0.000 A 
ATOM      5  C   UNL     1       5.098   5.135  17.950  0.00  0.00    +0.000 A 
ATOM      6  C   UNL     1       4.290   3.993  17.850  0.00  0.00    +0.000 A 
ENDROOT
BRANCH   1   7
ATOM      7  C   UNL     1       2.055   2.837  17.672  0.00  0.00    +0.000 C 
BRANCH   7   8
ATOM      8  C   UNL     1       1.744   2.116  18.985  0.00  0.00    +0.000 C 
BRANCH   8   9
ATOM      9  C   UNL     1       0.725   2.855  19.859  0.00  0.00    +0.000 C 
BRANCH   9  11
ATOM     10  C   UNL     1       2.763   2.704  21.344  0.00  0.00    +0.000 C 
ATOM     11  C   UNL     1       1.332   3.199  21.221  0.00  0.00    +0.000 C 
ENDBRANCH   9  11
ENDBRANCH   8   9
ENDBRANCH   7   8
ENDBRANCH   1   7
BRANCH   5  12
ATOM     12  C   UNL     1       6.606   5.063  17.875  0.00  0.00    +0.000 C 
BRANCH  12  13
ATOM     13  C   UNL     1       7.273   5.533  16.575  0.00  0.00    +0.000 C 
ATOM     14  O   UNL     1       7.363   4.675  15.647  0.00  0.00    +0.000 OA
ATOM     15  O   UNL     1       7.612   6.751  16.551  0.00  0.00    +0.000 OA
ENDBRANCH  12  13
ENDBRANCH   5  12
TORSDOF 6
ENDMDL
MODEL 8
REMARK VINA RESULT:      -6.0      3.078      5.893
REMARK  Name = 
REMARK  7 active torsions:
REMARK  status: ('A' for Active; 'I' for Inactive)
REMARK    1  A    between atoms: C_1  and  C_2
REMARK    2  A    between atoms: C_2  and  C_3
REMARK    3  A    between atoms: C_3  and  C_4
REMARK    4  A    between atoms: C_4  and  C_5
REMARK    5  A    between atoms: C_5  and  C_6
REMARK    6  A    between atoms: C_10  and  C_11
REMARK    7  A    between atoms: C_11  and  C_12
REMARK                            x       y       z     vdW  Elec       q    Type
REMARK                         _______ _______ _______ _____ _____    ______ ____
ROOT
ATOM      1  C   UNL     1       4.624   4.568  16.814  0.00  0.00    +0.000 A 
ATOM      2  C   UNL     1       4.740   5.931  17.106  0.00  0.00    +0.000 A 
ATOM      3  C   UNL     1       3.692   6.601  17.741  0.00  0.00    +0.000 A 
ATOM      4  C   UNL     1       2.528   5.917  18.089  0.00  0.00    +0.000 A 
ATOM      5  C   UNL     1       2.381   4.553  17.807  0.00  0.00    +0.000 A 
ATOM      6  C   UNL     1       3.444   3.892  17.174  0.00  0.00    +0.000 A 
ENDROOT
BRANCH   1   7
ATOM      7  C   UNL     1       5.758   3.817  16.170  0.00  0.00    +0.000 C 
BRANCH   7   8
ATOM      8  C   UNL     1       6.890   4.699  15.639  0.00  0.00    +0.000 C 
BRANCH   8   9
ATOM      9  C   UNL     1       6.903   4.819  14.112  0.00  0.00    +0.000 C 
BRANCH   9  11
ATOM     10  C   UNL     1       6.303   3.298  12.187  0.00  0.00    +0.000 C 
ATOM     11  C   UNL     1       5.832   3.920  13.491  0.00  0.00    +0.000 C 
ENDBRANCH   9  11
ENDBRANCH   8   9
ENDBRANCH   7   8
ENDBRANCH   1   7
BRANCH   5  12
ATOM     12  C   UNL     1       1.155   3.819  18.298  0.00  0.00    +0.000 C 
BRANCH  12  13
ATOM     13  C   UNL     1       1.249   3.109  19.655  0.00  0.00    +0.000 C 
ATOM     14  O   UNL     1       1.688   1.920  19.639  0.00  0.00    +0.000 OA
ATOM     15  O   UNL     1       0.931   3.813  20.656  0.00  0.00    +0.000 OA
ENDBRANCH  12  13
ENDBRANCH   5  12
TORSDOF 6
ENDMDL
MODEL 9
REMARK VINA RESULT:      -6.0      1.523      2.123
REMARK  Name = 
REMARK  7 active torsions:
REMARK  status: ('A' for Active; 'I' for Inactive)
REMARK    1  A    between atoms: C_1  and  C_2
REMARK    2  A    between atoms: C_2  and  C_3
REMARK    3  A    between atoms: C_3  and  C_4
REMARK    4  A    between atoms: C_4  and  C_5
REMARK    5  A    between atoms: C_5  and  C_6
REMARK    6  A    between atoms: C_10  and  C_11
REMARK    7  A    between atoms: C_11  and  C_12
REMARK                            x       y       z     vdW  Elec       q    Type
REMARK                         _______ _______ _______ _____ _____    ______ ____
ROOT
ATOM      1  C   UNL     1       3.738   5.741  18.800  0.00  0.00    +0.000 A 
ATOM      2  C   UNL     1       4.695   5.058  19.558  0.00  0.00    +0.000 A 
ATOM      3  C   UNL     1       5.834   4.537  18.941  0.00  0.00    +0.000 A 
ATOM      4  C   UNL     1       6.027   4.698  17.570  0.00  0.00    +0.000 A 
ATOM      5  C   UNL     1       5.087   5.376  16.783  0.00  0.00    +0.000 A 
ATOM      6  C   UNL     1       3.950   5.897  17.418  0.00  0.00    +0.000 A 
ENDROOT
BRANCH   1   7
ATOM      7  C   UNL     1       2.525   6.348  19.451  0.00  0.00    +0.000 C 
BRANCH   7   8
ATOM      8  C   UNL     1       1.837   5.451  20.482  0.00  0.00    +0.000 C 
BRANCH   8   9
ATOM      9  C   UNL     1       1.036   4.305  19.854  0.00  0.00    +0.000 C 
BRANCH   9  11
ATOM     10  C   UNL     1       2.280   3.175  21.740  0.00  0.00    +0.000 C 
ATOM     11  C   UNL     1       1.344   2.982  20.559  0.00  0.00    +0.000 C 
ENDBRANCH   9  11
ENDBRANCH   8   9
ENDBRANCH   7   8
ENDBRANCH   1   7
BRANCH   5  12
ATOM     12  C   UNL     1       5.380   5.629  15.323  0.00  0.00    +0.000 C 
BRANCH  12  13
ATOM     13  C   UNL     1       6.578   4.895  14.704  0.00  0.00    +0.000 C 
ATOM     14  O   UNL     1       7.686   5.509  14.724  0.00  0.00    +0.000 OA
ATOM     15  O   UNL     1       6.338   3.725  14.289  0.00  0.00    +0.000 OA
ENDBRANCH  12  13
ENDBRANCH   5  12
TORSDOF 6
ENDMDL
