MODEL 1
REMARK VINA RESULT:      -8.8      0.000      0.000
REMARK  Name = 
REMARK  4 active torsions:
REMARK  status: ('A' for Active; 'I' for Inactive)
REMARK    1  A    between atoms: C_1  and  C_2
REMARK    2  A    between atoms: C_6  and  N_7
REMARK    3  A    between atoms: C_9  and  C_10
REMARK    4  A    between atoms: C_12  and  O_13
REMARK                            x       y       z     vdW  Elec       q    Type
REMARK                         _______ _______ _______ _____ _____    ______ ____
ROOT
ATOM      1  N   UNL     1       3.360   7.069  18.427  0.00  0.00    +0.000 N 
ATOM      2  N   UNL     1       4.288   7.527  17.545  0.00  0.00    +0.000 NA
ATOM      3  C   UNL     1       5.275   6.636  17.580  0.00  0.00    +0.000 A 
ATOM      4  C   UNL     1       6.529   6.909  16.831  0.00  0.00    +0.000 C 
ATOM      5  C   UNL     1       4.921   5.493  18.339  0.00  0.00    +0.000 A 
ATOM      6  C   UNL     1       5.524   4.261  18.623  0.00  0.00    +0.000 A 
ATOM      7  N   UNL     1       4.906   3.339  19.370  0.00  0.00    +0.000 NA
ATOM      8  C   UNL     1       3.673   3.563  19.829  0.00  0.00    +0.000 A 
ATOM      9  C   UNL     1       3.083   2.539  20.558  0.00  0.00    +0.000 A 
ATOM     10  C   UNL     1       1.801   2.656  21.096  0.00  0.00    +0.000 A 
ATOM     11  C   UNL     1       1.065   3.805  20.864  0.00  0.00    +0.000 A 
ATOM     12  C   UNL     1       1.612   4.827  20.087  0.00  0.00    +0.000 A 
ATOM     13  C   UNL     1       2.944   4.754  19.605  0.00  0.00    +0.000 A 
ATOM     14  C   UNL     1       3.645   5.767  18.858  0.00  0.00    +0.000 A 
ENDROOT
BRANCH   1  20
ATOM     15  C   UNL     1       0.449   9.090  21.885  0.00  0.00    +0.000 C 
ATOM     16  C   UNL     1       0.865   8.968  20.449  0.00  0.00    +0.000 A 
ATOM     17  C   UNL     1       0.301   9.786  19.466  0.00  0.00    +0.000 A 
ATOM     18  C   UNL     1       0.670   9.639  18.130  0.00  0.00    +0.000 A 
ATOM     19  C   UNL     1       1.630   8.693  17.767  0.00  0.00    +0.000 A 
ATOM     20  C   UNL     1       2.282   7.942  18.751  0.00  0.00    +0.000 A 
ATOM     21  C   UNL     1       1.849   8.035  20.081  0.00  0.00    +0.000 A 
ENDBRANCH   1  20
BRANCH   6  22
ATOM     22  O   UNL     1       6.754   3.872  18.153  0.00  0.00    +0.000 OA
ATOM     23  H   UNL     1       7.161   3.297  18.812  0.00  0.00    +0.000 HD
ENDBRANCH   6  22
TORSDOF 2
ENDMDL
MODEL 2
REMARK VINA RESULT:      -8.4      1.360      3.772
REMARK  Name = 
REMARK  4 active torsions:
REMARK  status: ('A' for Active; 'I' for Inactive)
REMARK    1  A    between atoms: C_1  and  C_2
REMARK    2  A    between atoms: C_6  and  N_7
REMARK    3  A    between atoms: C_9  and  C_10
REMARK    4  A    between atoms: C_12  and  O_13
REMARK                            x       y       z     vdW  Elec       q    Type
REMARK                         _______ _______ _______ _____ _____    ______ ____
ROOT
ATOM      1  N   UNL     1       2.641   6.048  19.743  0.00  0.00    +0.000 N 
ATOM      2  N   UNL     1       1.974   5.331  20.687  0.00  0.00    +0.000 NA
ATOM      3  C   UNL     1       2.533   4.124  20.670  0.00  0.00    +0.000 A 
ATOM      4  C   UNL     1       1.940   3.037  21.491  0.00  0.00    +0.000 C 
ATOM      5  C   UNL     1       3.691   4.095  19.854  0.00  0.00    +0.000 A 
ATOM      6  C   UNL     1       4.675   3.144  19.559  0.00  0.00    +0.000 A 
ATOM      7  N   UNL     1       5.701   3.432  18.749  0.00  0.00    +0.000 NA
ATOM      8  C   UNL     1       5.827   4.658  18.235  0.00  0.00    +0.000 A 
ATOM      9  C   UNL     1       6.942   4.891  17.442  0.00  0.00    +0.000 A 
ATOM     10  C   UNL     1       7.182   6.128  16.843  0.00  0.00    +0.000 A 
ATOM     11  C   UNL     1       6.313   7.179  17.078  0.00  0.00    +0.000 A 
ATOM     12  C   UNL     1       5.214   6.989  17.918  0.00  0.00    +0.000 A 
ATOM     13  C   UNL     1       4.916   5.714  18.464  0.00  0.00    +0.000 A 
ATOM     14  C   UNL     1       3.779   5.374  19.281  0.00  0.00    +0.000 A 
ENDROOT
BRANCH   1  20
ATOM     15  C   UNL     1       0.544  10.292  21.197  0.00  0.00    +0.000 C 
ATOM     16  C   UNL     1       1.107   9.429  20.105  0.00  0.00    +0.000 A 
ATOM     17  C   UNL     1       1.231   9.913  18.800  0.00  0.00    +0.000 A 
ATOM     18  C   UNL     1       1.723   9.092  17.787  0.00  0.00    +0.000 A 
ATOM     19  C   UNL     1       2.125   7.787  18.076  0.00  0.00    +0.000 A 
ATOM     20  C   UNL     1       2.109   7.324  19.396  0.00  0.00    +0.000 A 
ATOM     21  C   UNL     1       1.537   8.124  20.395  0.00  0.00    +0.000 A 
ENDBRANCH   1  20
BRANCH   6  22
ATOM     22  O   UNL     1       4.708   1.873  20.075  0.00  0.00    +0.000 OA
ATOM     23  H   UNL     1       4.185   1.300  19.503  0.00  0.00    +0.000 HD
ENDBRANCH   6  22
TORSDOF 2
ENDMDL
MODEL 3
REMARK VINA RESULT:      -8.3      1.206      1.761
REMARK  Name = 
REMARK  4 active torsions:
REMARK  status: ('A' for Active; 'I' for Inactive)
REMARK    1  A    between atoms: C_1  and  C_2
REMARK    2  A    between atoms: C_6  and  N_7
REMARK    3  A    between atoms: C_9  and  C_10
REMARK    4  A    between atoms: C_12  and  O_13
REMARK                            x       y       z     vdW  Elec       q    Type
REMARK                         _______ _______ _______ _____ _____    ______ ____
ROOT
ATOM      1  N   UNL     1       3.074   6.816  18.247  0.00  0.00    +0.000 N 
ATOM      2  N   UNL     1       3.884   7.396  17.321  0.00  0.00    +0.000 NA
ATOM      3  C   UNL     1       4.659   6.414  16.869  0.00  0.00    +0.000 A 
ATOM      4  C   UNL     1       5.771   6.736  15.937  0.00  0.00    +0.000 C 
ATOM      5  C   UNL     1       4.239   5.151  17.353  0.00  0.00    +0.000 A 
ATOM      6  C   UNL     1       4.626   3.823  17.135  0.00  0.00    +0.000 A 
ATOM      7  N   UNL     1       3.995   2.806  17.732  0.00  0.00    +0.000 NA
ATOM      8  C   UNL     1       2.946   3.039  18.525  0.00  0.00    +0.000 A 
ATOM      9  C   UNL     1       2.316   1.929  19.071  0.00  0.00    +0.000 A 
ATOM     10  C   UNL     1       1.215   2.043  19.919  0.00  0.00    +0.000 A 
ATOM     11  C   UNL     1       0.694   3.295  20.196  0.00  0.00    +0.000 A 
ATOM     12  C   UNL     1       1.272   4.425  19.615  0.00  0.00    +0.000 A 
ATOM     13  C   UNL     1       2.441   4.327  18.818  0.00  0.00    +0.000 A 
ATOM     14  C   UNL     1       3.171   5.419  18.224  0.00  0.00    +0.000 A 
ENDROOT
BRANCH   1  20
ATOM     15  C   UNL     1       0.191  10.829  18.558  0.00  0.00    +0.000 C 
ATOM     16  C   UNL     1       0.830   9.636  19.207  0.00  0.00    +0.000 A 
ATOM     17  C   UNL     1       0.546   9.304  20.535  0.00  0.00    +0.000 A 
ATOM     18  C   UNL     1       1.173   8.214  21.138  0.00  0.00    +0.000 A 
ATOM     19  C   UNL     1       2.066   7.427  20.409  0.00  0.00    +0.000 A 
ATOM     20  C   UNL     1       2.277   7.682  19.050  0.00  0.00    +0.000 A 
ATOM     21  C   UNL     1       1.710   8.826  18.472  0.00  0.00    +0.000 A 
ENDBRANCH   1  20
BRANCH   6  22
ATOM     22  O   UNL     1       5.637   3.437  16.290  0.00  0.00    +0.000 OA
ATOM     23  H   UNL     1       5.284   3.400  15.393  0.00  0.00    +0.000 HD
ENDBRANCH   6  22
TORSDOF 2
ENDMDL
MODEL 4
REMARK VINA RESULT:      -8.2      1.639      3.753
REMARK  Name = 
REMARK  4 active torsions:
REMARK  status: ('A' for Active; 'I' for Inactive)
REMARK    1  A    between atoms: C_1  and  C_2
REMARK    2  A    between atoms: C_6  and  N_7
REMARK    3  A    between atoms: C_9  and  C_10
REMARK    4  A    between atoms: C_12  and  O_13
REMARK                            x       y       z     vdW  Elec       q    Type
REMARK                         _______ _______ _______ _____ _____    ______ ____
ROOT
ATOM      1  N   UNL     1       2.520   6.012  19.546  0.00  0.00    +0.000 N 
ATOM      2  N   UNL     1       2.160   5.379  20.696  0.00  0.00    +0.000 NA
ATOM      3  C   UNL     1       2.548   4.116  20.537  0.00  0.00    +0.000 A 
ATOM      4  C   UNL     1       2.174   3.108  21.562  0.00  0.00    +0.000 C 
ATOM      5  C   UNL     1       3.331   3.953  19.368  0.00  0.00    +0.000 A 
ATOM      6  C   UNL     1       4.041   2.894  18.787  0.00  0.00    +0.000 A 
ATOM      7  N   UNL     1       4.737   3.060  17.656  0.00  0.00    +0.000 NA
ATOM      8  C   UNL     1       4.800   4.261  17.077  0.00  0.00    +0.000 A 
ATOM      9  C   UNL     1       5.579   4.362  15.932  0.00  0.00    +0.000 A 
ATOM     10  C   UNL     1       5.719   5.561  15.233  0.00  0.00    +0.000 A 
ATOM     11  C   UNL     1       5.105   6.706  15.712  0.00  0.00    +0.000 A 
ATOM     12  C   UNL     1       4.362   6.646  16.892  0.00  0.00    +0.000 A 
ATOM     13  C   UNL     1       4.145   5.416  17.565  0.00  0.00    +0.000 A 
ATOM     14  C   UNL     1       3.343   5.210  18.744  0.00  0.00    +0.000 A 
ENDROOT
BRANCH   1  20
ATOM     15  C   UNL     1       0.657  10.160  21.505  0.00  0.00    +0.000 C 
ATOM     16  C   UNL     1       1.150   9.396  20.311  0.00  0.00    +0.000 A 
ATOM     17  C   UNL     1       1.259  10.010  19.060  0.00  0.00    +0.000 A 
ATOM     18  C   UNL     1       1.685   9.281  17.952  0.00  0.00    +0.000 A 
ATOM     19  C   UNL     1       2.037   7.937  18.089  0.00  0.00    +0.000 A 
ATOM     20  C   UNL     1       2.037   7.338  19.352  0.00  0.00    +0.000 A 
ATOM     21  C   UNL     1       1.529   8.050  20.448  0.00  0.00    +0.000 A 
ENDBRANCH   1  20
BRANCH   6  22
ATOM     22  O   UNL     1       4.122   1.630  19.315  0.00  0.00    +0.000 OA
ATOM     23  H   UNL     1       3.292   1.437  19.766  0.00  0.00    +0.000 HD
ENDBRANCH   6  22
TORSDOF 2
ENDMDL
MODEL 5
REMARK VINA RESULT:      -8.1      1.261      1.261
REMARK  Name = 
REMARK  4 active torsions:
REMARK  status: ('A' for Active; 'I' for Inactive)
REMARK    1  A    between atoms: C_1  and  C_2
REMARK    2  A    between atoms: C_6  and  N_7
REMARK    3  A    between atoms: C_9  and  C_10
REMARK    4  A    between atoms: C_12  and  O_13
REMARK                            x       y       z     vdW  Elec       q    Type
REMARK                         _______ _______ _______ _____ _____    ______ ____
ROOT
ATOM      1  N   UNL     1       3.515   7.053  17.987  0.00  0.00    +0.000 N 
ATOM      2  N   UNL     1       4.586   7.693  17.445  0.00  0.00    +0.000 NA
ATOM      3  C   UNL     1       5.500   6.745  17.252  0.00  0.00    +0.000 A 
ATOM      4  C   UNL     1       6.861   7.130  16.799  0.00  0.00    +0.000 C 
ATOM      5  C   UNL     1       4.970   5.453  17.487  0.00  0.00    +0.000 A 
ATOM      6  C   UNL     1       5.447   4.143  17.353  0.00  0.00    +0.000 A 
ATOM      7  N   UNL     1       4.673   3.087  17.631  0.00  0.00    +0.000 NA
ATOM      8  C   UNL     1       3.404   3.266  18.005  0.00  0.00    +0.000 A 
ATOM      9  C   UNL     1       2.653   2.120  18.230  0.00  0.00    +0.000 A 
ATOM     10  C   UNL     1       1.318   2.176  18.631  0.00  0.00    +0.000 A 
ATOM     11  C   UNL     1       0.697   3.405  18.767  0.00  0.00    +0.000 A 
ATOM     12  C   UNL     1       1.412   4.571  18.491  0.00  0.00    +0.000 A 
ATOM     13  C   UNL     1       2.791   4.530  18.164  0.00  0.00    +0.000 A 
ATOM     14  C   UNL     1       3.654   5.660  17.929  0.00  0.00    +0.000 A 
ENDROOT
BRANCH   1  20
ATOM     15  C   UNL     1       0.849   8.579  21.871  0.00  0.00    +0.000 C 
ATOM     16  C   UNL     1       1.163   8.646  20.405  0.00  0.00    +0.000 A 
ATOM     17  C   UNL     1       0.528   9.576  19.577  0.00  0.00    +0.000 A 
ATOM     18  C   UNL     1       0.802   9.606  18.210  0.00  0.00    +0.000 A 
ATOM     19  C   UNL     1       1.737   8.726  17.663  0.00  0.00    +0.000 A 
ATOM     20  C   UNL     1       2.459   7.864  18.494  0.00  0.00    +0.000 A 
ATOM     21  C   UNL     1       2.122   7.780  19.852  0.00  0.00    +0.000 A 
ENDBRANCH   1  20
BRANCH   6  22
ATOM     22  O   UNL     1       6.704   3.815  16.908  0.00  0.00    +0.000 OA
ATOM     23  H   UNL     1       7.165   4.630  16.676  0.00  0.00    +0.000 HD
ENDBRANCH   6  22
TORSDOF 2
ENDMDL
MODEL 6
REMARK VINA RESULT:      -8.1      1.841      4.118
REMARK  Name = 
REMARK  4 active torsions:
REMARK  status: ('A' for Active; 'I' for Inactive)
REMARK    1  A    between atoms: C_1  and  C_2
REMARK    2  A    between atoms: C_6  and  N_7
REMARK    3  A    between atoms: C_9  and  C_10
REMARK    4  A    between atoms: C_12  and  O_13
REMARK                            x       y       z     vdW  Elec       q    Type
REMARK                         _______ _______ _______ _____ _____    ______ ____
ROOT
ATOM      1  N   UNL     1       2.181   5.691  19.894  0.00  0.00    +0.000 N 
ATOM      2  N   UNL     1       1.714   4.876  20.878  0.00  0.00    +0.000 NA
ATOM      3  C   UNL     1       1.945   3.638  20.447  0.00  0.00    +0.000 A 
ATOM      4  C   UNL     1       1.420   2.488  21.228  0.00  0.00    +0.000 C 
ATOM      5  C   UNL     1       2.732   3.633  19.269  0.00  0.00    +0.000 A 
ATOM      6  C   UNL     1       3.319   2.643  18.471  0.00  0.00    +0.000 A 
ATOM      7  N   UNL     1       4.061   2.960  17.403  0.00  0.00    +0.000 NA
ATOM      8  C   UNL     1       4.289   4.240  17.100  0.00  0.00    +0.000 A 
ATOM      9  C   UNL     1       5.105   4.486  16.004  0.00  0.00    +0.000 A 
ATOM     10  C   UNL     1       5.413   5.780  15.584  0.00  0.00    +0.000 A 
ATOM     11  C   UNL     1       4.934   6.862  16.301  0.00  0.00    +0.000 A 
ATOM     12  C   UNL     1       4.158   6.643  17.441  0.00  0.00    +0.000 A 
ATOM     13  C   UNL     1       3.772   5.335  17.829  0.00  0.00    +0.000 A 
ATOM     14  C   UNL     1       2.919   4.983  18.936  0.00  0.00    +0.000 A 
ENDROOT
BRANCH   1  20
ATOM     15  C   UNL     1       1.826  10.113  17.695  0.00  0.00    +0.000 C 
ATOM     16  C   UNL     1       1.663   9.252  18.914  0.00  0.00    +0.000 A 
ATOM     17  C   UNL     1       1.097   9.765  20.084  0.00  0.00    +0.000 A 
ATOM     18  C   UNL     1       0.983   8.966  21.221  0.00  0.00    +0.000 A 
ATOM     19  C   UNL     1       1.405   7.636  21.189  0.00  0.00    +0.000 A 
ATOM     20  C   UNL     1       1.873   7.078  19.995  0.00  0.00    +0.000 A 
ATOM     21  C   UNL     1       2.063   7.906  18.880  0.00  0.00    +0.000 A 
ENDBRANCH   1  20
BRANCH   6  22
ATOM     22  O   UNL     1       3.227   1.295  18.711  0.00  0.00    +0.000 OA
ATOM     23  H   UNL     1       3.937   1.045  19.313  0.00  0.00    +0.000 HD
ENDBRANCH   6  22
TORSDOF 2
ENDMDL
MODEL 7
REMARK VINA RESULT:      -7.7      2.315      5.930
REMARK  Name = 
REMARK  4 active torsions:
REMARK  status: ('A' for Active; 'I' for Inactive)
REMARK    1  A    between atoms: C_1  and  C_2
REMARK    2  A    between atoms: C_6  and  N_7
REMARK    3  A    between atoms: C_9  and  C_10
REMARK    4  A    between atoms: C_12  and  O_13
REMARK                            x       y       z     vdW  Elec       q    Type
REMARK                         _______ _______ _______ _____ _____    ______ ____
ROOT
ATOM      1  N   UNL     1       4.736   4.119  18.231  0.00  0.00    +0.000 N 
ATOM      2  N   UNL     1       4.836   2.834  18.669  0.00  0.00    +0.000 NA
ATOM      3  C   UNL     1       4.149   2.798  19.807  0.00  0.00    +0.000 A 
ATOM      4  C   UNL     1       4.174   1.562  20.632  0.00  0.00    +0.000 C 
ATOM      5  C   UNL     1       3.437   4.002  20.028  0.00  0.00    +0.000 A 
ATOM      6  C   UNL     1       2.521   4.455  20.986  0.00  0.00    +0.000 A 
ATOM      7  N   UNL     1       1.975   5.674  20.907  0.00  0.00    +0.000 NA
ATOM      8  C   UNL     1       2.267   6.474  19.878  0.00  0.00    +0.000 A 
ATOM      9  C   UNL     1       1.625   7.705  19.843  0.00  0.00    +0.000 A 
ATOM     10  C   UNL     1       1.850   8.630  18.824  0.00  0.00    +0.000 A 
ATOM     11  C   UNL     1       2.702   8.305  17.783  0.00  0.00    +0.000 A 
ATOM     12  C   UNL     1       3.317   7.052  17.763  0.00  0.00    +0.000 A 
ATOM     13  C   UNL     1       3.160   6.137  18.835  0.00  0.00    +0.000 A 
ATOM     14  C   UNL     1       3.794   4.850  18.967  0.00  0.00    +0.000 A 
ENDROOT
BRANCH   1  20
ATOM     15  C   UNL     1       5.785   3.738  13.407  0.00  0.00    +0.000 C 
ATOM     16  C   UNL     1       6.062   4.345  14.752  0.00  0.00    +0.000 A 
ATOM     17  C   UNL     1       7.014   5.356  14.901  0.00  0.00    +0.000 A 
ATOM     18  C   UNL     1       7.288   5.887  16.161  0.00  0.00    +0.000 A 
ATOM     19  C   UNL     1       6.589   5.433  17.280  0.00  0.00    +0.000 A 
ATOM     20  C   UNL     1       5.558   4.499  17.132  0.00  0.00    +0.000 A 
ATOM     21  C   UNL     1       5.344   3.909  15.878  0.00  0.00    +0.000 A 
ENDBRANCH   1  20
BRANCH   6  22
ATOM     22  O   UNL     1       2.079   3.711  22.051  0.00  0.00    +0.000 OA
ATOM     23  H   UNL     1       1.775   2.858  21.719  0.00  0.00    +0.000 HD
ENDBRANCH   6  22
TORSDOF 2
ENDMDL
MODEL 8
REMARK VINA RESULT:      -7.7      2.533      5.331
REMARK  Name = 
REMARK  4 active torsions:
REMARK  status: ('A' for Active; 'I' for Inactive)
REMARK    1  A    between atoms: C_1  and  C_2
REMARK    2  A    between atoms: C_6  and  N_7
REMARK    3  A    between atoms: C_9  and  C_10
REMARK    4  A    between atoms: C_12  and  O_13
REMARK                            x       y       z     vdW  Elec       q    Type
REMARK                         _______ _______ _______ _____ _____    ______ ____
ROOT
ATOM      1  N   UNL     1       4.253   6.106  17.681  0.00  0.00    +0.000 N 
ATOM      2  N   UNL     1       4.010   7.417  17.410  0.00  0.00    +0.000 NA
ATOM      3  C   UNL     1       2.965   7.742  18.166  0.00  0.00    +0.000 A 
ATOM      4  C   UNL     1       2.341   9.082  18.006  0.00  0.00    +0.000 C 
ATOM      5  C   UNL     1       2.634   6.707  19.075  0.00  0.00    +0.000 A 
ATOM      6  C   UNL     1       1.713   6.559  20.120  0.00  0.00    +0.000 A 
ATOM      7  N   UNL     1       1.659   5.436  20.846  0.00  0.00    +0.000 NA
ATOM      8  C   UNL     1       2.518   4.442  20.610  0.00  0.00    +0.000 A 
ATOM      9  C   UNL     1       2.428   3.329  21.435  0.00  0.00    +0.000 A 
ATOM     10  C   UNL     1       3.265   2.224  21.284  0.00  0.00    +0.000 A 
ATOM     11  C   UNL     1       4.254   2.243  20.316  0.00  0.00    +0.000 A 
ATOM     12  C   UNL     1       4.404   3.373  19.510  0.00  0.00    +0.000 A 
ATOM     13  C   UNL     1       3.506   4.467  19.599  0.00  0.00    +0.000 A 
ATOM     14  C   UNL     1       3.511   5.652  18.779  0.00  0.00    +0.000 A 
ENDROOT
BRANCH   1  20
ATOM     15  C   UNL     1       5.261   3.896  13.365  0.00  0.00    +0.000 C 
ATOM     16  C   UNL     1       5.709   4.372  14.716  0.00  0.00    +0.000 A 
ATOM     17  C   UNL     1       7.050   4.278  15.102  0.00  0.00    +0.000 A 
ATOM     18  C   UNL     1       7.448   4.690  16.372  0.00  0.00    +0.000 A 
ATOM     19  C   UNL     1       6.516   5.231  17.259  0.00  0.00    +0.000 A 
ATOM     20  C   UNL     1       5.194   5.432  16.850  0.00  0.00    +0.000 A 
ATOM     21  C   UNL     1       4.780   4.940  15.604  0.00  0.00    +0.000 A 
ENDBRANCH   1  20
BRANCH   6  22
ATOM     22  O   UNL     1       0.825   7.527  20.517  0.00  0.00    +0.000 OA
ATOM     23  H   UNL     1       0.645   7.406  21.457  0.00  0.00    +0.000 HD
ENDBRANCH   6  22
TORSDOF 2
ENDMDL
MODEL 9
REMARK VINA RESULT:      -7.3      4.833      8.351
REMARK  Name = 
REMARK  4 active torsions:
REMARK  status: ('A' for Active; 'I' for Inactive)
REMARK    1  A    between atoms: C_1  and  C_2
REMARK    2  A    between atoms: C_6  and  N_7
REMARK    3  A    between atoms: C_9  and  C_10
REMARK    4  A    between atoms: C_12  and  O_13
REMARK                            x       y       z     vdW  Elec       q    Type
REMARK                         _______ _______ _______ _____ _____    ______ ____
ROOT
ATOM      1  N   UNL     1      -0.189  10.493  20.042  0.00  0.00    +0.000 N 
ATOM      2  N   UNL     1      -0.015  10.863  21.339  0.00  0.00    +0.000 NA
ATOM      3  C   UNL     1      -0.945  11.787  21.568  0.00  0.00    +0.000 A 
ATOM      4  C   UNL     1      -0.942  12.515  22.863  0.00  0.00    +0.000 C 
ATOM      5  C   UNL     1      -1.854  11.892  20.487  0.00  0.00    +0.000 A 
ATOM      6  C   UNL     1      -3.030  12.614  20.243  0.00  0.00    +0.000 A 
ATOM      7  N   UNL     1      -3.709  12.472  19.099  0.00  0.00    +0.000 NA
ATOM      8  C   UNL     1      -3.296  11.601  18.176  0.00  0.00    +0.000 A 
ATOM      9  C   UNL     1      -4.080  11.479  17.037  0.00  0.00    +0.000 A 
ATOM     10  C   UNL     1      -3.750  10.608  15.999  0.00  0.00    +0.000 A 
ATOM     11  C   UNL     1      -2.634   9.798  16.117  0.00  0.00    +0.000 A 
ATOM     12  C   UNL     1      -1.859   9.859  17.276  0.00  0.00    +0.000 A 
ATOM     13  C   UNL     1      -2.138  10.799  18.301  0.00  0.00    +0.000 A 
ATOM     14  C   UNL     1      -1.376  11.009  19.506  0.00  0.00    +0.000 A 
ENDROOT
BRANCH   1  20
ATOM     15  C   UNL     1       2.385   6.265  20.159  0.00  0.00    +0.000 C 
ATOM     16  C   UNL     1       2.060   7.569  19.490  0.00  0.00    +0.000 A 
ATOM     17  C   UNL     1       2.625   7.904  18.256  0.00  0.00    +0.000 A 
ATOM     18  C   UNL     1       2.343   9.132  17.662  0.00  0.00    +0.000 A 
ATOM     19  C   UNL     1       1.468  10.027  18.281  0.00  0.00    +0.000 A 
ATOM     20  C   UNL     1       0.811   9.662  19.460  0.00  0.00    +0.000 A 
ATOM     21  C   UNL     1       1.160   8.462  20.096  0.00  0.00    +0.000 A 
ENDBRANCH   1  20
BRANCH   6  22
ATOM     22  O   UNL     1      -3.605  13.485  21.134  0.00  0.00    +0.000 OA
ATOM     23  H   UNL     1      -4.369  13.892  20.708  0.00  0.00    +0.000 HD
ENDBRANCH   6  22
TORSDOF 2
ENDMDL
