MODEL 1
REMARK VINA RESULT:      -7.6      0.000      0.000
REMARK  Name = 
REMARK  10 active torsions:
REMARK  status: ('A' for Active; 'I' for Inactive)
REMARK    1  A    between atoms: N_1  and  C_2
REMARK    2  A    between atoms: C_2  and  C_3
REMARK    3  A    between atoms: C_2  and  C_10
REMARK    4  A    between atoms: C_3  and  C_4
REMARK    5  A    between atoms: C_10  and  C_12
REMARK    6  A    between atoms: C_12  and  C_13
REMARK    7  A    between atoms: C_13  and  C_14
REMARK    8  A    between atoms: C_14  and  O_16
REMARK    9  A    between atoms: O_16  and  C_17
REMARK   10  A    between atoms: C_17  and  C_18
REMARK                            x       y       z     vdW  Elec       q    Type
REMARK                         _______ _______ _______ _____ _____    ______ ____
ROOT
ATOM      1  C   UNL     1       6.108   5.002  16.775  0.00  0.00    +0.000 C 
ATOM      2  O   UNL     1       6.919   4.433  16.040  0.00  0.00    +0.000 OA
ENDROOT
BRANCH   1   3
ATOM      3  C   UNL     1       5.049   4.229  17.600  0.00  0.00    +0.000 C 
BRANCH   3   4
ATOM      4  N   UNL     1       5.664   3.754  18.857  0.00  0.00    +0.000 NA
ATOM      5  H   UNL     1       5.082   4.013  19.652  0.00  0.00    +0.000 HD
ATOM      6  H   UNL     1       6.561   4.226  18.984  0.00  0.00    +0.000 HD
ENDBRANCH   3   4
BRANCH   3   7
ATOM      7  C   UNL     1       3.814   5.118  17.857  0.00  0.00    +0.000 C 
BRANCH   7   8
ATOM      8  C   UNL     1       2.714   4.454  18.655  0.00  0.00    +0.000 A 
ATOM      9  C   UNL     1       2.347   4.953  19.913  0.00  0.00    +0.000 A 
ATOM     10  C   UNL     1       1.337   4.335  20.650  0.00  0.00    +0.000 A 
ATOM     11  C   UNL     1       0.680   3.217  20.138  0.00  0.00    +0.000 A 
ATOM     12  C   UNL     1       1.026   2.723  18.881  0.00  0.00    +0.000 A 
ATOM     13  C   UNL     1       2.032   3.342  18.141  0.00  0.00    +0.000 A 
ENDBRANCH   7   8
ENDBRANCH   3   7
ENDBRANCH   1   3
BRANCH   1  14
ATOM     14  C   UNL     1       6.110   6.512  16.912  0.00  0.00    +0.000 C 
BRANCH  14  15
ATOM     15  C   UNL     1       7.520   7.075  17.047  0.00  0.00    +0.000 C 
BRANCH  15  16
ATOM     16  C   UNL     1       7.982   6.985  18.483  0.00  0.00    +0.000 C 
ATOM     17  O   UNL     1       7.740   6.039  19.222  0.00  0.00    +0.000 OA
BRANCH  16  18
ATOM     18  O   UNL     1       8.684   8.099  18.816  0.00  0.00    +0.000 OA
BRANCH  18  19
ATOM     19  C   UNL     1       8.347   9.286  18.077  0.00  0.00    +0.000 C 
BRANCH  19  20
ATOM     20  C   UNL     1       9.056  10.469  18.683  0.00  0.00    +0.000 A 
ATOM     21  C   UNL     1       9.394  10.484  20.046  0.00  0.00    +0.000 A 
ATOM     22  C   UNL     1      10.045  11.587  20.601  0.00  0.00    +0.000 A 
ATOM     23  C   UNL     1      10.369  12.683  19.802  0.00  0.00    +0.000 A 
ATOM     24  C   UNL     1      10.044  12.676  18.446  0.00  0.00    +0.000 A 
ATOM     25  C   UNL     1       9.391  11.576  17.890  0.00  0.00    +0.000 A 
ENDBRANCH  19  20
ENDBRANCH  18  19
ENDBRANCH  16  18
ENDBRANCH  15  16
ENDBRANCH  14  15
ENDBRANCH   1  14
TORSDOF 10
ENDMDL
MODEL 2
REMARK VINA RESULT:      -7.3      1.376      1.784
REMARK  Name = 
REMARK  10 active torsions:
REMARK  status: ('A' for Active; 'I' for Inactive)
REMARK    1  A    between atoms: N_1  and  C_2
REMARK    2  A    between atoms: C_2  and  C_3
REMARK    3  A    between atoms: C_2  and  C_10
REMARK    4  A    between atoms: C_3  and  C_4
REMARK    5  A    between atoms: C_10  and  C_12
REMARK    6  A    between atoms: C_12  and  C_13
REMARK    7  A    between atoms: C_13  and  C_14
REMARK    8  A    between atoms: C_14  and  O_16
REMARK    9  A    between atoms: O_16  and  C_17
REMARK   10  A    between atoms: C_17  and  C_18
REMARK                            x       y       z     vdW  Elec       q    Type
REMARK                         _______ _______ _______ _____ _____    ______ ____
ROOT
ATOM      1  C   UNL     1       6.110   4.539  17.950  0.00  0.00    +0.000 C 
ATOM      2  O   UNL     1       5.549   4.281  16.882  0.00  0.00    +0.000 OA
ENDROOT
BRANCH   1   3
ATOM      3  C   UNL     1       5.374   4.476  19.312  0.00  0.00    +0.000 C 
BRANCH   3   4
ATOM      4  N   UNL     1       4.314   5.505  19.339  0.00  0.00    +0.000 NA
ATOM      5  H   UNL     1       3.817   5.472  20.229  0.00  0.00    +0.000 HD
ATOM      6  H   UNL     1       3.629   5.292  18.612  0.00  0.00    +0.000 HD
ENDBRANCH   3   4
BRANCH   3   7
ATOM      7  C   UNL     1       4.816   3.058  19.555  0.00  0.00    +0.000 C 
BRANCH   7   8
ATOM      8  C   UNL     1       3.306   2.974  19.597  0.00  0.00    +0.000 A 
ATOM      9  C   UNL     1       2.573   2.767  18.421  0.00  0.00    +0.000 A 
ATOM     10  C   UNL     1       1.180   2.696  18.461  0.00  0.00    +0.000 A 
ATOM     11  C   UNL     1       0.507   2.826  19.675  0.00  0.00    +0.000 A 
ATOM     12  C   UNL     1       1.229   3.015  20.852  0.00  0.00    +0.000 A 
ATOM     13  C   UNL     1       2.620   3.082  20.815  0.00  0.00    +0.000 A 
ENDBRANCH   7   8
ENDBRANCH   3   7
ENDBRANCH   1   3
BRANCH   1  14
ATOM     14  C   UNL     1       7.573   4.934  17.983  0.00  0.00    +0.000 C 
BRANCH  14  15
ATOM     15  C   UNL     1       7.814   6.175  18.833  0.00  0.00    +0.000 C 
BRANCH  15  16
ATOM     16  C   UNL     1       7.979   7.390  17.949  0.00  0.00    +0.000 C 
ATOM     17  O   UNL     1       7.700   7.411  16.757  0.00  0.00    +0.000 OA
BRANCH  16  18
ATOM     18  O   UNL     1       8.482   8.425  18.670  0.00  0.00    +0.000 OA
BRANCH  18  19
ATOM     19  C   UNL     1       8.426   9.710  18.028  0.00  0.00    +0.000 C 
BRANCH  19  20
ATOM     20  C   UNL     1       9.436  10.630  18.663  0.00  0.00    +0.000 A 
ATOM     21  C   UNL     1       9.497  10.778  20.057  0.00  0.00    +0.000 A 
ATOM     22  C   UNL     1      10.431  11.638  20.637  0.00  0.00    +0.000 A 
ATOM     23  C   UNL     1      11.317  12.354  19.832  0.00  0.00    +0.000 A 
ATOM     24  C   UNL     1      11.270  12.209  18.446  0.00  0.00    +0.000 A 
ATOM     25  C   UNL     1      10.335  11.353  17.865  0.00  0.00    +0.000 A 
ENDBRANCH  19  20
ENDBRANCH  18  19
ENDBRANCH  16  18
ENDBRANCH  15  16
ENDBRANCH  14  15
ENDBRANCH   1  14
TORSDOF 10
ENDMDL
MODEL 3
REMARK VINA RESULT:      -7.3      4.097      6.663
REMARK  Name = 
REMARK  10 active torsions:
REMARK  status: ('A' for Active; 'I' for Inactive)
REMARK    1  A    between atoms: N_1  and  C_2
REMARK    2  A    between atoms: C_2  and  C_3
REMARK    3  A    between atoms: C_2  and  C_10
REMARK    4  A    between atoms: C_3  and  C_4
REMARK    5  A    between atoms: C_10  and  C_12
REMARK    6  A    between atoms: C_12  and  C_13
REMARK    7  A    between atoms: C_13  and  C_14
REMARK    8  A    between atoms: C_14  and  O_16
REMARK    9  A    between atoms: O_16  and  C_17
REMARK   10  A    between atoms: C_17  and  C_18
REMARK                            x       y       z     vdW  Elec       q    Type
REMARK                         _______ _______ _______ _____ _____    ______ ____
ROOT
ATOM      1  C   UNL     1       2.115   2.385  18.760  0.00  0.00    +0.000 C 
ATOM      2  O   UNL     1       1.585   1.281  18.912  0.00  0.00    +0.000 OA
ENDROOT
BRANCH   1   3
ATOM      3  C   UNL     1       3.623   2.546  18.439  0.00  0.00    +0.000 C 
BRANCH   3   4
ATOM      4  N   UNL     1       4.167   1.245  17.998  0.00  0.00    +0.000 NA
ATOM      5  H   UNL     1       4.527   1.321  17.047  0.00  0.00    +0.000 HD
ATOM      6  H   UNL     1       3.408   0.562  17.972  0.00  0.00    +0.000 HD
ENDBRANCH   3   4
BRANCH   3   7
ATOM      7  C   UNL     1       3.831   3.652  17.385  0.00  0.00    +0.000 C 
BRANCH   7   8
ATOM      8  C   UNL     1       5.027   4.545  17.636  0.00  0.00    +0.000 A 
ATOM      9  C   UNL     1       5.594   5.285  16.589  0.00  0.00    +0.000 A 
ATOM     10  C   UNL     1       6.700   6.103  16.821  0.00  0.00    +0.000 A 
ATOM     11  C   UNL     1       7.249   6.193  18.100  0.00  0.00    +0.000 A 
ATOM     12  C   UNL     1       6.682   5.473  19.150  0.00  0.00    +0.000 A 
ATOM     13  C   UNL     1       5.574   4.659  18.922  0.00  0.00    +0.000 A 
ENDBRANCH   7   8
ENDBRANCH   3   7
ENDBRANCH   1   3
BRANCH   1  14
ATOM     14  C   UNL     1       1.302   3.659  18.876  0.00  0.00    +0.000 C 
BRANCH  14  15
ATOM     15  C   UNL     1       0.863   3.931  20.310  0.00  0.00    +0.000 C 
BRANCH  15  16
ATOM     16  C   UNL     1       2.068   4.184  21.186  0.00  0.00    +0.000 C 
ATOM     17  O   UNL     1       2.484   3.393  22.022  0.00  0.00    +0.000 OA
BRANCH  16  18
ATOM     18  O   UNL     1       2.596   5.404  20.910  0.00  0.00    +0.000 OA
BRANCH  18  19
ATOM     19  C   UNL     1       1.703   6.518  21.084  0.00  0.00    +0.000 C 
BRANCH  19  20
ATOM     20  C   UNL     1       1.855   7.466  19.922  0.00  0.00    +0.000 A 
ATOM     21  C   UNL     1       2.669   7.137  18.828  0.00  0.00    +0.000 A 
ATOM     22  C   UNL     1       2.810   8.023  17.759  0.00  0.00    +0.000 A 
ATOM     23  C   UNL     1       2.135   9.244  17.769  0.00  0.00    +0.000 A 
ATOM     24  C   UNL     1       1.318   9.578  18.848  0.00  0.00    +0.000 A 
ATOM     25  C   UNL     1       1.179   8.694  19.919  0.00  0.00    +0.000 A 
ENDBRANCH  19  20
ENDBRANCH  18  19
ENDBRANCH  16  18
ENDBRANCH  15  16
ENDBRANCH  14  15
ENDBRANCH   1  14
TORSDOF 10
ENDMDL
MODEL 4
REMARK VINA RESULT:      -7.2      3.758      7.722
REMARK  Name = 
REMARK  10 active torsions:
REMARK  status: ('A' for Active; 'I' for Inactive)
REMARK    1  A    between atoms: N_1  and  C_2
REMARK    2  A    between atoms: C_2  and  C_3
REMARK    3  A    between atoms: C_2  and  C_10
REMARK    4  A    between atoms: C_3  and  C_4
REMARK    5  A    between atoms: C_10  and  C_12
REMARK    6  A    between atoms: C_12  and  C_13
REMARK    7  A    between atoms: C_13  and  C_14
REMARK    8  A    between atoms: C_14  and  O_16
REMARK    9  A    between atoms: O_16  and  C_17
REMARK   10  A    between atoms: C_17  and  C_18
REMARK                            x       y       z     vdW  Elec       q    Type
REMARK                         _______ _______ _______ _____ _____    ______ ____
ROOT
ATOM      1  C   UNL     1       6.662   6.545  16.953  0.00  0.00    +0.000 C 
ATOM      2  O   UNL     1       7.039   7.718  16.902  0.00  0.00    +0.000 OA
ENDROOT
BRANCH   1   3
ATOM      3  C   UNL     1       5.421   6.035  16.178  0.00  0.00    +0.000 C 
BRANCH   3   4
ATOM      4  N   UNL     1       5.174   6.920  15.021  0.00  0.00    +0.000 NA
ATOM      5  H   UNL     1       5.070   7.885  15.334  0.00  0.00    +0.000 HD
ATOM      6  H   UNL     1       4.289   6.655  14.586  0.00  0.00    +0.000 HD
ENDBRANCH   3   4
BRANCH   3   7
ATOM      7  C   UNL     1       5.619   4.565  15.755  0.00  0.00    +0.000 C 
BRANCH   7   8
ATOM      8  C   UNL     1       6.134   4.379  14.344  0.00  0.00    +0.000 A 
ATOM      9  C   UNL     1       5.434   3.577  13.432  0.00  0.00    +0.000 A 
ATOM     10  C   UNL     1       5.913   3.402  12.133  0.00  0.00    +0.000 A 
ATOM     11  C   UNL     1       7.092   4.029  11.732  0.00  0.00    +0.000 A 
ATOM     12  C   UNL     1       7.786   4.841  12.626  0.00  0.00    +0.000 A 
ATOM     13  C   UNL     1       7.307   5.022  13.923  0.00  0.00    +0.000 A 
ENDBRANCH   7   8
ENDBRANCH   3   7
ENDBRANCH   1   3
BRANCH   1  14
ATOM     14  C   UNL     1       7.410   5.525  17.789  0.00  0.00    +0.000 C 
BRANCH  14  15
ATOM     15  C   UNL     1       6.978   5.551  19.250  0.00  0.00    +0.000 C 
BRANCH  15  16
ATOM     16  C   UNL     1       5.667   4.818  19.419  0.00  0.00    +0.000 C 
ATOM     17  O   UNL     1       5.510   3.629  19.171  0.00  0.00    +0.000 OA
BRANCH  16  18
ATOM     18  O   UNL     1       4.712   5.672  19.870  0.00  0.00    +0.000 OA
BRANCH  18  19
ATOM     19  C   UNL     1       3.600   5.880  18.983  0.00  0.00    +0.000 C 
BRANCH  19  20
ATOM     20  C   UNL     1       2.577   4.796  19.201  0.00  0.00    +0.000 A 
ATOM     21  C   UNL     1       2.128   4.005  18.132  0.00  0.00    +0.000 A 
ATOM     22  C   UNL     1       1.175   3.008  18.342  0.00  0.00    +0.000 A 
ATOM     23  C   UNL     1       0.663   2.786  19.620  0.00  0.00    +0.000 A 
ATOM     24  C   UNL     1       1.107   3.561  20.691  0.00  0.00    +0.000 A 
ATOM     25  C   UNL     1       2.057   4.561  20.483  0.00  0.00    +0.000 A 
ENDBRANCH  19  20
ENDBRANCH  18  19
ENDBRANCH  16  18
ENDBRANCH  15  16
ENDBRANCH  14  15
ENDBRANCH   1  14
TORSDOF 10
ENDMDL
MODEL 5
REMARK VINA RESULT:      -7.2      3.616      6.699
REMARK  Name = 
REMARK  10 active torsions:
REMARK  status: ('A' for Active; 'I' for Inactive)
REMARK    1  A    between atoms: N_1  and  C_2
REMARK    2  A    between atoms: C_2  and  C_3
REMARK    3  A    between atoms: C_2  and  C_10
REMARK    4  A    between atoms: C_3  and  C_4
REMARK    5  A    between atoms: C_10  and  C_12
REMARK    6  A    between atoms: C_12  and  C_13
REMARK    7  A    between atoms: C_13  and  C_14
REMARK    8  A    between atoms: C_14  and  O_16
REMARK    9  A    between atoms: O_16  and  C_17
REMARK   10  A    between atoms: C_17  and  C_18
REMARK                            x       y       z     vdW  Elec       q    Type
REMARK                         _______ _______ _______ _____ _____    ______ ____
ROOT
ATOM      1  C   UNL     1       2.806   2.772  18.722  0.00  0.00    +0.000 C 
ATOM      2  O   UNL     1       2.606   1.561  18.596  0.00  0.00    +0.000 OA
ENDROOT
BRANCH   1   3
ATOM      3  C   UNL     1       4.224   3.364  18.928  0.00  0.00    +0.000 C 
BRANCH   3   4
ATOM      4  N   UNL     1       5.093   2.339  19.543  0.00  0.00    +0.000 NA
ATOM      5  H   UNL     1       5.461   2.680  20.431  0.00  0.00    +0.000 HD
ATOM      6  H   UNL     1       5.897   2.179  18.933  0.00  0.00    +0.000 HD
ENDBRANCH   3   4
BRANCH   3   7
ATOM      7  C   UNL     1       4.790   3.880  17.588  0.00  0.00    +0.000 C 
BRANCH   7   8
ATOM      8  C   UNL     1       5.762   5.032  17.717  0.00  0.00    +0.000 A 
ATOM      9  C   UNL     1       6.823   4.969  18.630  0.00  0.00    +0.000 A 
ATOM     10  C   UNL     1       7.714   6.035  18.751  0.00  0.00    +0.000 A 
ATOM     11  C   UNL     1       7.558   7.172  17.959  0.00  0.00    +0.000 A 
ATOM     12  C   UNL     1       6.515   7.238  17.037  0.00  0.00    +0.000 A 
ATOM     13  C   UNL     1       5.626   6.172  16.911  0.00  0.00    +0.000 A 
ENDBRANCH   7   8
ENDBRANCH   3   7
ENDBRANCH   1   3
BRANCH   1  14
ATOM     14  C   UNL     1       1.656   3.758  18.677  0.00  0.00    +0.000 C 
BRANCH  14  15
ATOM     15  C   UNL     1       0.942   3.869  20.019  0.00  0.00    +0.000 C 
BRANCH  15  16
ATOM     16  C   UNL     1       1.920   4.269  21.099  0.00  0.00    +0.000 C 
ATOM     17  O   UNL     1       2.191   3.571  22.068  0.00  0.00    +0.000 OA
BRANCH  16  18
ATOM     18  O   UNL     1       2.429   5.499  20.834  0.00  0.00    +0.000 OA
BRANCH  18  19
ATOM     19  C   UNL     1       1.525   6.599  21.034  0.00  0.00    +0.000 C 
BRANCH  19  20
ATOM     20  C   UNL     1       1.710   7.605  19.929  0.00  0.00    +0.000 A 
ATOM     21  C   UNL     1       2.464   7.289  18.788  0.00  0.00    +0.000 A 
ATOM     22  C   UNL     1       2.636   8.229  17.771  0.00  0.00    +0.000 A 
ATOM     23  C   UNL     1       2.054   9.492  17.880  0.00  0.00    +0.000 A 
ATOM     24  C   UNL     1       1.298   9.815  19.005  0.00  0.00    +0.000 A 
ATOM     25  C   UNL     1       1.127   8.877  20.024  0.00  0.00    +0.000 A 
ENDBRANCH  19  20
ENDBRANCH  18  19
ENDBRANCH  16  18
ENDBRANCH  15  16
ENDBRANCH  14  15
ENDBRANCH   1  14
TORSDOF 10
ENDMDL
MODEL 6
REMARK VINA RESULT:      -7.1      3.849      6.848
REMARK  Name = 
REMARK  10 active torsions:
REMARK  status: ('A' for Active; 'I' for Inactive)
REMARK    1  A    between atoms: N_1  and  C_2
REMARK    2  A    between atoms: C_2  and  C_3
REMARK    3  A    between atoms: C_2  and  C_10
REMARK    4  A    between atoms: C_3  and  C_4
REMARK    5  A    between atoms: C_10  and  C_12
REMARK    6  A    between atoms: C_12  and  C_13
REMARK    7  A    between atoms: C_13  and  C_14
REMARK    8  A    between atoms: C_14  and  O_16
REMARK    9  A    between atoms: O_16  and  C_17
REMARK   10  A    between atoms: C_17  and  C_18
REMARK                            x       y       z     vdW  Elec       q    Type
REMARK                         _______ _______ _______ _____ _____    ______ ____
ROOT
ATOM      1  C   UNL     1       2.688   3.038  18.148  0.00  0.00    +0.000 C 
ATOM      2  O   UNL     1       2.118   3.729  17.299  0.00  0.00    +0.000 OA
ENDROOT
BRANCH   1   3
ATOM      3  C   UNL     1       4.227   3.050  18.333  0.00  0.00    +0.000 C 
BRANCH   3   4
ATOM      4  N   UNL     1       4.874   3.155  17.009  0.00  0.00    +0.000 NA
ATOM      5  H   UNL     1       5.888   3.147  17.113  0.00  0.00    +0.000 HD
ATOM      6  H   UNL     1       4.629   4.056  16.592  0.00  0.00    +0.000 HD
ENDBRANCH   3   4
BRANCH   3   7
ATOM      7  C   UNL     1       4.645   4.195  19.278  0.00  0.00    +0.000 C 
BRANCH   7   8
ATOM      8  C   UNL     1       5.565   5.223  18.655  0.00  0.00    +0.000 A 
ATOM      9  C   UNL     1       5.115   6.035  17.605  0.00  0.00    +0.000 A 
ATOM     10  C   UNL     1       5.967   6.978  17.028  0.00  0.00    +0.000 A 
ATOM     11  C   UNL     1       7.272   7.121  17.496  0.00  0.00    +0.000 A 
ATOM     12  C   UNL     1       7.723   6.329  18.551  0.00  0.00    +0.000 A 
ATOM     13  C   UNL     1       6.873   5.390  19.132  0.00  0.00    +0.000 A 
ENDBRANCH   7   8
ENDBRANCH   3   7
ENDBRANCH   1   3
BRANCH   1  14
ATOM     14  C   UNL     1       1.898   2.132  19.070  0.00  0.00    +0.000 C 
BRANCH  14  15
ATOM     15  C   UNL     1       0.814   2.887  19.828  0.00  0.00    +0.000 C 
BRANCH  15  16
ATOM     16  C   UNL     1       1.439   3.869  20.793  0.00  0.00    +0.000 C 
ATOM     17  O   UNL     1       2.080   3.540  21.783  0.00  0.00    +0.000 OA
BRANCH  16  18
ATOM     18  O   UNL     1       1.173   5.141  20.400  0.00  0.00    +0.000 OA
BRANCH  18  19
ATOM     19  C   UNL     1       2.210   6.100  20.666  0.00  0.00    +0.000 C 
BRANCH  19  20
ATOM     20  C   UNL     1       1.910   7.379  19.928  0.00  0.00    +0.000 A 
ATOM     21  C   UNL     1       2.310   7.549  18.594  0.00  0.00    +0.000 A 
ATOM     22  C   UNL     1       2.034   8.739  17.919  0.00  0.00    +0.000 A 
ATOM     23  C   UNL     1       1.352   9.768  18.566  0.00  0.00    +0.000 A 
ATOM     24  C   UNL     1       0.943   9.608  19.889  0.00  0.00    +0.000 A 
ATOM     25  C   UNL     1       1.221   8.420  20.567  0.00  0.00    +0.000 A 
ENDBRANCH  19  20
ENDBRANCH  18  19
ENDBRANCH  16  18
ENDBRANCH  15  16
ENDBRANCH  14  15
ENDBRANCH   1  14
TORSDOF 10
ENDMDL
MODEL 7
REMARK VINA RESULT:      -7.1      2.451      3.268
REMARK  Name = 
REMARK  10 active torsions:
REMARK  status: ('A' for Active; 'I' for Inactive)
REMARK    1  A    between atoms: N_1  and  C_2
REMARK    2  A    between atoms: C_2  and  C_3
REMARK    3  A    between atoms: C_2  and  C_10
REMARK    4  A    between atoms: C_3  and  C_4
REMARK    5  A    between atoms: C_10  and  C_12
REMARK    6  A    between atoms: C_12  and  C_13
REMARK    7  A    between atoms: C_13  and  C_14
REMARK    8  A    between atoms: C_14  and  O_16
REMARK    9  A    between atoms: O_16  and  C_17
REMARK   10  A    between atoms: C_17  and  C_18
REMARK                            x       y       z     vdW  Elec       q    Type
REMARK                         _______ _______ _______ _____ _____    ______ ____
ROOT
ATOM      1  C   UNL     1       5.254   5.391  18.663  0.00  0.00    +0.000 C 
ATOM      2  O   UNL     1       4.747   4.851  19.650  0.00  0.00    +0.000 OA
ENDROOT
BRANCH   1   3
ATOM      3  C   UNL     1       4.487   6.416  17.790  0.00  0.00    +0.000 C 
BRANCH   3   4
ATOM      4  N   UNL     1       4.878   6.239  16.377  0.00  0.00    +0.000 NA
ATOM      5  H   UNL     1       4.527   5.348  16.025  0.00  0.00    +0.000 HD
ATOM      6  H   UNL     1       5.897   6.196  16.319  0.00  0.00    +0.000 HD
ENDBRANCH   3   4
BRANCH   3   7
ATOM      7  C   UNL     1       2.966   6.264  17.997  0.00  0.00    +0.000 C 
BRANCH   7   8
ATOM      8  C   UNL     1       2.285   7.479  18.587  0.00  0.00    +0.000 A 
ATOM      9  C   UNL     1       1.998   8.593  17.785  0.00  0.00    +0.000 A 
ATOM     10  C   UNL     1       1.375   9.715  18.333  0.00  0.00    +0.000 A 
ATOM     11  C   UNL     1       1.030   9.735  19.684  0.00  0.00    +0.000 A 
ATOM     12  C   UNL     1       1.297   8.627  20.485  0.00  0.00    +0.000 A 
ATOM     13  C   UNL     1       1.914   7.502  19.939  0.00  0.00    +0.000 A 
ENDBRANCH   7   8
ENDBRANCH   3   7
ENDBRANCH   1   3
BRANCH   1  14
ATOM     14  C   UNL     1       6.679   5.077  18.252  0.00  0.00    +0.000 C 
BRANCH  14  15
ATOM     15  C   UNL     1       7.680   6.053  18.856  0.00  0.00    +0.000 C 
BRANCH  15  16
ATOM     16  C   UNL     1       7.932   7.199  17.904  0.00  0.00    +0.000 C 
ATOM     17  O   UNL     1       7.720   7.146  16.699  0.00  0.00    +0.000 OA
BRANCH  16  18
ATOM     18  O   UNL     1       8.428   8.266  18.580  0.00  0.00    +0.000 OA
BRANCH  18  19
ATOM     19  C   UNL     1       8.379   9.520  17.879  0.00  0.00    +0.000 C 
BRANCH  19  20
ATOM     20  C   UNL     1       9.252  10.523  18.587  0.00  0.00    +0.000 A 
ATOM     21  C   UNL     1       9.987  11.474  17.863  0.00  0.00    +0.000 A 
ATOM     22  C   UNL     1      10.799  12.396  18.526  0.00  0.00    +0.000 A 
ATOM     23  C   UNL     1      10.882  12.380  19.918  0.00  0.00    +0.000 A 
ATOM     24  C   UNL     1      10.151  11.445  20.648  0.00  0.00    +0.000 A 
ATOM     25  C   UNL     1       9.341  10.521  19.987  0.00  0.00    +0.000 A 
ENDBRANCH  19  20
ENDBRANCH  18  19
ENDBRANCH  16  18
ENDBRANCH  15  16
ENDBRANCH  14  15
ENDBRANCH   1  14
TORSDOF 10
ENDMDL
MODEL 8
REMARK VINA RESULT:      -7.1      3.723      7.592
REMARK  Name = 
REMARK  10 active torsions:
REMARK  status: ('A' for Active; 'I' for Inactive)
REMARK    1  A    between atoms: N_1  and  C_2
REMARK    2  A    between atoms: C_2  and  C_3
REMARK    3  A    between atoms: C_2  and  C_10
REMARK    4  A    between atoms: C_3  and  C_4
REMARK    5  A    between atoms: C_10  and  C_12
REMARK    6  A    between atoms: C_12  and  C_13
REMARK    7  A    between atoms: C_13  and  C_14
REMARK    8  A    between atoms: C_14  and  O_16
REMARK    9  A    between atoms: O_16  and  C_17
REMARK   10  A    between atoms: C_17  and  C_18
REMARK                            x       y       z     vdW  Elec       q    Type
REMARK                         _______ _______ _______ _____ _____    ______ ____
ROOT
ATOM      1  C   UNL     1       6.437   5.877  18.069  0.00  0.00    +0.000 C 
ATOM      2  O   UNL     1       6.339   5.558  19.257  0.00  0.00    +0.000 OA
ENDROOT
BRANCH   1   3
ATOM      3  C   UNL     1       7.205   5.015  17.037  0.00  0.00    +0.000 C 
BRANCH   3   4
ATOM      4  N   UNL     1       8.139   4.120  17.751  0.00  0.00    +0.000 NA
ATOM      5  H   UNL     1       8.184   3.215  17.282  0.00  0.00    +0.000 HD
ATOM      6  H   UNL     1       7.776   3.946  18.690  0.00  0.00    +0.000 HD
ENDBRANCH   3   4
BRANCH   3   7
ATOM      7  C   UNL     1       6.216   4.234  16.147  0.00  0.00    +0.000 C 
BRANCH   7   8
ATOM      8  C   UNL     1       6.528   4.279  14.667  0.00  0.00    +0.000 A 
ATOM      9  C   UNL     1       7.505   5.154  14.173  0.00  0.00    +0.000 A 
ATOM     10  C   UNL     1       7.787   5.198  12.807  0.00  0.00    +0.000 A 
ATOM     11  C   UNL     1       7.099   4.367  11.923  0.00  0.00    +0.000 A 
ATOM     12  C   UNL     1       6.137   3.483  12.407  0.00  0.00    +0.000 A 
ATOM     13  C   UNL     1       5.858   3.433  13.772  0.00  0.00    +0.000 A 
ENDBRANCH   7   8
ENDBRANCH   3   7
ENDBRANCH   1   3
BRANCH   1  14
ATOM     14  C   UNL     1       5.796   7.150  17.552  0.00  0.00    +0.000 C 
BRANCH  14  15
ATOM     15  C   UNL     1       4.463   6.883  16.864  0.00  0.00    +0.000 C 
BRANCH  15  16
ATOM     16  C   UNL     1       3.329   7.458  17.680  0.00  0.00    +0.000 C 
ATOM     17  O   UNL     1       2.811   8.546  17.461  0.00  0.00    +0.000 OA
BRANCH  16  18
ATOM     18  O   UNL     1       2.991   6.600  18.676  0.00  0.00    +0.000 OA
BRANCH  18  19
ATOM     19  C   UNL     1       2.011   5.607  18.332  0.00  0.00    +0.000 C 
BRANCH  19  20
ATOM     20  C   UNL     1       2.612   4.235  18.492  0.00  0.00    +0.000 A 
ATOM     21  C   UNL     1       3.385   3.916  19.619  0.00  0.00    +0.000 A 
ATOM     22  C   UNL     1       3.943   2.645  19.757  0.00  0.00    +0.000 A 
ATOM     23  C   UNL     1       3.733   1.678  18.774  0.00  0.00    +0.000 A 
ATOM     24  C   UNL     1       2.962   1.981  17.654  0.00  0.00    +0.000 A 
ATOM     25  C   UNL     1       2.405   3.253  17.513  0.00  0.00    +0.000 A 
ENDBRANCH  19  20
ENDBRANCH  18  19
ENDBRANCH  16  18
ENDBRANCH  15  16
ENDBRANCH  14  15
ENDBRANCH   1  14
TORSDOF 10
ENDMDL
MODEL 9
REMARK VINA RESULT:      -7.0      4.280      5.870
REMARK  Name = 
REMARK  10 active torsions:
REMARK  status: ('A' for Active; 'I' for Inactive)
REMARK    1  A    between atoms: N_1  and  C_2
REMARK    2  A    between atoms: C_2  and  C_3
REMARK    3  A    between atoms: C_2  and  C_10
REMARK    4  A    between atoms: C_3  and  C_4
REMARK    5  A    between atoms: C_10  and  C_12
REMARK    6  A    between atoms: C_12  and  C_13
REMARK    7  A    between atoms: C_13  and  C_14
REMARK    8  A    between atoms: C_14  and  O_16
REMARK    9  A    between atoms: O_16  and  C_17
REMARK   10  A    between atoms: C_17  and  C_18
REMARK                            x       y       z     vdW  Elec       q    Type
REMARK                         _______ _______ _______ _____ _____    ______ ____
ROOT
ATOM      1  C   UNL     1       4.140   6.587  18.003  0.00  0.00    +0.000 C 
ATOM      2  O   UNL     1       4.624   7.002  16.947  0.00  0.00    +0.000 OA
ENDROOT
BRANCH   1   3
ATOM      3  C   UNL     1       2.656   6.818  18.385  0.00  0.00    +0.000 C 
BRANCH   3   4
ATOM      4  N   UNL     1       2.206   8.108  17.822  0.00  0.00    +0.000 NA
ATOM      5  H   UNL     1       1.189   8.124  17.753  0.00  0.00    +0.000 HD
ATOM      6  H   UNL     1       2.566   8.196  16.870  0.00  0.00    +0.000 HD
ENDBRANCH   3   4
BRANCH   3   7
ATOM      7  C   UNL     1       1.788   5.638  17.905  0.00  0.00    +0.000 C 
BRANCH   7   8
ATOM      8  C   UNL     1       1.723   4.470  18.866  0.00  0.00    +0.000 A 
ATOM      9  C   UNL     1       1.924   3.161  18.408  0.00  0.00    +0.000 A 
ATOM     10  C   UNL     1       1.858   2.086  19.295  0.00  0.00    +0.000 A 
ATOM     11  C   UNL     1       1.595   2.307  20.646  0.00  0.00    +0.000 A 
ATOM     12  C   UNL     1       1.411   3.607  21.113  0.00  0.00    +0.000 A 
ATOM     13  C   UNL     1       1.481   4.684  20.230  0.00  0.00    +0.000 A 
ENDBRANCH   7   8
ENDBRANCH   3   7
ENDBRANCH   1   3
BRANCH   1  14
ATOM     14  C   UNL     1       4.987   5.812  18.994  0.00  0.00    +0.000 C 
BRANCH  14  15
ATOM     15  C   UNL     1       5.625   4.580  18.364  0.00  0.00    +0.000 C 
BRANCH  15  16
ATOM     16  C   UNL     1       7.040   4.889  17.933  0.00  0.00    +0.000 C 
ATOM     17  O   UNL     1       7.819   5.576  18.582  0.00  0.00    +0.000 OA
BRANCH  16  18
ATOM     18  O   UNL     1       7.300   4.304  16.735  0.00  0.00    +0.000 OA
BRANCH  18  19
ATOM     19  C   UNL     1       6.152   4.054  15.907  0.00  0.00    +0.000 C 
BRANCH  19  20
ATOM     20  C   UNL     1       6.535   4.216  14.459  0.00  0.00    +0.000 A 
ATOM     21  C   UNL     1       7.554   5.103  14.081  0.00  0.00    +0.000 A 
ATOM     22  C   UNL     1       7.899   5.252  12.737  0.00  0.00    +0.000 A 
ATOM     23  C   UNL     1       7.233   4.515  11.758  0.00  0.00    +0.000 A 
ATOM     24  C   UNL     1       6.224   3.626  12.123  0.00  0.00    +0.000 A 
ATOM     25  C   UNL     1       5.876   3.478  13.466  0.00  0.00    +0.000 A 
ENDBRANCH  19  20
ENDBRANCH  18  19
ENDBRANCH  16  18
ENDBRANCH  15  16
ENDBRANCH  14  15
ENDBRANCH   1  14
TORSDOF 10
ENDMDL
