MODEL 1
REMARK VINA RESULT:      -7.7      0.000      0.000
REMARK  Name = 
REMARK  4 active torsions:
REMARK  status: ('A' for Active; 'I' for Inactive)
REMARK    1  A    between atoms: C_2  and  C_3
REMARK    2  A    between atoms: C_3  and  C_4
REMARK    3  A    between atoms: N_6  and  C_7
REMARK    4  A    between atoms: C_10  and  C_11
REMARK                            x       y       z     vdW  Elec       q    Type
REMARK                         _______ _______ _______ _____ _____    ______ ____
ROOT
ATOM      1  C   UNL     1       4.313   3.838  17.654  0.00  0.00    +0.000 A 
ATOM      2  N   UNL     1       4.210   2.603  17.180  0.00  0.00    +0.000 NA
ATOM      3  N   UNL     1       3.214   1.940  17.875  0.00  0.00    +0.000 NA
ATOM      4  C   UNL     1       2.711   2.793  18.736  0.00  0.00    +0.000 A 
ATOM      5  C   UNL     1       1.659   2.587  19.709  0.00  0.00    +0.000 A 
ATOM      6  N   UNL     1       1.179   3.554  20.451  0.00  0.00    +0.000 NA
ATOM      7  C   UNL     1       1.747   4.766  20.203  0.00  0.00    +0.000 A 
ATOM      8  N   UNL     1       1.330   5.925  20.790  0.00  0.00    +0.000 N 
ATOM      9  C   UNL     1       2.059   6.976  20.274  0.00  0.00    +0.000 A 
ATOM     10  C   UNL     1       2.993   6.474  19.379  0.00  0.00    +0.000 A 
ATOM     11  C   UNL     1       2.773   5.091  19.332  0.00  0.00    +0.000 A 
ATOM     12  N   UNL     1       3.306   4.025  18.582  0.00  0.00    +0.000 N 
ATOM     13  H   UNL     1       0.573   5.996  21.463  0.00  0.00    +0.000 HD
ENDROOT
BRANCH   1  17
ATOM     14  C   UNL     1       6.532   4.696  15.079  0.00  0.00    +0.000 C 
ATOM     15  C   UNL     1       5.719   5.990  15.122  0.00  0.00    +0.000 C 
ATOM     16  C   UNL     1       4.830   5.938  16.368  0.00  0.00    +0.000 C 
ATOM     17  C   UNL     1       5.367   4.841  17.286  0.00  0.00    +0.000 C 
ATOM     18  C   UNL     1       6.587   4.249  16.548  0.00  0.00    +0.000 C 
BRANCH  14  21
ATOM     19  C   UNL     1       6.321   3.640  12.805  0.00  0.00    +0.000 C 
ATOM     20  O   UNL     1       7.154   4.388  12.297  0.00  0.00    +0.000 OA
ATOM     21  N   UNL     1       5.969   3.699  14.166  0.00  0.00    +0.000 N 
ATOM     22  H   UNL     1       5.223   3.113  14.522  0.00  0.00    +0.000 HD
BRANCH  19  23
ATOM     23  C   UNL     1       5.526   2.621  12.017  0.00  0.00    +0.000 C 
BRANCH  23  25
ATOM     24  N   UNL     1       3.340   3.475  10.527  0.00  0.00    +0.000 NA
ATOM     25  C   UNL     1       4.331   3.088  11.203  0.00  0.00    +0.000 C 
ENDBRANCH  23  25
ENDBRANCH  19  23
ENDBRANCH  14  21
ENDBRANCH   1  17
TORSDOF 4
ENDMDL
MODEL 2
REMARK VINA RESULT:      -6.7      1.339      1.383
REMARK  Name = 
REMARK  4 active torsions:
REMARK  status: ('A' for Active; 'I' for Inactive)
REMARK    1  A    between atoms: C_2  and  C_3
REMARK    2  A    between atoms: C_3  and  C_4
REMARK    3  A    between atoms: N_6  and  C_7
REMARK    4  A    between atoms: C_10  and  C_11
REMARK                            x       y       z     vdW  Elec       q    Type
REMARK                         _______ _______ _______ _____ _____    ______ ____
ROOT
ATOM      1  C   UNL     1       4.629   3.945  18.554  0.00  0.00    +0.000 A 
ATOM      2  N   UNL     1       4.675   2.689  18.129  0.00  0.00    +0.000 NA
ATOM      3  N   UNL     1       3.594   2.001  18.651  0.00  0.00    +0.000 NA
ATOM      4  C   UNL     1       2.896   2.859  19.357  0.00  0.00    +0.000 A 
ATOM      5  C   UNL     1       1.686   2.634  20.120  0.00  0.00    +0.000 A 
ATOM      6  N   UNL     1       1.028   3.603  20.709  0.00  0.00    +0.000 NA
ATOM      7  C   UNL     1       1.578   4.833  20.516  0.00  0.00    +0.000 A 
ATOM      8  N   UNL     1       1.004   5.990  20.955  0.00  0.00    +0.000 N 
ATOM      9  C   UNL     1       1.771   7.058  20.539  0.00  0.00    +0.000 A 
ATOM     10  C   UNL     1       2.882   6.572  19.865  0.00  0.00    +0.000 A 
ATOM     11  C   UNL     1       2.738   5.178  19.843  0.00  0.00    +0.000 A 
ATOM     12  N   UNL     1       3.453   4.114  19.262  0.00  0.00    +0.000 N 
ATOM     13  H   UNL     1       0.128   6.046  21.467  0.00  0.00    +0.000 HD
ENDROOT
BRANCH   1  17
ATOM     14  C   UNL     1       6.903   5.138  16.168  0.00  0.00    +0.000 C 
ATOM     15  C   UNL     1       6.086   6.415  16.363  0.00  0.00    +0.000 C 
ATOM     16  C   UNL     1       5.169   6.198  17.571  0.00  0.00    +0.000 C 
ATOM     17  C   UNL     1       5.688   4.989  18.347  0.00  0.00    +0.000 C 
ATOM     18  C   UNL     1       6.926   4.499  17.565  0.00  0.00    +0.000 C 
BRANCH  14  21
ATOM     19  C   UNL     1       6.687   4.444  13.759  0.00  0.00    +0.000 C 
ATOM     20  O   UNL     1       7.473   5.301  13.362  0.00  0.00    +0.000 OA
ATOM     21  N   UNL     1       6.364   4.272  15.117  0.00  0.00    +0.000 N 
ATOM     22  H   UNL     1       5.654   3.602  15.388  0.00  0.00    +0.000 HD
BRANCH  19  23
ATOM     23  C   UNL     1       5.920   3.525  12.832  0.00  0.00    +0.000 C 
BRANCH  23  25
ATOM     24  N   UNL     1       7.329   1.920  11.052  0.00  0.00    +0.000 NA
ATOM     25  C   UNL     1       6.690   2.648  11.859  0.00  0.00    +0.000 C 
ENDBRANCH  23  25
ENDBRANCH  19  23
ENDBRANCH  14  21
ENDBRANCH   1  17
TORSDOF 4
ENDMDL
MODEL 3
REMARK VINA RESULT:      -6.5      3.792      6.070
REMARK  Name = 
REMARK  4 active torsions:
REMARK  status: ('A' for Active; 'I' for Inactive)
REMARK    1  A    between atoms: C_2  and  C_3
REMARK    2  A    between atoms: C_3  and  C_4
REMARK    3  A    between atoms: N_6  and  C_7
REMARK    4  A    between atoms: C_10  and  C_11
REMARK                            x       y       z     vdW  Elec       q    Type
REMARK                         _______ _______ _______ _____ _____    ______ ____
ROOT
ATOM      1  C   UNL     1       2.043   7.992  18.590  0.00  0.00    +0.000 A 
ATOM      2  N   UNL     1       2.625   8.491  17.507  0.00  0.00    +0.000 NA
ATOM      3  N   UNL     1       2.296   9.831  17.400  0.00  0.00    +0.000 NA
ATOM      4  C   UNL     1       1.547  10.128  18.436  0.00  0.00    +0.000 A 
ATOM      5  C   UNL     1       0.932  11.393  18.777  0.00  0.00    +0.000 A 
ATOM      6  N   UNL     1       0.280  11.586  19.897  0.00  0.00    +0.000 NA
ATOM      7  C   UNL     1       0.258  10.494  20.711  0.00  0.00    +0.000 A 
ATOM      8  N   UNL     1      -0.279  10.504  21.966  0.00  0.00    +0.000 N 
ATOM      9  C   UNL     1      -0.077   9.270  22.549  0.00  0.00    +0.000 A 
ATOM     10  C   UNL     1       0.554   8.442  21.632  0.00  0.00    +0.000 A 
ATOM     11  C   UNL     1       0.773   9.228  20.492  0.00  0.00    +0.000 A 
ATOM     12  N   UNL     1       1.426   9.032  19.261  0.00  0.00    +0.000 N 
ATOM     13  H   UNL     1      -0.714  11.310  22.405  0.00  0.00    +0.000 HD
ENDROOT
BRANCH   1  17
ATOM     14  C   UNL     1       3.764   4.969  18.157  0.00  0.00    +0.000 C 
ATOM     15  C   UNL     1       3.901   5.095  19.675  0.00  0.00    +0.000 C 
ATOM     16  C   UNL     1       2.991   6.241  20.128  0.00  0.00    +0.000 C 
ATOM     17  C   UNL     1       2.014   6.547  18.994  0.00  0.00    +0.000 C 
ATOM     18  C   UNL     1       2.375   5.559  17.864  0.00  0.00    +0.000 C 
BRANCH  14  21
ATOM     19  C   UNL     1       6.198   5.209  17.570  0.00  0.00    +0.000 C 
ATOM     20  O   UNL     1       6.540   4.261  18.275  0.00  0.00    +0.000 OA
ATOM     21  N   UNL     1       4.859   5.615  17.431  0.00  0.00    +0.000 N 
ATOM     22  H   UNL     1       4.635   6.448  16.899  0.00  0.00    +0.000 HD
BRANCH  19  23
ATOM     23  C   UNL     1       7.180   6.094  16.832  0.00  0.00    +0.000 C 
BRANCH  23  25
ATOM     24  N   UNL     1       7.878   8.549  17.933  0.00  0.00    +0.000 NA
ATOM     25  C   UNL     1       7.561   7.436  17.434  0.00  0.00    +0.000 C 
ENDBRANCH  23  25
ENDBRANCH  19  23
ENDBRANCH  14  21
ENDBRANCH   1  17
TORSDOF 4
ENDMDL
MODEL 4
REMARK VINA RESULT:      -6.4      3.127      5.178
REMARK  Name = 
REMARK  4 active torsions:
REMARK  status: ('A' for Active; 'I' for Inactive)
REMARK    1  A    between atoms: C_2  and  C_3
REMARK    2  A    between atoms: C_3  and  C_4
REMARK    3  A    between atoms: N_6  and  C_7
REMARK    4  A    between atoms: C_10  and  C_11
REMARK                            x       y       z     vdW  Elec       q    Type
REMARK                         _______ _______ _______ _____ _____    ______ ____
ROOT
ATOM      1  C   UNL     1       2.176   7.752  18.710  0.00  0.00    +0.000 A 
ATOM      2  N   UNL     1       2.685   8.178  17.560  0.00  0.00    +0.000 NA
ATOM      3  N   UNL     1       2.312   9.497  17.368  0.00  0.00    +0.000 NA
ATOM      4  C   UNL     1       1.611   9.856  18.418  0.00  0.00    +0.000 A 
ATOM      5  C   UNL     1       0.978  11.128  18.693  0.00  0.00    +0.000 A 
ATOM      6  N   UNL     1       0.382  11.393  19.830  0.00  0.00    +0.000 NA
ATOM      7  C   UNL     1       0.435  10.369  20.726  0.00  0.00    +0.000 A 
ATOM      8  N   UNL     1      -0.034  10.464  22.004  0.00  0.00    +0.000 N 
ATOM      9  C   UNL     1       0.234   9.286  22.668  0.00  0.00    +0.000 A 
ATOM     10  C   UNL     1       0.839   8.403  21.785  0.00  0.00    +0.000 A 
ATOM     11  C   UNL     1       0.974   9.103  20.578  0.00  0.00    +0.000 A 
ATOM     12  N   UNL     1       1.565   8.826  19.331  0.00  0.00    +0.000 N 
ATOM     13  H   UNL     1      -0.468  11.291  22.403  0.00  0.00    +0.000 HD
ENDROOT
BRANCH   1  17
ATOM     14  C   UNL     1       3.383   4.555  17.929  0.00  0.00    +0.000 C 
ATOM     15  C   UNL     1       4.112   4.757  19.259  0.00  0.00    +0.000 C 
ATOM     16  C   UNL     1       3.531   6.011  19.919  0.00  0.00    +0.000 C 
ATOM     17  C   UNL     1       2.211   6.343  19.225  0.00  0.00    +0.000 C 
ATOM     18  C   UNL     1       2.034   5.259  18.140  0.00  0.00    +0.000 C 
BRANCH  14  21
ATOM     19  C   UNL     1       5.112   4.260  16.125  0.00  0.00    +0.000 C 
ATOM     20  O   UNL     1       5.351   3.096  16.439  0.00  0.00    +0.000 OA
ATOM     21  N   UNL     1       4.147   5.046  16.781  0.00  0.00    +0.000 N 
ATOM     22  H   UNL     1       4.040   6.024  16.536  0.00  0.00    +0.000 HD
BRANCH  19  23
ATOM     23  C   UNL     1       5.873   5.006  15.050  0.00  0.00    +0.000 C 
BRANCH  23  25
ATOM     24  N   UNL     1       6.537   3.680  12.698  0.00  0.00    +0.000 NA
ATOM     25  C   UNL     1       6.235   4.281  13.765  0.00  0.00    +0.000 C 
ENDBRANCH  23  25
ENDBRANCH  19  23
ENDBRANCH  14  21
ENDBRANCH   1  17
TORSDOF 4
ENDMDL
MODEL 5
REMARK VINA RESULT:      -6.4      3.378      5.775
REMARK  Name = 
REMARK  4 active torsions:
REMARK  status: ('A' for Active; 'I' for Inactive)
REMARK    1  A    between atoms: C_2  and  C_3
REMARK    2  A    between atoms: C_3  and  C_4
REMARK    3  A    between atoms: N_6  and  C_7
REMARK    4  A    between atoms: C_10  and  C_11
REMARK                            x       y       z     vdW  Elec       q    Type
REMARK                         _______ _______ _______ _____ _____    ______ ____
ROOT
ATOM      1  C   UNL     1       1.997   7.809  18.668  0.00  0.00    +0.000 A 
ATOM      2  N   UNL     1       2.677   8.240  17.614  0.00  0.00    +0.000 NA
ATOM      3  N   UNL     1       2.470   9.601  17.475  0.00  0.00    +0.000 NA
ATOM      4  C   UNL     1       1.694   9.976  18.465  0.00  0.00    +0.000 A 
ATOM      5  C   UNL     1       1.171  11.294  18.758  0.00  0.00    +0.000 A 
ATOM      6  N   UNL     1       0.478  11.558  19.838  0.00  0.00    +0.000 NA
ATOM      7  C   UNL     1       0.319  10.485  20.661  0.00  0.00    +0.000 A 
ATOM      8  N   UNL     1      -0.282  10.559  21.884  0.00  0.00    +0.000 N 
ATOM      9  C   UNL     1      -0.219   9.321  22.490  0.00  0.00    +0.000 A 
ATOM     10  C   UNL     1       0.389   8.428  21.618  0.00  0.00    +0.000 A 
ATOM     11  C   UNL     1       0.736   9.176  20.484  0.00  0.00    +0.000 A 
ATOM     12  N   UNL     1       1.435   8.907  19.293  0.00  0.00    +0.000 N 
ATOM     13  H   UNL     1      -0.670  11.405  22.290  0.00  0.00    +0.000 HD
ENDROOT
BRANCH   1  17
ATOM     14  C   UNL     1       3.484   4.648  18.377  0.00  0.00    +0.000 C 
ATOM     15  C   UNL     1       3.537   4.786  19.899  0.00  0.00    +0.000 C 
ATOM     16  C   UNL     1       2.699   6.011  20.282  0.00  0.00    +0.000 C 
ATOM     17  C   UNL     1       1.823   6.378  19.085  0.00  0.00    +0.000 C 
ATOM     18  C   UNL     1       2.170   5.345  17.991  0.00  0.00    +0.000 C 
BRANCH  14  21
ATOM     19  C   UNL     1       5.978   4.863  18.122  0.00  0.00    +0.000 C 
ATOM     20  O   UNL     1       6.215   4.070  19.031  0.00  0.00    +0.000 OA
ATOM     21  N   UNL     1       4.672   5.190  17.714  0.00  0.00    +0.000 N 
ATOM     22  H   UNL     1       4.525   5.905  17.011  0.00  0.00    +0.000 HD
BRANCH  19  23
ATOM     23  C   UNL     1       7.053   5.633  17.387  0.00  0.00    +0.000 C 
BRANCH  23  25
ATOM     24  N   UNL     1       7.367   5.236  14.653  0.00  0.00    +0.000 NA
ATOM     25  C   UNL     1       7.225   5.417  15.892  0.00  0.00    +0.000 C 
ENDBRANCH  23  25
ENDBRANCH  19  23
ENDBRANCH  14  21
ENDBRANCH   1  17
TORSDOF 4
ENDMDL
MODEL 6
REMARK VINA RESULT:      -6.4      3.270      5.152
REMARK  Name = 
REMARK  4 active torsions:
REMARK  status: ('A' for Active; 'I' for Inactive)
REMARK    1  A    between atoms: C_2  and  C_3
REMARK    2  A    between atoms: C_3  and  C_4
REMARK    3  A    between atoms: N_6  and  C_7
REMARK    4  A    between atoms: C_10  and  C_11
REMARK                            x       y       z     vdW  Elec       q    Type
REMARK                         _______ _______ _______ _____ _____    ______ ____
ROOT
ATOM      1  C   UNL     1       4.163   5.631  18.013  0.00  0.00    +0.000 A 
ATOM      2  N   UNL     1       4.006   6.904  17.670  0.00  0.00    +0.000 NA
ATOM      3  N   UNL     1       2.985   7.448  18.429  0.00  0.00    +0.000 NA
ATOM      4  C   UNL     1       2.562   6.505  19.239  0.00  0.00    +0.000 A 
ATOM      5  C   UNL     1       1.498   6.562  20.218  0.00  0.00    +0.000 A 
ATOM      6  N   UNL     1       1.234   5.574  21.037  0.00  0.00    +0.000 NA
ATOM      7  C   UNL     1       2.066   4.506  20.892  0.00  0.00    +0.000 A 
ATOM      8  N   UNL     1       2.034   3.412  21.705  0.00  0.00    +0.000 N 
ATOM      9  C   UNL     1       3.046   2.550  21.338  0.00  0.00    +0.000 A 
ATOM     10  C   UNL     1       3.705   3.079  20.238  0.00  0.00    +0.000 A 
ATOM     11  C   UNL     1       3.091   4.313  19.981  0.00  0.00    +0.000 A 
ATOM     12  N   UNL     1       3.323   5.369  19.080  0.00  0.00    +0.000 N 
ATOM     13  H   UNL     1       1.392   3.284  22.482  0.00  0.00    +0.000 HD
ENDROOT
BRANCH   1  17
ATOM     14  C   UNL     1       7.114   5.398  16.136  0.00  0.00    +0.000 C 
ATOM     15  C   UNL     1       7.530   4.531  17.326  0.00  0.00    +0.000 C 
ATOM     16  C   UNL     1       6.281   4.283  18.177  0.00  0.00    +0.000 C 
ATOM     17  C   UNL     1       5.056   4.635  17.333  0.00  0.00    +0.000 C 
ATOM     18  C   UNL     1       5.616   5.100  15.972  0.00  0.00    +0.000 C 
BRANCH  14  21
ATOM     19  C   UNL     1       7.724   7.359  17.590  0.00  0.00    +0.000 C 
ATOM     20  O   UNL     1       7.777   6.681  18.614  0.00  0.00    +0.000 OA
ATOM     21  N   UNL     1       7.431   6.815  16.326  0.00  0.00    +0.000 N 
ATOM     22  H   UNL     1       7.323   7.425  15.525  0.00  0.00    +0.000 HD
BRANCH  19  23
ATOM     23  C   UNL     1       7.893   8.863  17.577  0.00  0.00    +0.000 C 
BRANCH  23  25
ATOM     24  N   UNL     1       9.434  10.065  19.555  0.00  0.00    +0.000 NA
ATOM     25  C   UNL     1       8.735   9.520  18.659  0.00  0.00    +0.000 C 
ENDBRANCH  23  25
ENDBRANCH  19  23
ENDBRANCH  14  21
ENDBRANCH   1  17
TORSDOF 4
ENDMDL
MODEL 7
REMARK VINA RESULT:      -6.4      2.913      5.080
REMARK  Name = 
REMARK  4 active torsions:
REMARK  status: ('A' for Active; 'I' for Inactive)
REMARK    1  A    between atoms: C_2  and  C_3
REMARK    2  A    between atoms: C_3  and  C_4
REMARK    3  A    between atoms: N_6  and  C_7
REMARK    4  A    between atoms: C_10  and  C_11
REMARK                            x       y       z     vdW  Elec       q    Type
REMARK                         _______ _______ _______ _____ _____    ______ ____
ROOT
ATOM      1  C   UNL     1       2.502   7.005  18.775  0.00  0.00    +0.000 A 
ATOM      2  N   UNL     1       3.090   7.223  17.605  0.00  0.00    +0.000 NA
ATOM      3  N   UNL     1       2.802   8.512  17.193  0.00  0.00    +0.000 NA
ATOM      4  C   UNL     1       2.071   9.063  18.134  0.00  0.00    +0.000 A 
ATOM      5  C   UNL     1       1.497  10.391  18.175  0.00  0.00    +0.000 A 
ATOM      6  N   UNL     1       0.861  10.857  19.221  0.00  0.00    +0.000 NA
ATOM      7  C   UNL     1       0.812   9.983  20.265  0.00  0.00    +0.000 A 
ATOM      8  N   UNL     1       0.285  10.298  21.483  0.00  0.00    +0.000 N 
ATOM      9  C   UNL     1       0.453   9.226  22.334  0.00  0.00    +0.000 A 
ATOM     10  C   UNL     1       1.052   8.189  21.633  0.00  0.00    +0.000 A 
ATOM     11  C   UNL     1       1.286   8.685  20.342  0.00  0.00    +0.000 A 
ATOM     12  N   UNL     1       1.922   8.191  19.189  0.00  0.00    +0.000 N 
ATOM     13  H   UNL     1      -0.121  11.197  21.726  0.00  0.00    +0.000 HD
ENDROOT
BRANCH   1  17
ATOM     14  C   UNL     1       3.003   3.566  18.317  0.00  0.00    +0.000 C 
ATOM     15  C   UNL     1       4.027   3.801  19.428  0.00  0.00    +0.000 C 
ATOM     16  C   UNL     1       3.805   5.216  19.971  0.00  0.00    +0.000 C 
ATOM     17  C   UNL     1       2.432   5.693  19.500  0.00  0.00    +0.000 C 
ATOM     18  C   UNL     1       1.857   4.529  18.665  0.00  0.00    +0.000 C 
BRANCH  14  21
ATOM     19  C   UNL     1       4.926   4.023  16.761  0.00  0.00    +0.000 C 
ATOM     20  O   UNL     1       5.750   4.078  17.672  0.00  0.00    +0.000 OA
ATOM     21  N   UNL     1       3.563   3.754  16.977  0.00  0.00    +0.000 N 
ATOM     22  H   UNL     1       2.910   3.795  16.203  0.00  0.00    +0.000 HD
BRANCH  19  23
ATOM     23  C   UNL     1       5.265   4.311  15.314  0.00  0.00    +0.000 C 
BRANCH  23  25
ATOM     24  N   UNL     1       7.729   5.448  14.705  0.00  0.00    +0.000 NA
ATOM     25  C   UNL     1       6.612   4.932  14.981  0.00  0.00    +0.000 C 
ENDBRANCH  23  25
ENDBRANCH  19  23
ENDBRANCH  14  21
ENDBRANCH   1  17
TORSDOF 4
ENDMDL
MODEL 8
REMARK VINA RESULT:      -6.3      2.744      6.936
REMARK  Name = 
REMARK  4 active torsions:
REMARK  status: ('A' for Active; 'I' for Inactive)
REMARK    1  A    between atoms: C_2  and  C_3
REMARK    2  A    between atoms: C_3  and  C_4
REMARK    3  A    between atoms: N_6  and  C_7
REMARK    4  A    between atoms: C_10  and  C_11
REMARK                            x       y       z     vdW  Elec       q    Type
REMARK                         _______ _______ _______ _____ _____    ______ ____
ROOT
ATOM      1  C   UNL     1       5.021   4.005  18.586  0.00  0.00    +0.000 A 
ATOM      2  N   UNL     1       5.184   4.676  19.719  0.00  0.00    +0.000 NA
ATOM      3  N   UNL     1       6.141   5.656  19.524  0.00  0.00    +0.000 NA
ATOM      4  C   UNL     1       6.519   5.582  18.269  0.00  0.00    +0.000 A 
ATOM      5  C   UNL     1       7.510   6.374  17.572  0.00  0.00    +0.000 A 
ATOM      6  N   UNL     1       7.728   6.263  16.284  0.00  0.00    +0.000 NA
ATOM      7  C   UNL     1       6.923   5.354  15.669  0.00  0.00    +0.000 A 
ATOM      8  N   UNL     1       6.913   5.151  14.320  0.00  0.00    +0.000 N 
ATOM      9  C   UNL     1       5.942   4.221  14.014  0.00  0.00    +0.000 A 
ATOM     10  C   UNL     1       5.355   3.784  15.193  0.00  0.00    +0.000 A 
ATOM     11  C   UNL     1       5.968   4.516  16.220  0.00  0.00    +0.000 A 
ATOM     12  N   UNL     1       5.787   4.618  17.612  0.00  0.00    +0.000 N 
ATOM     13  H   UNL     1       7.500   5.645  13.654  0.00  0.00    +0.000 HD
ENDROOT
BRANCH   1  17
ATOM     14  C   UNL     1       2.115   2.429  19.751  0.00  0.00    +0.000 C 
ATOM     15  C   UNL     1       1.728   2.562  18.277  0.00  0.00    +0.000 C 
ATOM     16  C   UNL     1       2.976   3.010  17.510  0.00  0.00    +0.000 C 
ATOM     17  C   UNL     1       4.192   2.767  18.402  0.00  0.00    +0.000 C 
ATOM     18  C   UNL     1       3.629   2.173  19.711  0.00  0.00    +0.000 C 
BRANCH  14  21
ATOM     19  C   UNL     1       1.662   4.890  20.016  0.00  0.00    +0.000 C 
ATOM     20  O   UNL     1       1.895   5.138  18.834  0.00  0.00    +0.000 OA
ATOM     21  N   UNL     1       1.720   3.590  20.551  0.00  0.00    +0.000 N 
ATOM     22  H   UNL     1       1.594   3.447  21.546  0.00  0.00    +0.000 HD
BRANCH  19  23
ATOM     23  C   UNL     1       1.359   5.957  21.046  0.00  0.00    +0.000 C 
BRANCH  23  25
ATOM     24  N   UNL     1       1.456   8.630  20.287  0.00  0.00    +0.000 NA
ATOM     25  C   UNL     1       1.413   7.418  20.631  0.00  0.00    +0.000 C 
ENDBRANCH  23  25
ENDBRANCH  19  23
ENDBRANCH  14  21
ENDBRANCH   1  17
TORSDOF 4
ENDMDL
MODEL 9
REMARK VINA RESULT:      -6.3      4.534      8.273
REMARK  Name = 
REMARK  4 active torsions:
REMARK  status: ('A' for Active; 'I' for Inactive)
REMARK    1  A    between atoms: C_2  and  C_3
REMARK    2  A    between atoms: C_3  and  C_4
REMARK    3  A    between atoms: N_6  and  C_7
REMARK    4  A    between atoms: C_10  and  C_11
REMARK                            x       y       z     vdW  Elec       q    Type
REMARK                         _______ _______ _______ _____ _____    ______ ____
ROOT
ATOM      1  C   UNL     1       1.906   7.682  19.957  0.00  0.00    +0.000 A 
ATOM      2  N   UNL     1       1.946   8.520  18.929  0.00  0.00    +0.000 NA
ATOM      3  N   UNL     1       2.620   7.912  17.884  0.00  0.00    +0.000 NA
ATOM      4  C   UNL     1       2.949   6.707  18.286  0.00  0.00    +0.000 A 
ATOM      5  C   UNL     1       3.680   5.681  17.574  0.00  0.00    +0.000 A 
ATOM      6  N   UNL     1       3.863   4.476  18.054  0.00  0.00    +0.000 NA
ATOM      7  C   UNL     1       3.284   4.280  19.271  0.00  0.00    +0.000 A 
ATOM      8  N   UNL     1       3.266   3.073  19.908  0.00  0.00    +0.000 N 
ATOM      9  C   UNL     1       2.544   3.195  21.077  0.00  0.00    +0.000 A 
ATOM     10  C   UNL     1       2.136   4.514  21.215  0.00  0.00    +0.000 A 
ATOM     11  C   UNL     1       2.592   5.177  20.067  0.00  0.00    +0.000 A 
ATOM     12  N   UNL     1       2.452   6.479  19.550  0.00  0.00    +0.000 N 
ATOM     13  H   UNL     1       3.682   2.220  19.547  0.00  0.00    +0.000 HD
ENDROOT
BRANCH   1  17
ATOM     14  C   UNL     1       0.421  10.240  21.839  0.00  0.00    +0.000 C 
ATOM     15  C   UNL     1      -0.670   9.179  21.993  0.00  0.00    +0.000 C 
ATOM     16  C   UNL     1      -0.114   7.861  21.447  0.00  0.00    +0.000 C 
ATOM     17  C   UNL     1       1.404   7.997  21.336  0.00  0.00    +0.000 C 
ATOM     18  C   UNL     1       1.724   9.426  21.824  0.00  0.00    +0.000 C 
BRANCH  14  21
ATOM     19  C   UNL     1       0.836  12.351  20.535  0.00  0.00    +0.000 C 
ATOM     20  O   UNL     1       1.605  12.811  21.377  0.00  0.00    +0.000 OA
ATOM     21  N   UNL     1       0.227  11.090  20.663  0.00  0.00    +0.000 N 
ATOM     22  H   UNL     1      -0.458  10.787  19.980  0.00  0.00    +0.000 HD
BRANCH  19  23
ATOM     23  C   UNL     1       0.397  13.114  19.304  0.00  0.00    +0.000 C 
BRANCH  23  25
ATOM     24  N   UNL     1      -1.651  12.081  17.733  0.00  0.00    +0.000 NA
ATOM     25  C   UNL     1      -0.722  12.549  18.446  0.00  0.00    +0.000 C 
ENDBRANCH  23  25
ENDBRANCH  19  23
ENDBRANCH  14  21
ENDBRANCH   1  17
TORSDOF 4
ENDMDL
