MODEL 1
REMARK VINA RESULT:      -7.9      0.000      0.000
REMARK  Name = 
REMARK  5 active torsions:
REMARK  status: ('A' for Active; 'I' for Inactive)
REMARK    1  A    between atoms: C_1  and  N_2
REMARK    2  A    between atoms: N_2  and  C_3
REMARK    3  A    between atoms: N_6  and  C_7
REMARK    4  A    between atoms: C_10  and  C_11
REMARK    5  A    between atoms: C_14  and  C_15
REMARK                            x       y       z     vdW  Elec       q    Type
REMARK                         _______ _______ _______ _____ _____    ______ ____
ROOT
ATOM      1  C   UNL     1       3.507   6.099  18.616  0.00  0.00    +0.000 A 
ATOM      2  C   UNL     1       4.503   6.988  18.185  0.00  0.00    +0.000 A 
ATOM      3  C   UNL     1       5.321   6.706  17.089  0.00  0.00    +0.000 A 
ATOM      4  C   UNL     1       5.182   5.508  16.388  0.00  0.00    +0.000 A 
ATOM      5  C   UNL     1       4.181   4.613  16.792  0.00  0.00    +0.000 A 
ATOM      6  C   UNL     1       3.356   4.907  17.888  0.00  0.00    +0.000 A 
ATOM      7 CL   UNL     1       2.141   3.755  18.326  0.00  0.00    +0.000 Cl
ENDROOT
BRANCH   1  11
ATOM      8  C   UNL     1       1.099   9.604  19.203  0.00  0.00    +0.000 A 
ATOM      9  N   UNL     1       1.842   8.507  19.001  0.00  0.00    +0.000 NA
ATOM     10  C   UNL     1       1.934   7.566  19.956  0.00  0.00    +0.000 A 
ATOM     11  N   UNL     1       2.659   6.411  19.694  0.00  0.00    +0.000 N 
ATOM     12  N   UNL     1       1.318   7.670  21.139  0.00  0.00    +0.000 NA
ATOM     13  C   UNL     1       0.605   8.802  21.345  0.00  0.00    +0.000 A 
ATOM     14  C   UNL     1       0.453   9.802  20.411  0.00  0.00    +0.000 A 
ATOM     15 CL   UNL     1      -0.505  11.185  20.753  0.00  0.00    +0.000 Cl
ATOM     16  H   UNL     1       2.451   5.674  20.353  0.00  0.00    +0.000 HD
BRANCH   8  18
ATOM     17  C   UNL     1       2.068  11.584  18.221  0.00  0.00    +0.000 C 
ATOM     18  N   UNL     1       1.033  10.558  18.170  0.00  0.00    +0.000 N 
ATOM     19  H   UNL     1       1.002  10.079  17.273  0.00  0.00    +0.000 HD
ENDBRANCH   8  18
ENDBRANCH   1  11
BRANCH   4  20
ATOM     20  C   UNL     1       6.068   5.170  15.287  0.00  0.00    +0.000 A 
ATOM     21  N   UNL     1       7.276   5.606  14.999  0.00  0.00    +0.000 NA
ATOM     22  N   UNL     1       7.637   5.016  13.803  0.00  0.00    +0.000 NA
ATOM     23  C   UNL     1       6.620   4.265  13.443  0.00  0.00    +0.000 A 
ATOM     24  C   UNL     1       6.438   3.439  12.238  0.00  0.00    +0.000 C 
ATOM     25  O   UNL     1       5.588   4.299  14.338  0.00  0.00    +0.000 OA
ENDBRANCH   4  20
TORSDOF 3
ENDMDL
MODEL 2
REMARK VINA RESULT:      -7.8      4.127      6.313
REMARK  Name = 
REMARK  5 active torsions:
REMARK  status: ('A' for Active; 'I' for Inactive)
REMARK    1  A    between atoms: C_1  and  N_2
REMARK    2  A    between atoms: N_2  and  C_3
REMARK    3  A    between atoms: N_6  and  C_7
REMARK    4  A    between atoms: C_10  and  C_11
REMARK    5  A    between atoms: C_14  and  C_15
REMARK                            x       y       z     vdW  Elec       q    Type
REMARK                         _______ _______ _______ _____ _____    ______ ____
ROOT
ATOM      1  C   UNL     1       6.576   5.434  17.561  0.00  0.00    +0.000 A 
ATOM      2  C   UNL     1       7.543   5.556  18.570  0.00  0.00    +0.000 A 
ATOM      3  C   UNL     1       8.158   6.775  18.861  0.00  0.00    +0.000 A 
ATOM      4  C   UNL     1       7.835   7.924  18.137  0.00  0.00    +0.000 A 
ATOM      5  C   UNL     1       6.859   7.828  17.136  0.00  0.00    +0.000 A 
ATOM      6  C   UNL     1       6.238   6.601  16.855  0.00  0.00    +0.000 A 
ATOM      7 CL   UNL     1       5.040   6.560  15.607  0.00  0.00    +0.000 Cl
ENDROOT
BRANCH   1  11
ATOM      8  C   UNL     1       2.623   4.200  18.693  0.00  0.00    +0.000 A 
ATOM      9  N   UNL     1       3.849   4.602  18.331  0.00  0.00    +0.000 NA
ATOM     10  C   UNL     1       4.691   3.748  17.725  0.00  0.00    +0.000 A 
ATOM     11  N   UNL     1       5.931   4.211  17.304  0.00  0.00    +0.000 N 
ATOM     12  N   UNL     1       4.371   2.475  17.466  0.00  0.00    +0.000 NA
ATOM     13  C   UNL     1       3.146   2.071  17.874  0.00  0.00    +0.000 A 
ATOM     14  C   UNL     1       2.224   2.891  18.487  0.00  0.00    +0.000 A 
ATOM     15 CL   UNL     1       0.678   2.295  18.935  0.00  0.00    +0.000 Cl
ATOM     16  H   UNL     1       6.367   3.583  16.643  0.00  0.00    +0.000 HD
BRANCH   8  18
ATOM     17  C   UNL     1       1.883   5.169  20.775  0.00  0.00    +0.000 C 
ATOM     18  N   UNL     1       1.779   5.135  19.322  0.00  0.00    +0.000 N 
ATOM     19  H   UNL     1       1.917   6.050  18.898  0.00  0.00    +0.000 HD
ENDBRANCH   8  18
ENDBRANCH   1  11
BRANCH   4  20
ATOM     20  C   UNL     1       8.513   9.186  18.382  0.00  0.00    +0.000 A 
ATOM     21  N   UNL     1       9.400   9.514  19.297  0.00  0.00    +0.000 NA
ATOM     22  N   UNL     1       9.664  10.861  19.131  0.00  0.00    +0.000 NA
ATOM     23  C   UNL     1       8.913  11.259  18.128  0.00  0.00    +0.000 A 
ATOM     24  C   UNL     1       8.761  12.601  17.539  0.00  0.00    +0.000 C 
ATOM     25  O   UNL     1       8.161  10.253  17.590  0.00  0.00    +0.000 OA
ENDBRANCH   4  20
TORSDOF 3
ENDMDL
MODEL 3
REMARK VINA RESULT:      -7.8      4.282      6.346
REMARK  Name = 
REMARK  5 active torsions:
REMARK  status: ('A' for Active; 'I' for Inactive)
REMARK    1  A    between atoms: C_1  and  N_2
REMARK    2  A    between atoms: N_2  and  C_3
REMARK    3  A    between atoms: N_6  and  C_7
REMARK    4  A    between atoms: C_10  and  C_11
REMARK    5  A    between atoms: C_14  and  C_15
REMARK                            x       y       z     vdW  Elec       q    Type
REMARK                         _______ _______ _______ _____ _____    ______ ____
ROOT
ATOM      1  C   UNL     1       6.742   5.754  18.083  0.00  0.00    +0.000 A 
ATOM      2  C   UNL     1       7.763   5.975  19.020  0.00  0.00    +0.000 A 
ATOM      3  C   UNL     1       8.407   7.208  19.135  0.00  0.00    +0.000 A 
ATOM      4  C   UNL     1       8.061   8.270  18.298  0.00  0.00    +0.000 A 
ATOM      5  C   UNL     1       7.032   8.077  17.366  0.00  0.00    +0.000 A 
ATOM      6  C   UNL     1       6.381   6.838  17.263  0.00  0.00    +0.000 A 
ATOM      7 CL   UNL     1       5.119   6.675  16.092  0.00  0.00    +0.000 Cl
ENDROOT
BRANCH   1  11
ATOM      8  C   UNL     1       3.089   4.571  20.002  0.00  0.00    +0.000 A 
ATOM      9  N   UNL     1       4.220   4.957  19.395  0.00  0.00    +0.000 NA
ATOM     10  C   UNL     1       4.935   4.078  18.674  0.00  0.00    +0.000 A 
ATOM     11  N   UNL     1       6.069   4.522  18.005  0.00  0.00    +0.000 N 
ATOM     12  N   UNL     1       4.581   2.796  18.533  0.00  0.00    +0.000 NA
ATOM     13  C   UNL     1       3.460   2.409  19.185  0.00  0.00    +0.000 A 
ATOM     14  C   UNL     1       2.667   3.254  19.929  0.00  0.00    +0.000 A 
ATOM     15 CL   UNL     1       1.240   2.677  20.689  0.00  0.00    +0.000 Cl
ATOM     16  H   UNL     1       6.374   3.868  17.298  0.00  0.00    +0.000 HD
BRANCH   8  18
ATOM     17  C   UNL     1       2.149   6.792  20.049  0.00  0.00    +0.000 C 
ATOM     18  N   UNL     1       2.374   5.531  20.743  0.00  0.00    +0.000 N 
ATOM     19  H   UNL     1       1.511   5.114  21.086  0.00  0.00    +0.000 HD
ENDBRANCH   8  18
ENDBRANCH   1  11
BRANCH   4  20
ATOM     20  C   UNL     1       8.767   9.539  18.359  0.00  0.00    +0.000 A 
ATOM     21  N   UNL     1       8.952  10.458  17.436  0.00  0.00    +0.000 NA
ATOM     22  N   UNL     1       9.756  11.432  17.998  0.00  0.00    +0.000 NA
ATOM     23  C   UNL     1      10.008  11.034  19.225  0.00  0.00    +0.000 A 
ATOM     24  C   UNL     1      10.840  11.661  20.267  0.00  0.00    +0.000 C 
ATOM     25  O   UNL     1       9.408   9.847  19.537  0.00  0.00    +0.000 OA
ENDBRANCH   4  20
TORSDOF 3
ENDMDL
MODEL 4
REMARK VINA RESULT:      -7.6      3.459      8.150
REMARK  Name = 
REMARK  5 active torsions:
REMARK  status: ('A' for Active; 'I' for Inactive)
REMARK    1  A    between atoms: C_1  and  N_2
REMARK    2  A    between atoms: N_2  and  C_3
REMARK    3  A    between atoms: N_6  and  C_7
REMARK    4  A    between atoms: C_10  and  C_11
REMARK    5  A    between atoms: C_14  and  C_15
REMARK                            x       y       z     vdW  Elec       q    Type
REMARK                         _______ _______ _______ _____ _____    ______ ____
ROOT
ATOM      1  C   UNL     1       2.195   6.726  18.848  0.00  0.00    +0.000 A 
ATOM      2  C   UNL     1       2.035   7.954  18.190  0.00  0.00    +0.000 A 
ATOM      3  C   UNL     1       1.584   9.096  18.854  0.00  0.00    +0.000 A 
ATOM      4  C   UNL     1       1.260   9.047  20.210  0.00  0.00    +0.000 A 
ATOM      5  C   UNL     1       1.429   7.833  20.892  0.00  0.00    +0.000 A 
ATOM      6  C   UNL     1       1.891   6.691  20.220  0.00  0.00    +0.000 A 
ATOM      7 CL   UNL     1       2.078   5.230  21.128  0.00  0.00    +0.000 Cl
ENDROOT
BRANCH   1  11
ATOM      8  C   UNL     1       5.880   6.286  16.692  0.00  0.00    +0.000 A 
ATOM      9  N   UNL     1       4.740   6.430  17.382  0.00  0.00    +0.000 NA
ATOM     10  C   UNL     1       3.834   5.439  17.406  0.00  0.00    +0.000 A 
ATOM     11  N   UNL     1       2.691   5.592  18.180  0.00  0.00    +0.000 N 
ATOM     12  N   UNL     1       4.001   4.285  16.750  0.00  0.00    +0.000 NA
ATOM     13  C   UNL     1       5.138   4.169  16.023  0.00  0.00    +0.000 A 
ATOM     14  C   UNL     1       6.119   5.134  15.962  0.00  0.00    +0.000 A 
ATOM     15 CL   UNL     1       7.546   4.878  15.043  0.00  0.00    +0.000 Cl
ATOM     16  H   UNL     1       2.218   4.713  18.338  0.00  0.00    +0.000 HD
BRANCH   8  18
ATOM     17  C   UNL     1       7.729   7.345  17.824  0.00  0.00    +0.000 C 
ATOM     18  N   UNL     1       6.799   7.352  16.701  0.00  0.00    +0.000 N 
ATOM     19  H   UNL     1       7.273   7.394  15.801  0.00  0.00    +0.000 HD
ENDBRANCH   8  18
ENDBRANCH   1  11
BRANCH   4  20
ATOM     20  C   UNL     1       0.726  10.209  20.902  0.00  0.00    +0.000 A 
ATOM     21  N   UNL     1       1.197  11.434  20.999  0.00  0.00    +0.000 NA
ATOM     22  N   UNL     1       0.338  12.125  21.833  0.00  0.00    +0.000 NA
ATOM     23  C   UNL     1      -0.594  11.268  22.189  0.00  0.00    +0.000 A 
ATOM     24  C   UNL     1      -1.742  11.447  23.094  0.00  0.00    +0.000 C 
ATOM     25  O   UNL     1      -0.426  10.032  21.632  0.00  0.00    +0.000 OA
ENDBRANCH   4  20
TORSDOF 3
ENDMDL
MODEL 5
REMARK VINA RESULT:      -7.4      3.094      4.436
REMARK  Name = 
REMARK  5 active torsions:
REMARK  status: ('A' for Active; 'I' for Inactive)
REMARK    1  A    between atoms: C_1  and  N_2
REMARK    2  A    between atoms: N_2  and  C_3
REMARK    3  A    between atoms: N_6  and  C_7
REMARK    4  A    between atoms: C_10  and  C_11
REMARK    5  A    between atoms: C_14  and  C_15
REMARK                            x       y       z     vdW  Elec       q    Type
REMARK                         _______ _______ _______ _____ _____    ______ ____
ROOT
ATOM      1  C   UNL     1       1.154   9.334  19.242  0.00  0.00    +0.000 A 
ATOM      2  C   UNL     1       1.716   9.361  17.957  0.00  0.00    +0.000 A 
ATOM      3  C   UNL     1       2.593   8.370  17.512  0.00  0.00    +0.000 A 
ATOM      4  C   UNL     1       2.954   7.314  18.350  0.00  0.00    +0.000 A 
ATOM      5  C   UNL     1       2.390   7.257  19.632  0.00  0.00    +0.000 A 
ATOM      6  C   UNL     1       1.502   8.253  20.069  0.00  0.00    +0.000 A 
ATOM      7 CL   UNL     1       0.844   8.115  21.663  0.00  0.00    +0.000 Cl
ENDROOT
BRANCH   1  11
ATOM      8  C   UNL     1      -2.642  10.371  17.527  0.00  0.00    +0.000 A 
ATOM      9  N   UNL     1      -1.463  10.027  18.064  0.00  0.00    +0.000 NA
ATOM     10  C   UNL     1      -0.955  10.731  19.089  0.00  0.00    +0.000 A 
ATOM     11  N   UNL     1       0.238  10.314  19.665  0.00  0.00    +0.000 N 
ATOM     12  N   UNL     1      -1.570  11.797  19.614  0.00  0.00    +0.000 NA
ATOM     13  C   UNL     1      -2.739  12.158  19.035  0.00  0.00    +0.000 A 
ATOM     14  C   UNL     1      -3.330  11.478  17.993  0.00  0.00    +0.000 A 
ATOM     15 CL   UNL     1      -4.837  11.992  17.351  0.00  0.00    +0.000 Cl
ATOM     16  H   UNL     1       0.392  10.737  20.570  0.00  0.00    +0.000 HD
BRANCH   8  18
ATOM     17  C   UNL     1      -2.894  10.167  15.136  0.00  0.00    +0.000 C 
ATOM     18  N   UNL     1      -3.133   9.599  16.457  0.00  0.00    +0.000 N 
ATOM     19  H   UNL     1      -2.784   8.647  16.543  0.00  0.00    +0.000 HD
ENDBRANCH   8  18
ENDBRANCH   1  11
BRANCH   4  20
ATOM     20  C   UNL     1       3.916   6.310  17.927  0.00  0.00    +0.000 A 
ATOM     21  N   UNL     1       4.440   5.299  18.586  0.00  0.00    +0.000 NA
ATOM     22  N   UNL     1       5.355   4.703  17.739  0.00  0.00    +0.000 NA
ATOM     23  C   UNL     1       5.328   5.398  16.624  0.00  0.00    +0.000 A 
ATOM     24  C   UNL     1       6.121   5.237  15.393  0.00  0.00    +0.000 C 
ATOM     25  O   UNL     1       4.433   6.429  16.657  0.00  0.00    +0.000 OA
ENDBRANCH   4  20
TORSDOF 3
ENDMDL
MODEL 6
REMARK VINA RESULT:      -7.2      4.509      6.465
REMARK  Name = 
REMARK  5 active torsions:
REMARK  status: ('A' for Active; 'I' for Inactive)
REMARK    1  A    between atoms: C_1  and  N_2
REMARK    2  A    between atoms: N_2  and  C_3
REMARK    3  A    between atoms: N_6  and  C_7
REMARK    4  A    between atoms: C_10  and  C_11
REMARK    5  A    between atoms: C_14  and  C_15
REMARK                            x       y       z     vdW  Elec       q    Type
REMARK                         _______ _______ _______ _____ _____    ______ ____
ROOT
ATOM      1  C   UNL     1       6.786   6.286  17.986  0.00  0.00    +0.000 A 
ATOM      2  C   UNL     1       6.446   7.394  17.195  0.00  0.00    +0.000 A 
ATOM      3  C   UNL     1       7.125   8.609  17.294  0.00  0.00    +0.000 A 
ATOM      4  C   UNL     1       8.169   8.768  18.206  0.00  0.00    +0.000 A 
ATOM      5  C   UNL     1       8.537   7.668  18.994  0.00  0.00    +0.000 A 
ATOM      6  C   UNL     1       7.856   6.446  18.884  0.00  0.00    +0.000 A 
ATOM      7 CL   UNL     1       8.369   5.133  19.887  0.00  0.00    +0.000 Cl
ENDROOT
BRANCH   1  11
ATOM      8  C   UNL     1       3.125   4.993  19.817  0.00  0.00    +0.000 A 
ATOM      9  N   UNL     1       4.259   5.413  19.238  0.00  0.00    +0.000 NA
ATOM     10  C   UNL     1       4.989   4.572  18.488  0.00  0.00    +0.000 A 
ATOM     11  N   UNL     1       6.124   5.053  17.849  0.00  0.00    +0.000 N 
ATOM     12  N   UNL     1       4.647   3.294  18.289  0.00  0.00    +0.000 NA
ATOM     13  C   UNL     1       3.523   2.871  18.913  0.00  0.00    +0.000 A 
ATOM     14  C   UNL     1       2.716   3.677  19.685  0.00  0.00    +0.000 A 
ATOM     15 CL   UNL     1       1.286   3.057  20.405  0.00  0.00    +0.000 Cl
ATOM     16  H   UNL     1       6.442   4.431  17.119  0.00  0.00    +0.000 HD
BRANCH   8  18
ATOM     17  C   UNL     1       2.162   7.201  19.947  0.00  0.00    +0.000 C 
ATOM     18  N   UNL     1       2.395   5.915  20.591  0.00  0.00    +0.000 N 
ATOM     19  H   UNL     1       1.534   5.476  20.911  0.00  0.00    +0.000 HD
ENDBRANCH   8  18
ENDBRANCH   1  11
BRANCH   4  20
ATOM     20  C   UNL     1       8.843  10.045  18.368  0.00  0.00    +0.000 A 
ATOM     21  N   UNL     1       8.753  11.152  17.663  0.00  0.00    +0.000 NA
ATOM     22  N   UNL     1       9.663  12.042  18.202  0.00  0.00    +0.000 NA
ATOM     23  C   UNL     1      10.247  11.411  19.196  0.00  0.00    +0.000 A 
ATOM     24  C   UNL     1      11.319  11.862  20.099  0.00  0.00    +0.000 C 
ATOM     25  O   UNL     1       9.774  10.142  19.375  0.00  0.00    +0.000 OA
ENDBRANCH   4  20
TORSDOF 3
ENDMDL
MODEL 7
REMARK VINA RESULT:      -7.2      1.568      2.072
REMARK  Name = 
REMARK  5 active torsions:
REMARK  status: ('A' for Active; 'I' for Inactive)
REMARK    1  A    between atoms: C_1  and  N_2
REMARK    2  A    between atoms: N_2  and  C_3
REMARK    3  A    between atoms: N_6  and  C_7
REMARK    4  A    between atoms: C_10  and  C_11
REMARK    5  A    between atoms: C_14  and  C_15
REMARK                            x       y       z     vdW  Elec       q    Type
REMARK                         _______ _______ _______ _____ _____    ______ ____
ROOT
ATOM      1  C   UNL     1       2.185   6.953  19.708  0.00  0.00    +0.000 A 
ATOM      2  C   UNL     1       2.504   7.817  18.650  0.00  0.00    +0.000 A 
ATOM      3  C   UNL     1       3.472   7.494  17.698  0.00  0.00    +0.000 A 
ATOM      4  C   UNL     1       4.174   6.291  17.780  0.00  0.00    +0.000 A 
ATOM      5  C   UNL     1       3.860   5.405  18.820  0.00  0.00    +0.000 A 
ATOM      6  C   UNL     1       2.878   5.732  19.768  0.00  0.00    +0.000 A 
ATOM      7 CL   UNL     1       2.542   4.588  21.021  0.00  0.00    +0.000 Cl
ENDROOT
BRANCH   1  11
ATOM      8  C   UNL     1       0.742  10.821  20.886  0.00  0.00    +0.000 A 
ATOM      9  N   UNL     1       1.189   9.618  20.498  0.00  0.00    +0.000 NA
ATOM     10  C   UNL     1       0.744   8.504  21.102  0.00  0.00    +0.000 A 
ATOM     11  N   UNL     1       1.177   7.268  20.637  0.00  0.00    +0.000 N 
ATOM     12  N   UNL     1      -0.137   8.526  22.108  0.00  0.00    +0.000 NA
ATOM     13  C   UNL     1      -0.548   9.748  22.517  0.00  0.00    +0.000 A 
ATOM     14  C   UNL     1      -0.149  10.933  21.939  0.00  0.00    +0.000 A 
ATOM     15 CL   UNL     1      -0.758  12.435  22.504  0.00  0.00    +0.000 Cl
ATOM     16  H   UNL     1       0.597   6.512  20.971  0.00  0.00    +0.000 HD
BRANCH   8  18
ATOM     17  C   UNL     1       0.532  12.297  18.988  0.00  0.00    +0.000 C 
ATOM     18  N   UNL     1       1.237  11.958  20.218  0.00  0.00    +0.000 N 
ATOM     19  H   UNL     1       1.281  12.737  20.872  0.00  0.00    +0.000 HD
ENDBRANCH   8  18
ENDBRANCH   1  11
BRANCH   4  20
ATOM     20  C   UNL     1       5.232   5.968  16.836  0.00  0.00    +0.000 A 
ATOM     21  N   UNL     1       6.393   6.551  16.623  0.00  0.00    +0.000 NA
ATOM     22  N   UNL     1       6.982   5.888  15.563  0.00  0.00    +0.000 NA
ATOM     23  C   UNL     1       6.134   4.951  15.201  0.00  0.00    +0.000 A 
ATOM     24  C   UNL     1       6.225   3.971  14.105  0.00  0.00    +0.000 C 
ATOM     25  O   UNL     1       5.003   4.928  15.966  0.00  0.00    +0.000 OA
ENDBRANCH   4  20
TORSDOF 3
ENDMDL
MODEL 8
REMARK VINA RESULT:      -7.2      1.318      1.584
REMARK  Name = 
REMARK  5 active torsions:
REMARK  status: ('A' for Active; 'I' for Inactive)
REMARK    1  A    between atoms: C_1  and  N_2
REMARK    2  A    between atoms: N_2  and  C_3
REMARK    3  A    between atoms: N_6  and  C_7
REMARK    4  A    between atoms: C_10  and  C_11
REMARK    5  A    between atoms: C_14  and  C_15
REMARK                            x       y       z     vdW  Elec       q    Type
REMARK                         _______ _______ _______ _____ _____    ______ ____
ROOT
ATOM      1  C   UNL     1       2.598   6.899  19.395  0.00  0.00    +0.000 A 
ATOM      2  C   UNL     1       3.043   7.630  18.283  0.00  0.00    +0.000 A 
ATOM      3  C   UNL     1       3.972   7.110  17.379  0.00  0.00    +0.000 A 
ATOM      4  C   UNL     1       4.506   5.835  17.565  0.00  0.00    +0.000 A 
ATOM      5  C   UNL     1       4.062   5.080  18.661  0.00  0.00    +0.000 A 
ATOM      6  C   UNL     1       3.121   5.605  19.560  0.00  0.00    +0.000 A 
ATOM      7 CL   UNL     1       2.619   4.614  20.886  0.00  0.00    +0.000 Cl
ENDROOT
BRANCH   1  11
ATOM      8  C   UNL     1       0.712  10.755  19.341  0.00  0.00    +0.000 A 
ATOM      9  N   UNL     1       1.295   9.548  19.338  0.00  0.00    +0.000 NA
ATOM     10  C   UNL     1       1.062   8.681  20.337  0.00  0.00    +0.000 A 
ATOM     11  N   UNL     1       1.630   7.415  20.275  0.00  0.00    +0.000 N 
ATOM     12  N   UNL     1       0.267   8.965  21.374  0.00  0.00    +0.000 NA
ATOM     13  C   UNL     1      -0.283  10.202  21.386  0.00  0.00    +0.000 A 
ATOM     14  C   UNL     1      -0.103  11.138  20.392  0.00  0.00    +0.000 A 
ATOM     15 CL   UNL     1      -0.874  12.669  20.478  0.00  0.00    +0.000 Cl
ATOM     16  H   UNL     1       1.192   6.769  20.916  0.00  0.00    +0.000 HD
BRANCH   8  18
ATOM     17  C   UNL     1       2.236  12.367  18.391  0.00  0.00    +0.000 C 
ATOM     18  N   UNL     1       0.986  11.626  18.270  0.00  0.00    +0.000 N 
ATOM     19  H   UNL     1       0.921  11.111  17.394  0.00  0.00    +0.000 HD
ENDBRANCH   8  18
ENDBRANCH   1  11
BRANCH   4  20
ATOM     20  C   UNL     1       5.522   5.304  16.672  0.00  0.00    +0.000 A 
ATOM     21  N   UNL     1       6.834   5.312  16.772  0.00  0.00    +0.000 NA
ATOM     22  N   UNL     1       7.325   4.740  15.614  0.00  0.00    +0.000 NA
ATOM     23  C   UNL     1       6.276   4.429  14.886  0.00  0.00    +0.000 A 
ATOM     24  C   UNL     1       6.204   3.827  13.544  0.00  0.00    +0.000 C 
ATOM     25  O   UNL     1       5.092   4.744  15.492  0.00  0.00    +0.000 OA
ENDBRANCH   4  20
TORSDOF 3
ENDMDL
MODEL 9
REMARK VINA RESULT:      -7.2      3.097      4.529
REMARK  Name = 
REMARK  5 active torsions:
REMARK  status: ('A' for Active; 'I' for Inactive)
REMARK    1  A    between atoms: C_1  and  N_2
REMARK    2  A    between atoms: N_2  and  C_3
REMARK    3  A    between atoms: N_6  and  C_7
REMARK    4  A    between atoms: C_10  and  C_11
REMARK    5  A    between atoms: C_14  and  C_15
REMARK                            x       y       z     vdW  Elec       q    Type
REMARK                         _______ _______ _______ _____ _____    ______ ____
ROOT
ATOM      1  C   UNL     1       1.314   9.368  19.323  0.00  0.00    +0.000 A 
ATOM      2  C   UNL     1       1.814   9.310  18.013  0.00  0.00    +0.000 A 
ATOM      3  C   UNL     1       2.529   8.207  17.543  0.00  0.00    +0.000 A 
ATOM      4  C   UNL     1       2.786   7.119  18.377  0.00  0.00    +0.000 A 
ATOM      5  C   UNL     1       2.281   7.148  19.685  0.00  0.00    +0.000 A 
ATOM      6  C   UNL     1       1.554   8.256  20.149  0.00  0.00    +0.000 A 
ATOM      7 CL   UNL     1       0.960   8.220  21.773  0.00  0.00    +0.000 Cl
ENDROOT
BRANCH   1  11
ATOM      8  C   UNL     1      -2.665  10.521  18.199  0.00  0.00    +0.000 A 
ATOM      9  N   UNL     1      -1.430  10.142  18.555  0.00  0.00    +0.000 NA
ATOM     10  C   UNL     1      -0.694  10.913  19.373  0.00  0.00    +0.000 A 
ATOM     11  N   UNL     1       0.558  10.464  19.774  0.00  0.00    +0.000 N 
ATOM     12  N   UNL     1      -1.131  12.080  19.858  0.00  0.00    +0.000 NA
ATOM     13  C   UNL     1      -2.363  12.471  19.457  0.00  0.00    +0.000 A 
ATOM     14  C   UNL     1      -3.182  11.729  18.635  0.00  0.00    +0.000 A 
ATOM     15 CL   UNL     1      -4.747  12.292  18.213  0.00  0.00    +0.000 Cl
ATOM     16  H   UNL     1       0.906  10.974  20.574  0.00  0.00    +0.000 HD
BRANCH   8  18
ATOM     17  C   UNL     1      -3.063   9.804  15.930  0.00  0.00    +0.000 C 
ATOM     18  N   UNL     1      -3.396   9.675  17.343  0.00  0.00    +0.000 N 
ATOM     19  H   UNL     1      -3.324   8.717  17.677  0.00  0.00    +0.000 HD
ENDBRANCH   8  18
ENDBRANCH   1  11
BRANCH   4  20
ATOM     20  C   UNL     1       3.585   5.992  17.925  0.00  0.00    +0.000 A 
ATOM     21  N   UNL     1       4.673   5.960  17.186  0.00  0.00    +0.000 NA
ATOM     22  N   UNL     1       4.984   4.627  16.992  0.00  0.00    +0.000 NA
ATOM     23  C   UNL     1       4.058   3.941  17.623  0.00  0.00    +0.000 A 
ATOM     24  C   UNL     1       3.869   2.483  17.724  0.00  0.00    +0.000 C 
ATOM     25  O   UNL     1       3.138   4.733  18.251  0.00  0.00    +0.000 OA
ENDBRANCH   4  20
TORSDOF 3
ENDMDL
