MODEL 1
REMARK VINA RESULT:      -7.8      0.000      0.000
REMARK  Name = 
REMARK  7 active torsions:
REMARK  status: ('A' for Active; 'I' for Inactive)
REMARK    1  A    between atoms: C_1  and  C_2
REMARK    2  A    between atoms: N_4  and  C_5
REMARK    3  A    between atoms: C_5  and  C_6
REMARK    4  A    between atoms: C_6  and  C_7
REMARK    5  A    between atoms: C_15  and  N_16
REMARK    6  A    between atoms: N_16  and  C_24
REMARK    7  A    between atoms: C_17  and  C_19
REMARK                            x       y       z     vdW  Elec       q    Type
REMARK                         _______ _______ _______ _____ _____    ______ ____
ROOT
ATOM      1  C   UNL     1       7.031   7.639  17.659  0.00  0.00    +0.000 C 
ATOM      2  C   UNL     1       5.640   6.981  17.572  0.00  0.00    +0.000 C 
ATOM      3  C   UNL     1       5.422   6.464  16.145  0.00  0.00    +0.000 C 
ATOM      4  N   UNL     1       6.255   5.322  15.761  0.00  0.00    +0.000 NA
ATOM      5  C   UNL     1       6.236   4.256  16.787  0.00  0.00    +0.000 C 
ATOM      6  C   UNL     1       6.416   4.750  18.225  0.00  0.00    +0.000 C 
ATOM      7  C   UNL     1       5.370   5.844  18.573  0.00  0.00    +0.000 C 
ENDROOT
BRANCH   7   8
ATOM      8  N   UNL     1       3.942   5.263  18.708  0.00  0.00    +0.000 N 
ATOM      9  C   UNL     1       2.625   5.838  18.769  0.00  0.00    +0.000 C 
ATOM     10  O   UNL     1       1.636   5.102  18.864  0.00  0.00    +0.000 OA
BRANCH   8  11
ATOM     11  C   UNL     1       3.930   3.811  18.740  0.00  0.00    +0.000 A 
ATOM     12  C   UNL     1       4.417   3.120  19.860  0.00  0.00    +0.000 A 
ATOM     13  C   UNL     1       4.424   1.720  19.867  0.00  0.00    +0.000 A 
ATOM     14  C   UNL     1       3.981   1.002  18.764  0.00  0.00    +0.000 A 
ATOM     15  C   UNL     1       3.508   1.674  17.638  0.00  0.00    +0.000 A 
ATOM     16  C   UNL     1       3.469   3.068  17.642  0.00  0.00    +0.000 A 
ATOM     17  F   UNL     1       3.051   3.692  16.526  0.00  0.00    +0.000 F 
ENDBRANCH   8  11
BRANCH   9  18
ATOM     18  C   UNL     1       2.378   7.268  18.671  0.00  0.00    +0.000 A 
ATOM     19  C   UNL     1       1.897   8.156  19.628  0.00  0.00    +0.000 A 
ATOM     20  C   UNL     1       1.611   9.368  18.952  0.00  0.00    +0.000 A 
ATOM     21  C   UNL     1       2.074   9.203  17.670  0.00  0.00    +0.000 A 
ATOM     22  O   UNL     1       2.631   7.969  17.528  0.00  0.00    +0.000 OA
ENDBRANCH   9  18
ENDBRANCH   7   8
BRANCH   4  23
ATOM     23  C   UNL     1       5.734   4.739  14.489  0.00  0.00    +0.000 C 
BRANCH  23  24
ATOM     24  C   UNL     1       6.735   4.711  13.318  0.00  0.00    +0.000 C 
BRANCH  24  25
ATOM     25  C   UNL     1       6.459   3.547  12.399  0.00  0.00    +0.000 A 
ATOM     26  C   UNL     1       5.142   3.150  12.126  0.00  0.00    +0.000 A 
ATOM     27  C   UNL     1       4.892   2.051  11.303  0.00  0.00    +0.000 A 
ATOM     28  C   UNL     1       5.956   1.339  10.756  0.00  0.00    +0.000 A 
ATOM     29  C   UNL     1       7.269   1.725  11.026  0.00  0.00    +0.000 A 
ATOM     30  C   UNL     1       7.522   2.823  11.846  0.00  0.00    +0.000 A 
ENDBRANCH  24  25
ENDBRANCH  23  24
ENDBRANCH   4  23
TORSDOF 6
ENDMDL
MODEL 2
REMARK VINA RESULT:      -7.5      5.559      8.484
REMARK  Name = 
REMARK  7 active torsions:
REMARK  status: ('A' for Active; 'I' for Inactive)
REMARK    1  A    between atoms: C_1  and  C_2
REMARK    2  A    between atoms: N_4  and  C_5
REMARK    3  A    between atoms: C_5  and  C_6
REMARK    4  A    between atoms: C_6  and  C_7
REMARK    5  A    between atoms: C_15  and  N_16
REMARK    6  A    between atoms: N_16  and  C_24
REMARK    7  A    between atoms: C_17  and  C_19
REMARK                            x       y       z     vdW  Elec       q    Type
REMARK                         _______ _______ _______ _____ _____    ______ ____
ROOT
ATOM      1  C   UNL     1      -1.363  10.084  17.422  0.00  0.00    +0.000 C 
ATOM      2  C   UNL     1      -0.643  10.387  18.750  0.00  0.00    +0.000 C 
ATOM      3  C   UNL     1       0.192   9.166  19.154  0.00  0.00    +0.000 C 
ATOM      4  N   UNL     1       1.353   8.894  18.304  0.00  0.00    +0.000 NA
ATOM      5  C   UNL     1       2.160  10.111  18.069  0.00  0.00    +0.000 C 
ATOM      6  C   UNL     1       1.348  11.355  17.698  0.00  0.00    +0.000 C 
ATOM      7  C   UNL     1       0.251  11.640  18.759  0.00  0.00    +0.000 C 
ENDROOT
BRANCH   7   8
ATOM      8  N   UNL     1       0.849  12.147  20.094  0.00  0.00    +0.000 N 
ATOM      9  C   UNL     1       1.722  13.230  20.457  0.00  0.00    +0.000 C 
ATOM     10  O   UNL     1       2.025  13.407  21.642  0.00  0.00    +0.000 OA
BRANCH   8  11
ATOM     11  C   UNL     1       0.391  11.378  21.238  0.00  0.00    +0.000 A 
ATOM     12  C   UNL     1       1.109  10.254  21.673  0.00  0.00    +0.000 A 
ATOM     13  C   UNL     1       0.643   9.507  22.761  0.00  0.00    +0.000 A 
ATOM     14  C   UNL     1      -0.541   9.847  23.401  0.00  0.00    +0.000 A 
ATOM     15  C   UNL     1      -1.274  10.952  22.972  0.00  0.00    +0.000 A 
ATOM     16  C   UNL     1      -0.794  11.717  21.910  0.00  0.00    +0.000 A 
ATOM     17  F   UNL     1      -1.542  12.751  21.486  0.00  0.00    +0.000 F 
ENDBRANCH   8  11
BRANCH   9  18
ATOM     18  C   UNL     1       2.242  14.187  19.492  0.00  0.00    +0.000 A 
ATOM     19  C   UNL     1       3.494  14.253  18.889  0.00  0.00    +0.000 A 
ATOM     20  C   UNL     1       3.565  15.505  18.230  0.00  0.00    +0.000 A 
ATOM     21  C   UNL     1       2.312  16.057  18.337  0.00  0.00    +0.000 A 
ATOM     22  O   UNL     1       1.483  15.214  19.011  0.00  0.00    +0.000 OA
ENDBRANCH   9  18
ENDBRANCH   7   8
BRANCH   4  23
ATOM     23  C   UNL     1       2.230   7.889  18.976  0.00  0.00    +0.000 C 
BRANCH  23  24
ATOM     24  C   UNL     1       2.608   6.667  18.118  0.00  0.00    +0.000 C 
BRANCH  24  25
ATOM     25  C   UNL     1       2.072   5.394  18.724  0.00  0.00    +0.000 A 
ATOM     26  C   UNL     1       1.748   4.297  17.911  0.00  0.00    +0.000 A 
ATOM     27  C   UNL     1       1.219   3.134  18.471  0.00  0.00    +0.000 A 
ATOM     28  C   UNL     1       1.002   3.064  19.845  0.00  0.00    +0.000 A 
ATOM     29  C   UNL     1       1.317   4.151  20.660  0.00  0.00    +0.000 A 
ATOM     30  C   UNL     1       1.847   5.313  20.103  0.00  0.00    +0.000 A 
ENDBRANCH  24  25
ENDBRANCH  23  24
ENDBRANCH   4  23
TORSDOF 6
ENDMDL
MODEL 3
REMARK VINA RESULT:      -7.4      5.613      9.700
REMARK  Name = 
REMARK  7 active torsions:
REMARK  status: ('A' for Active; 'I' for Inactive)
REMARK    1  A    between atoms: C_1  and  C_2
REMARK    2  A    between atoms: N_4  and  C_5
REMARK    3  A    between atoms: C_5  and  C_6
REMARK    4  A    between atoms: C_6  and  C_7
REMARK    5  A    between atoms: C_15  and  N_16
REMARK    6  A    between atoms: N_16  and  C_24
REMARK    7  A    between atoms: C_17  and  C_19
REMARK                            x       y       z     vdW  Elec       q    Type
REMARK                         _______ _______ _______ _____ _____    ______ ____
ROOT
ATOM      1  C   UNL     1      -2.071  11.577  17.527  0.00  0.00    +0.000 C 
ATOM      2  C   UNL     1      -1.577  11.767  18.974  0.00  0.00    +0.000 C 
ATOM      3  C   UNL     1      -0.819  10.507  19.411  0.00  0.00    +0.000 C 
ATOM      4  N   UNL     1       0.465  10.288  18.742  0.00  0.00    +0.000 NA
ATOM      5  C   UNL     1       1.300  11.509  18.738  0.00  0.00    +0.000 C 
ATOM      6  C   UNL     1       0.559  12.789  18.339  0.00  0.00    +0.000 C 
ATOM      7  C   UNL     1      -0.697  13.004  19.227  0.00  0.00    +0.000 C 
ENDROOT
BRANCH   7   8
ATOM      8  N   UNL     1      -0.325  13.398  20.677  0.00  0.00    +0.000 N 
ATOM      9  C   UNL     1       0.788  14.081  21.278  0.00  0.00    +0.000 C 
ATOM     10  O   UNL     1       0.806  14.273  22.499  0.00  0.00    +0.000 OA
BRANCH   8  11
ATOM     11  C   UNL     1      -1.350  13.027  21.637  0.00  0.00    +0.000 A 
ATOM     12  C   UNL     1      -2.508  13.806  21.778  0.00  0.00    +0.000 A 
ATOM     13  C   UNL     1      -3.476  13.452  22.725  0.00  0.00    +0.000 A 
ATOM     14  C   UNL     1      -3.291  12.352  23.552  0.00  0.00    +0.000 A 
ATOM     15  C   UNL     1      -2.139  11.576  23.433  0.00  0.00    +0.000 A 
ATOM     16  C   UNL     1      -1.190  11.907  22.468  0.00  0.00    +0.000 A 
ATOM     17  F   UNL     1      -0.067  11.170  22.406  0.00  0.00    +0.000 F 
ENDBRANCH   8  11
BRANCH   9  18
ATOM     18  C   UNL     1       1.898  14.621  20.508  0.00  0.00    +0.000 A 
ATOM     19  C   UNL     1       1.979  15.791  19.761  0.00  0.00    +0.000 A 
ATOM     20  C   UNL     1       3.182  15.719  19.017  0.00  0.00    +0.000 A 
ATOM     21  C   UNL     1       3.834  14.597  19.465  0.00  0.00    +0.000 A 
ATOM     22  O   UNL     1       3.106  13.989  20.440  0.00  0.00    +0.000 OA
ENDBRANCH   9  18
ENDBRANCH   7   8
BRANCH   4  23
ATOM     23  C   UNL     1       1.221   9.223  19.466  0.00  0.00    +0.000 C 
BRANCH  23  24
ATOM     24  C   UNL     1       2.209   8.415  18.604  0.00  0.00    +0.000 C 
BRANCH  24  25
ATOM     25  C   UNL     1       2.181   6.953  18.976  0.00  0.00    +0.000 A 
ATOM     26  C   UNL     1       1.957   6.558  20.304  0.00  0.00    +0.000 A 
ATOM     27  C   UNL     1       1.966   5.207  20.650  0.00  0.00    +0.000 A 
ATOM     28  C   UNL     1       2.208   4.243  19.675  0.00  0.00    +0.000 A 
ATOM     29  C   UNL     1       2.436   4.627  18.353  0.00  0.00    +0.000 A 
ATOM     30  C   UNL     1       2.425   5.976  18.004  0.00  0.00    +0.000 A 
ENDBRANCH  24  25
ENDBRANCH  23  24
ENDBRANCH   4  23
TORSDOF 6
ENDMDL
MODEL 4
REMARK VINA RESULT:      -7.4      1.296      4.300
REMARK  Name = 
REMARK  7 active torsions:
REMARK  status: ('A' for Active; 'I' for Inactive)
REMARK    1  A    between atoms: C_1  and  C_2
REMARK    2  A    between atoms: N_4  and  C_5
REMARK    3  A    between atoms: C_5  and  C_6
REMARK    4  A    between atoms: C_6  and  C_7
REMARK    5  A    between atoms: C_15  and  N_16
REMARK    6  A    between atoms: N_16  and  C_24
REMARK    7  A    between atoms: C_17  and  C_19
REMARK                            x       y       z     vdW  Elec       q    Type
REMARK                         _______ _______ _______ _____ _____    ______ ____
ROOT
ATOM      1  C   UNL     1       7.213   7.428  17.862  0.00  0.00    +0.000 C 
ATOM      2  C   UNL     1       5.730   7.069  17.647  0.00  0.00    +0.000 C 
ATOM      3  C   UNL     1       5.540   6.579  16.206  0.00  0.00    +0.000 C 
ATOM      4  N   UNL     1       6.151   5.283  15.902  0.00  0.00    +0.000 NA
ATOM      5  C   UNL     1       5.819   4.264  16.923  0.00  0.00    +0.000 C 
ATOM      6  C   UNL     1       5.966   4.739  18.371  0.00  0.00    +0.000 C 
ATOM      7  C   UNL     1       5.141   6.031  18.619  0.00  0.00    +0.000 C 
ENDROOT
BRANCH   7   8
ATOM      8  N   UNL     1       3.618   5.759  18.621  0.00  0.00    +0.000 N 
ATOM      9  C   UNL     1       2.809   4.570  18.635  0.00  0.00    +0.000 C 
ATOM     10  O   UNL     1       1.577   4.663  18.651  0.00  0.00    +0.000 OA
BRANCH   8  11
ATOM     11  C   UNL     1       2.832   6.981  18.657  0.00  0.00    +0.000 A 
ATOM     12  C   UNL     1       2.765   7.816  17.532  0.00  0.00    +0.000 A 
ATOM     13  C   UNL     1       2.025   9.004  17.589  0.00  0.00    +0.000 A 
ATOM     14  C   UNL     1       1.379   9.382  18.758  0.00  0.00    +0.000 A 
ATOM     15  C   UNL     1       1.448   8.570  19.888  0.00  0.00    +0.000 A 
ATOM     16  C   UNL     1       2.156   7.371  19.824  0.00  0.00    +0.000 A 
ATOM     17  F   UNL     1       2.246   6.628  20.942  0.00  0.00    +0.000 F 
ENDBRANCH   8  11
BRANCH   9  18
ATOM     18  C   UNL     1       3.371   3.229  18.686  0.00  0.00    +0.000 A 
ATOM     19  C   UNL     1       3.266   2.184  17.775  0.00  0.00    +0.000 A 
ATOM     20  C   UNL     1       3.784   1.031  18.413  0.00  0.00    +0.000 A 
ATOM     21  C   UNL     1       4.313   1.466  19.604  0.00  0.00    +0.000 A 
ATOM     22  O   UNL     1       4.155   2.812  19.723  0.00  0.00    +0.000 OA
ENDBRANCH   9  18
ENDBRANCH   7   8
BRANCH   4  23
ATOM     23  C   UNL     1       5.638   4.793  14.588  0.00  0.00    +0.000 C 
BRANCH  23  24
ATOM     24  C   UNL     1       6.673   4.765  13.446  0.00  0.00    +0.000 C 
BRANCH  24  25
ATOM     25  C   UNL     1       6.434   3.591  12.530  0.00  0.00    +0.000 A 
ATOM     26  C   UNL     1       7.513   2.919  11.935  0.00  0.00    +0.000 A 
ATOM     27  C   UNL     1       7.286   1.856  11.060  0.00  0.00    +0.000 A 
ATOM     28  C   UNL     1       5.983   1.464  10.768  0.00  0.00    +0.000 A 
ATOM     29  C   UNL     1       4.904   2.130  11.352  0.00  0.00    +0.000 A 
ATOM     30  C   UNL     1       5.127   3.190  12.227  0.00  0.00    +0.000 A 
ENDBRANCH  24  25
ENDBRANCH  23  24
ENDBRANCH   4  23
TORSDOF 6
ENDMDL
MODEL 5
REMARK VINA RESULT:      -7.4      1.319      4.171
REMARK  Name = 
REMARK  7 active torsions:
REMARK  status: ('A' for Active; 'I' for Inactive)
REMARK    1  A    between atoms: C_1  and  C_2
REMARK    2  A    between atoms: N_4  and  C_5
REMARK    3  A    between atoms: C_5  and  C_6
REMARK    4  A    between atoms: C_6  and  C_7
REMARK    5  A    between atoms: C_15  and  N_16
REMARK    6  A    between atoms: N_16  and  C_24
REMARK    7  A    between atoms: C_17  and  C_19
REMARK                            x       y       z     vdW  Elec       q    Type
REMARK                         _______ _______ _______ _____ _____    ______ ____
ROOT
ATOM      1  C   UNL     1       7.201   7.165  17.904  0.00  0.00    +0.000 C 
ATOM      2  C   UNL     1       5.703   6.875  17.690  0.00  0.00    +0.000 C 
ATOM      3  C   UNL     1       5.489   6.399  16.248  0.00  0.00    +0.000 C 
ATOM      4  N   UNL     1       6.040   5.078  15.938  0.00  0.00    +0.000 NA
ATOM      5  C   UNL     1       5.663   4.072  16.956  0.00  0.00    +0.000 C 
ATOM      6  C   UNL     1       5.834   4.534  18.405  0.00  0.00    +0.000 C 
ATOM      7  C   UNL     1       5.069   5.862  18.660  0.00  0.00    +0.000 C 
ENDROOT
BRANCH   7   8
ATOM      8  N   UNL     1       3.535   5.659  18.664  0.00  0.00    +0.000 N 
ATOM      9  C   UNL     1       2.673   4.509  18.717  0.00  0.00    +0.000 C 
ATOM     10  O   UNL     1       1.446   4.659  18.722  0.00  0.00    +0.000 OA
BRANCH   8  11
ATOM     11  C   UNL     1       2.806   6.916  18.651  0.00  0.00    +0.000 A 
ATOM     12  C   UNL     1       2.776   7.709  17.495  0.00  0.00    +0.000 A 
ATOM     13  C   UNL     1       2.091   8.930  17.505  0.00  0.00    +0.000 A 
ATOM     14  C   UNL     1       1.463   9.383  18.657  0.00  0.00    +0.000 A 
ATOM     15  C   UNL     1       1.496   8.613  19.819  0.00  0.00    +0.000 A 
ATOM     16  C   UNL     1       2.149   7.381  19.801  0.00  0.00    +0.000 A 
ATOM     17  F   UNL     1       2.206   6.679  20.947  0.00  0.00    +0.000 F 
ENDBRANCH   8  11
BRANCH   9  18
ATOM     18  C   UNL     1       3.173   3.147  18.819  0.00  0.00    +0.000 A 
ATOM     19  C   UNL     1       3.811   2.509  19.878  0.00  0.00    +0.000 A 
ATOM     20  C   UNL     1       4.307   1.281  19.376  0.00  0.00    +0.000 A 
ATOM     21  C   UNL     1       3.816   1.171  18.098  0.00  0.00    +0.000 A 
ATOM     22  O   UNL     1       3.045   2.251  17.797  0.00  0.00    +0.000 OA
ENDBRANCH   9  18
ENDBRANCH   7   8
BRANCH   4  23
ATOM     23  C   UNL     1       5.502   4.617  14.623  0.00  0.00    +0.000 C 
BRANCH  23  24
ATOM     24  C   UNL     1       6.461   4.778  13.428  0.00  0.00    +0.000 C 
BRANCH  24  25
ATOM     25  C   UNL     1       6.335   3.615  12.474  0.00  0.00    +0.000 A 
ATOM     26  C   UNL     1       5.073   3.116  12.119  0.00  0.00    +0.000 A 
ATOM     27  C   UNL     1       4.962   2.019  11.265  0.00  0.00    +0.000 A 
ATOM     28  C   UNL     1       6.111   1.409  10.768  0.00  0.00    +0.000 A 
ATOM     29  C   UNL     1       7.370   1.896  11.119  0.00  0.00    +0.000 A 
ATOM     30  C   UNL     1       7.484   2.993  11.971  0.00  0.00    +0.000 A 
ENDBRANCH  24  25
ENDBRANCH  23  24
ENDBRANCH   4  23
TORSDOF 6
ENDMDL
MODEL 6
REMARK VINA RESULT:      -7.3      5.929      9.731
REMARK  Name = 
REMARK  7 active torsions:
REMARK  status: ('A' for Active; 'I' for Inactive)
REMARK    1  A    between atoms: C_1  and  C_2
REMARK    2  A    between atoms: N_4  and  C_5
REMARK    3  A    between atoms: C_5  and  C_6
REMARK    4  A    between atoms: C_6  and  C_7
REMARK    5  A    between atoms: C_15  and  N_16
REMARK    6  A    between atoms: N_16  and  C_24
REMARK    7  A    between atoms: C_17  and  C_19
REMARK                            x       y       z     vdW  Elec       q    Type
REMARK                         _______ _______ _______ _____ _____    ______ ____
ROOT
ATOM      1  C   UNL     1      -2.024  11.444  17.528  0.00  0.00    +0.000 C 
ATOM      2  C   UNL     1      -1.467  11.666  18.947  0.00  0.00    +0.000 C 
ATOM      3  C   UNL     1      -0.653  10.433  19.361  0.00  0.00    +0.000 C 
ATOM      4  N   UNL     1       0.604  10.243  18.634  0.00  0.00    +0.000 NA
ATOM      5  C   UNL     1       1.401  11.488  18.577  0.00  0.00    +0.000 C 
ATOM      6  C   UNL     1       0.605  12.741  18.200  0.00  0.00    +0.000 C 
ATOM      7  C   UNL     1      -0.613  12.930  19.146  0.00  0.00    +0.000 C 
ENDROOT
BRANCH   7   8
ATOM      8  N   UNL     1      -0.184  13.352  20.571  0.00  0.00    +0.000 N 
ATOM      9  C   UNL     1       0.936  14.074  21.112  0.00  0.00    +0.000 C 
ATOM     10  O   UNL     1       1.006  14.281  22.329  0.00  0.00    +0.000 OA
BRANCH   8  11
ATOM     11  C   UNL     1      -1.152  12.964  21.583  0.00  0.00    +0.000 A 
ATOM     12  C   UNL     1      -0.939  11.823  22.371  0.00  0.00    +0.000 A 
ATOM     13  C   UNL     1      -1.892  11.447  23.325  0.00  0.00    +0.000 A 
ATOM     14  C   UNL     1      -3.065  12.172  23.481  0.00  0.00    +0.000 A 
ATOM     15  C   UNL     1      -3.298  13.300  22.696  0.00  0.00    +0.000 A 
ATOM     16  C   UNL     1      -2.336  13.696  21.769  0.00  0.00    +0.000 A 
ATOM     17  F   UNL     1      -2.605  14.760  20.992  0.00  0.00    +0.000 F 
ENDBRANCH   8  11
BRANCH   9  18
ATOM     18  C   UNL     1       1.992  14.635  20.284  0.00  0.00    +0.000 A 
ATOM     19  C   UNL     1       3.321  14.248  20.152  0.00  0.00    +0.000 A 
ATOM     20  C   UNL     1       3.974  15.268  19.417  0.00  0.00    +0.000 A 
ATOM     21  C   UNL     1       2.985  16.131  19.013  0.00  0.00    +0.000 A 
ATOM     22  O   UNL     1       1.773  15.693  19.450  0.00  0.00    +0.000 OA
ENDBRANCH   9  18
ENDBRANCH   7   8
BRANCH   4  23
ATOM     23  C   UNL     1       1.425   9.209  19.332  0.00  0.00    +0.000 C 
BRANCH  23  24
ATOM     24  C   UNL     1       2.283   8.319  18.414  0.00  0.00    +0.000 C 
BRANCH  24  25
ATOM     25  C   UNL     1       2.238   6.879  18.860  0.00  0.00    +0.000 A 
ATOM     26  C   UNL     1       2.341   5.838  17.925  0.00  0.00    +0.000 A 
ATOM     27  C   UNL     1       2.263   4.508  18.338  0.00  0.00    +0.000 A 
ATOM     28  C   UNL     1       2.073   4.210  19.685  0.00  0.00    +0.000 A 
ATOM     29  C   UNL     1       1.965   5.239  20.621  0.00  0.00    +0.000 A 
ATOM     30  C   UNL     1       2.044   6.568  20.212  0.00  0.00    +0.000 A 
ENDBRANCH  24  25
ENDBRANCH  23  24
ENDBRANCH   4  23
TORSDOF 6
ENDMDL
MODEL 7
REMARK VINA RESULT:      -7.3      6.026     10.235
REMARK  Name = 
REMARK  7 active torsions:
REMARK  status: ('A' for Active; 'I' for Inactive)
REMARK    1  A    between atoms: C_1  and  C_2
REMARK    2  A    between atoms: N_4  and  C_5
REMARK    3  A    between atoms: C_5  and  C_6
REMARK    4  A    between atoms: C_6  and  C_7
REMARK    5  A    between atoms: C_15  and  N_16
REMARK    6  A    between atoms: N_16  and  C_24
REMARK    7  A    between atoms: C_17  and  C_19
REMARK                            x       y       z     vdW  Elec       q    Type
REMARK                         _______ _______ _______ _____ _____    ______ ____
ROOT
ATOM      1  C   UNL     1       1.310  12.299  18.366  0.00  0.00    +0.000 C 
ATOM      2  C   UNL     1      -0.130  11.887  18.729  0.00  0.00    +0.000 C 
ATOM      3  C   UNL     1      -0.117  10.452  19.269  0.00  0.00    +0.000 C 
ATOM      4  N   UNL     1       0.520  10.284  20.577  0.00  0.00    +0.000 NA
ATOM      5  C   UNL     1       0.038  11.282  21.557  0.00  0.00    +0.000 C 
ATOM      6  C   UNL     1      -0.018  12.719  21.032  0.00  0.00    +0.000 C 
ATOM      7  C   UNL     1      -0.860  12.801  19.729  0.00  0.00    +0.000 C 
ENDROOT
BRANCH   7   8
ATOM      8  N   UNL     1      -2.370  12.597  19.996  0.00  0.00    +0.000 N 
ATOM      9  C   UNL     1      -3.433  11.929  19.295  0.00  0.00    +0.000 C 
ATOM     10  O   UNL     1      -4.573  11.916  19.772  0.00  0.00    +0.000 OA
BRANCH   8  11
ATOM     11  C   UNL     1      -2.798  13.176  21.258  0.00  0.00    +0.000 A 
ATOM     12  C   UNL     1      -3.117  12.352  22.347  0.00  0.00    +0.000 A 
ATOM     13  C   UNL     1      -3.553  12.923  23.549  0.00  0.00    +0.000 A 
ATOM     14  C   UNL     1      -3.702  14.298  23.669  0.00  0.00    +0.000 A 
ATOM     15  C   UNL     1      -3.402  15.129  22.590  0.00  0.00    +0.000 A 
ATOM     16  C   UNL     1      -2.937  14.565  21.404  0.00  0.00    +0.000 A 
ATOM     17  F   UNL     1      -2.699  15.385  20.364  0.00  0.00    +0.000 F 
ENDBRANCH   8  11
BRANCH   9  18
ATOM     18  C   UNL     1      -3.230  11.205  18.050  0.00  0.00    +0.000 A 
ATOM     19  C   UNL     1      -3.185   9.835  17.813  0.00  0.00    +0.000 A 
ATOM     20  C   UNL     1      -2.719   9.664  16.486  0.00  0.00    +0.000 A 
ATOM     21  C   UNL     1      -2.655  10.924  15.945  0.00  0.00    +0.000 A 
ATOM     22  O   UNL     1      -3.063  11.848  16.857  0.00  0.00    +0.000 OA
ENDBRANCH   9  18
ENDBRANCH   7   8
BRANCH   4  23
ATOM     23  C   UNL     1       0.195   8.927  21.112  0.00  0.00    +0.000 C 
BRANCH  23  24
ATOM     24  C   UNL     1       1.409   8.076  21.529  0.00  0.00    +0.000 C 
BRANCH  24  25
ATOM     25  C   UNL     1       1.790   7.106  20.438  0.00  0.00    +0.000 A 
ATOM     26  C   UNL     1       2.285   7.571  19.210  0.00  0.00    +0.000 A 
ATOM     27  C   UNL     1       2.602   6.673  18.191  0.00  0.00    +0.000 A 
ATOM     28  C   UNL     1       2.420   5.307  18.389  0.00  0.00    +0.000 A 
ATOM     29  C   UNL     1       1.924   4.836  19.606  0.00  0.00    +0.000 A 
ATOM     30  C   UNL     1       1.608   5.731  20.625  0.00  0.00    +0.000 A 
ENDBRANCH  24  25
ENDBRANCH  23  24
ENDBRANCH   4  23
TORSDOF 6
ENDMDL
MODEL 8
REMARK VINA RESULT:      -7.1      0.851      1.224
REMARK  Name = 
REMARK  7 active torsions:
REMARK  status: ('A' for Active; 'I' for Inactive)
REMARK    1  A    between atoms: C_1  and  C_2
REMARK    2  A    between atoms: N_4  and  C_5
REMARK    3  A    between atoms: C_5  and  C_6
REMARK    4  A    between atoms: C_6  and  C_7
REMARK    5  A    between atoms: C_15  and  N_16
REMARK    6  A    between atoms: N_16  and  C_24
REMARK    7  A    between atoms: C_17  and  C_19
REMARK                            x       y       z     vdW  Elec       q    Type
REMARK                         _______ _______ _______ _____ _____    ______ ____
ROOT
ATOM      1  C   UNL     1       7.005   7.690  17.486  0.00  0.00    +0.000 C 
ATOM      2  C   UNL     1       5.611   7.038  17.402  0.00  0.00    +0.000 C 
ATOM      3  C   UNL     1       5.407   6.480  15.988  0.00  0.00    +0.000 C 
ATOM      4  N   UNL     1       6.238   5.323  15.648  0.00  0.00    +0.000 NA
ATOM      5  C   UNL     1       6.199   4.288  16.705  0.00  0.00    +0.000 C 
ATOM      6  C   UNL     1       6.365   4.823  18.130  0.00  0.00    +0.000 C 
ATOM      7  C   UNL     1       5.322   5.933  18.432  0.00  0.00    +0.000 C 
ENDROOT
BRANCH   7   8
ATOM      8  N   UNL     1       3.888   5.365  18.567  0.00  0.00    +0.000 N 
ATOM      9  C   UNL     1       2.581   5.953  18.683  0.00  0.00    +0.000 C 
ATOM     10  O   UNL     1       1.584   5.227  18.762  0.00  0.00    +0.000 OA
BRANCH   8  11
ATOM     11  C   UNL     1       3.857   3.913  18.528  0.00  0.00    +0.000 A 
ATOM     12  C   UNL     1       3.378   3.243  17.392  0.00  0.00    +0.000 A 
ATOM     13  C   UNL     1       3.329   1.844  17.378  0.00  0.00    +0.000 A 
ATOM     14  C   UNL     1       3.721   1.108  18.488  0.00  0.00    +0.000 A 
ATOM     15  C   UNL     1       4.185   1.760  19.629  0.00  0.00    +0.000 A 
ATOM     16  C   UNL     1       4.266   3.152  19.633  0.00  0.00    +0.000 A 
ATOM     17  F   UNL     1       4.674   3.759  20.763  0.00  0.00    +0.000 F 
ENDBRANCH   8  11
BRANCH   9  18
ATOM     18  C   UNL     1       2.353   7.390  18.661  0.00  0.00    +0.000 A 
ATOM     19  C   UNL     1       1.874   8.231  19.660  0.00  0.00    +0.000 A 
ATOM     20  C   UNL     1       1.609   9.481  19.049  0.00  0.00    +0.000 A 
ATOM     21  C   UNL     1       2.082   9.380  17.764  0.00  0.00    +0.000 A 
ATOM     22  O   UNL     1       2.626   8.149  17.560  0.00  0.00    +0.000 OA
ENDBRANCH   9  18
ENDBRANCH   7   8
BRANCH   4  23
ATOM     23  C   UNL     1       5.727   4.705  14.387  0.00  0.00    +0.000 C 
BRANCH  23  24
ATOM     24  C   UNL     1       6.715   4.712  13.205  0.00  0.00    +0.000 C 
BRANCH  24  25
ATOM     25  C   UNL     1       6.497   3.515  12.312  0.00  0.00    +0.000 A 
ATOM     26  C   UNL     1       5.199   3.057  12.036  0.00  0.00    +0.000 A 
ATOM     27  C   UNL     1       5.003   1.930  11.239  0.00  0.00    +0.000 A 
ATOM     28  C   UNL     1       6.101   1.248  10.720  0.00  0.00    +0.000 A 
ATOM     29  C   UNL     1       7.395   1.694  10.994  0.00  0.00    +0.000 A 
ATOM     30  C   UNL     1       7.593   2.821  11.788  0.00  0.00    +0.000 A 
ENDBRANCH  24  25
ENDBRANCH  23  24
ENDBRANCH   4  23
TORSDOF 6
ENDMDL
MODEL 9
REMARK VINA RESULT:      -7.1      6.509     10.927
REMARK  Name = 
REMARK  7 active torsions:
REMARK  status: ('A' for Active; 'I' for Inactive)
REMARK    1  A    between atoms: C_1  and  C_2
REMARK    2  A    between atoms: N_4  and  C_5
REMARK    3  A    between atoms: C_5  and  C_6
REMARK    4  A    between atoms: C_6  and  C_7
REMARK    5  A    between atoms: C_15  and  N_16
REMARK    6  A    between atoms: N_16  and  C_24
REMARK    7  A    between atoms: C_17  and  C_19
REMARK                            x       y       z     vdW  Elec       q    Type
REMARK                         _______ _______ _______ _____ _____    ______ ____
ROOT
ATOM      1  C   UNL     1       0.183  13.329  18.468  0.00  0.00    +0.000 C 
ATOM      2  C   UNL     1      -1.159  12.628  18.756  0.00  0.00    +0.000 C 
ATOM      3  C   UNL     1      -0.884  11.179  19.174  0.00  0.00    +0.000 C 
ATOM      4  N   UNL     1      -0.240  11.017  20.480  0.00  0.00    +0.000 NA
ATOM      5  C   UNL     1      -0.909  11.819  21.527  0.00  0.00    +0.000 C 
ATOM      6  C   UNL     1      -1.227  13.261  21.123  0.00  0.00    +0.000 C 
ATOM      7  C   UNL     1      -2.056  13.301  19.810  0.00  0.00    +0.000 C 
ENDROOT
BRANCH   7   8
ATOM      8  N   UNL     1      -3.504  12.798  20.019  0.00  0.00    +0.000 N 
ATOM      9  C   UNL     1      -4.377  11.916  19.292  0.00  0.00    +0.000 C 
ATOM     10  O   UNL     1      -5.512  11.679  19.722  0.00  0.00    +0.000 OA
BRANCH   8  11
ATOM     11  C   UNL     1      -4.098  13.300  21.246  0.00  0.00    +0.000 A 
ATOM     12  C   UNL     1      -4.101  12.515  22.409  0.00  0.00    +0.000 A 
ATOM     13  C   UNL     1      -4.700  13.002  23.577  0.00  0.00    +0.000 A 
ATOM     14  C   UNL     1      -5.321  14.244  23.592  0.00  0.00    +0.000 A 
ATOM     15  C   UNL     1      -5.339  15.029  22.441  0.00  0.00    +0.000 A 
ATOM     16  C   UNL     1      -4.714  14.561  21.286  0.00  0.00    +0.000 A 
ATOM     17  F   UNL     1      -4.786  15.318  20.176  0.00  0.00    +0.000 F 
ENDBRANCH   8  11
BRANCH   9  18
ATOM     18  C   UNL     1      -3.974  11.226  18.076  0.00  0.00    +0.000 A 
ATOM     19  C   UNL     1      -3.573   9.907  17.891  0.00  0.00    +0.000 A 
ATOM     20  C   UNL     1      -3.057   9.817  16.575  0.00  0.00    +0.000 A 
ATOM     21  C   UNL     1      -3.313  11.032  15.987  0.00  0.00    +0.000 A 
ATOM     22  O   UNL     1      -3.960  11.849  16.862  0.00  0.00    +0.000 OA
ENDBRANCH   9  18
ENDBRANCH   7   8
BRANCH   4  23
ATOM     23  C   UNL     1      -0.312   9.583  20.890  0.00  0.00    +0.000 C 
BRANCH  23  24
ATOM     24  C   UNL     1       1.021   8.962  21.348  0.00  0.00    +0.000 C 
BRANCH  24  25
ATOM     25  C   UNL     1       1.613   8.092  20.267  0.00  0.00    +0.000 A 
ATOM     26  C   UNL     1       1.884   8.620  18.995  0.00  0.00    +0.000 A 
ATOM     27  C   UNL     1       2.398   7.804  17.987  0.00  0.00    +0.000 A 
ATOM     28  C   UNL     1       2.637   6.456  18.241  0.00  0.00    +0.000 A 
ATOM     29  C   UNL     1       2.366   5.922  19.501  0.00  0.00    +0.000 A 
ATOM     30  C   UNL     1       1.854   6.735  20.510  0.00  0.00    +0.000 A 
ENDBRANCH  24  25
ENDBRANCH  23  24
ENDBRANCH   4  23
TORSDOF 6
ENDMDL
