MODEL 1
REMARK VINA RESULT:      -7.1      0.000      0.000
REMARK  Name = 
REMARK  2 active torsions:
REMARK  status: ('A' for Active; 'I' for Inactive)
REMARK    1  A    between atoms: C_2  and  C_3
REMARK    2  A    between atoms: C_3  and  N_4
REMARK                            x       y       z     vdW  Elec       q    Type
REMARK                         _______ _______ _______ _____ _____    ______ ____
ROOT
ATOM      1  N   UNL     1       4.723   4.570  18.174  0.00  0.00    +0.000 NA
ATOM      2  C   UNL     1       4.197   5.923  18.171  0.00  0.00    +0.000 C 
ATOM      3  C   UNL     1       2.768   6.188  18.669  0.00  0.00    +0.000 C 
ATOM      4  C   UNL     1       1.632   5.600  17.822  0.00  0.00    +0.000 C 
ATOM      5  C   UNL     1       1.585   4.072  17.747  0.00  0.00    +0.000 C 
ATOM      6  C   UNL     1       2.791   3.508  16.986  0.00  0.00    +0.000 C 
ATOM      7  C   UNL     1       3.921   3.374  18.021  0.00  0.00    +0.000 C 
ATOM      8  C   UNL     1       3.125   3.073  19.268  0.00  0.00    +0.000 A 
ATOM      9  C   UNL     1       3.595   2.631  20.492  0.00  0.00    +0.000 A 
ATOM     10  C   UNL     1       2.698   2.570  21.562  0.00  0.00    +0.000 A 
ATOM     11  C   UNL     1       1.353   2.932  21.392  0.00  0.00    +0.000 A 
ATOM     12  C   UNL     1       0.881   3.367  20.152  0.00  0.00    +0.000 A 
ATOM     13  C   UNL     1       1.781   3.443  19.101  0.00  0.00    +0.000 A 
ENDROOT
BRANCH   1  14
ATOM     14  C   UNL     1       6.155   4.406  18.325  0.00  0.00    +0.000 C 
BRANCH  14  16
ATOM     15  C   UNL     1       7.834   6.218  18.818  0.00  0.00    +0.000 C 
ATOM     16  C   UNL     1       6.761   5.489  19.170  0.00  0.00    +0.000 C 
ENDBRANCH  14  16
ENDBRANCH   1  14
TORSDOF 2
ENDMDL
MODEL 2
REMARK VINA RESULT:      -6.6      1.741      5.050
REMARK  Name = 
REMARK  2 active torsions:
REMARK  status: ('A' for Active; 'I' for Inactive)
REMARK    1  A    between atoms: C_2  and  C_3
REMARK    2  A    between atoms: C_3  and  N_4
REMARK                            x       y       z     vdW  Elec       q    Type
REMARK                         _______ _______ _______ _____ _____    ______ ____
ROOT
ATOM      1  N   UNL     1       4.322   3.847  17.640  0.00  0.00    +0.000 NA
ATOM      2  C   UNL     1       4.716   3.580  16.270  0.00  0.00    +0.000 C 
ATOM      3  C   UNL     1       5.704   4.519  15.562  0.00  0.00    +0.000 C 
ATOM      4  C   UNL     1       5.210   5.945  15.284  0.00  0.00    +0.000 C 
ATOM      5  C   UNL     1       4.910   6.794  16.522  0.00  0.00    +0.000 C 
ATOM      6  C   UNL     1       3.704   6.250  17.300  0.00  0.00    +0.000 C 
ATOM      7  C   UNL     1       4.259   5.165  18.237  0.00  0.00    +0.000 C 
ATOM      8  C   UNL     1       5.636   5.715  18.520  0.00  0.00    +0.000 A 
ATOM      9  C   UNL     1       6.541   5.296  19.480  0.00  0.00    +0.000 A 
ATOM     10  C   UNL     1       7.826   5.843  19.462  0.00  0.00    +0.000 A 
ATOM     11  C   UNL     1       8.184   6.804  18.503  0.00  0.00    +0.000 A 
ATOM     12  C   UNL     1       7.264   7.232  17.543  0.00  0.00    +0.000 A 
ATOM     13  C   UNL     1       5.997   6.671  17.557  0.00  0.00    +0.000 A 
ENDROOT
BRANCH   1  14
ATOM     14  C   UNL     1       3.950   2.716  18.465  0.00  0.00    +0.000 C 
BRANCH  14  16
ATOM     15  C   UNL     1       1.432   2.759  18.413  0.00  0.00    +0.000 C 
ATOM     16  C   UNL     1       2.599   2.171  18.102  0.00  0.00    +0.000 C 
ENDBRANCH  14  16
ENDBRANCH   1  14
TORSDOF 2
ENDMDL
MODEL 3
REMARK VINA RESULT:      -6.5      2.381      4.063
REMARK  Name = 
REMARK  2 active torsions:
REMARK  status: ('A' for Active; 'I' for Inactive)
REMARK    1  A    between atoms: C_2  and  C_3
REMARK    2  A    between atoms: C_3  and  N_4
REMARK                            x       y       z     vdW  Elec       q    Type
REMARK                         _______ _______ _______ _____ _____    ______ ____
ROOT
ATOM      1  N   UNL     1       5.701   5.209  15.971  0.00  0.00    +0.000 NA
ATOM      2  C   UNL     1       7.057   5.114  16.478  0.00  0.00    +0.000 C 
ATOM      3  C   UNL     1       7.307   4.571  17.893  0.00  0.00    +0.000 C 
ATOM      4  C   UNL     1       6.790   5.430  19.054  0.00  0.00    +0.000 C 
ATOM      5  C   UNL     1       5.270   5.602  19.124  0.00  0.00    +0.000 C 
ATOM      6  C   UNL     1       4.742   6.423  17.941  0.00  0.00    +0.000 C 
ATOM      7  C   UNL     1       4.527   5.422  16.793  0.00  0.00    +0.000 C 
ATOM      8  C   UNL     1       4.156   4.181  17.568  0.00  0.00    +0.000 A 
ATOM      9  C   UNL     1       3.630   2.997  17.080  0.00  0.00    +0.000 A 
ATOM     10  C   UNL     1       3.511   1.915  17.956  0.00  0.00    +0.000 A 
ATOM     11  C   UNL     1       3.901   2.033  19.299  0.00  0.00    +0.000 A 
ATOM     12  C   UNL     1       4.421   3.234  19.789  0.00  0.00    +0.000 A 
ATOM     13  C   UNL     1       4.552   4.296  18.910  0.00  0.00    +0.000 A 
ENDROOT
BRANCH   1  14
ATOM     14  C   UNL     1       5.509   5.099  14.539  0.00  0.00    +0.000 C 
BRANCH  14  16
ATOM     15  C   UNL     1       6.085   3.487  12.691  0.00  0.00    +0.000 C 
ATOM     16  C   UNL     1       6.179   3.881  13.972  0.00  0.00    +0.000 C 
ENDBRANCH  14  16
ENDBRANCH   1  14
TORSDOF 2
ENDMDL
MODEL 4
REMARK VINA RESULT:      -6.5      1.791      4.525
REMARK  Name = 
REMARK  2 active torsions:
REMARK  status: ('A' for Active; 'I' for Inactive)
REMARK    1  A    between atoms: C_2  and  C_3
REMARK    2  A    between atoms: C_3  and  N_4
REMARK                            x       y       z     vdW  Elec       q    Type
REMARK                         _______ _______ _______ _____ _____    ______ ____
ROOT
ATOM      1  N   UNL     1       2.463   4.479  19.966  0.00  0.00    +0.000 NA
ATOM      2  C   UNL     1       3.089   3.236  20.378  0.00  0.00    +0.000 C 
ATOM      3  C   UNL     1       4.034   2.500  19.416  0.00  0.00    +0.000 C 
ATOM      4  C   UNL     1       3.396   1.916  18.149  0.00  0.00    +0.000 C 
ATOM      5  C   UNL     1       2.803   2.938  17.175  0.00  0.00    +0.000 C 
ATOM      6  C   UNL     1       1.581   3.645  17.776  0.00  0.00    +0.000 C 
ATOM      7  C   UNL     1       2.134   4.821  18.598  0.00  0.00    +0.000 C 
ATOM      8  C   UNL     1       3.366   5.169  17.798  0.00  0.00    +0.000 A 
ATOM      9  C   UNL     1       4.166   6.292  17.912  0.00  0.00    +0.000 A 
ATOM     10  C   UNL     1       5.354   6.336  17.177  0.00  0.00    +0.000 A 
ATOM     11  C   UNL     1       5.715   5.274  16.333  0.00  0.00    +0.000 A 
ATOM     12  C   UNL     1       4.898   4.147  16.213  0.00  0.00    +0.000 A 
ATOM     13  C   UNL     1       3.731   4.104  16.960  0.00  0.00    +0.000 A 
ENDROOT
BRANCH   1  14
ATOM     14  C   UNL     1       2.131   5.439  20.999  0.00  0.00    +0.000 C 
BRANCH  14  16
ATOM     15  C   UNL     1       1.446   7.863  21.047  0.00  0.00    +0.000 C 
ATOM     16  C   UNL     1       1.467   6.664  20.440  0.00  0.00    +0.000 C 
ENDBRANCH  14  16
ENDBRANCH   1  14
TORSDOF 2
ENDMDL
MODEL 5
REMARK VINA RESULT:      -6.5      1.756      3.769
REMARK  Name = 
REMARK  2 active torsions:
REMARK  status: ('A' for Active; 'I' for Inactive)
REMARK    1  A    between atoms: C_2  and  C_3
REMARK    2  A    between atoms: C_3  and  N_4
REMARK                            x       y       z     vdW  Elec       q    Type
REMARK                         _______ _______ _______ _____ _____    ______ ____
ROOT
ATOM      1  N   UNL     1       3.993   4.015  17.144  0.00  0.00    +0.000 NA
ATOM      2  C   UNL     1       2.725   3.311  17.199  0.00  0.00    +0.000 C 
ATOM      3  C   UNL     1       1.581   3.863  18.062  0.00  0.00    +0.000 C 
ATOM      4  C   UNL     1       1.806   3.854  19.579  0.00  0.00    +0.000 C 
ATOM      5  C   UNL     1       2.945   4.745  20.084  0.00  0.00    +0.000 C 
ATOM      6  C   UNL     1       4.312   4.228  19.619  0.00  0.00    +0.000 C 
ATOM      7  C   UNL     1       4.534   4.822  18.217  0.00  0.00    +0.000 C 
ATOM      8  C   UNL     1       3.803   6.136  18.350  0.00  0.00    +0.000 A 
ATOM      9  C   UNL     1       3.833   7.219  17.488  0.00  0.00    +0.000 A 
ATOM     10  C   UNL     1       2.951   8.277  17.724  0.00  0.00    +0.000 A 
ATOM     11  C   UNL     1       2.069   8.247  18.816  0.00  0.00    +0.000 A 
ATOM     12  C   UNL     1       2.051   7.157  19.689  0.00  0.00    +0.000 A 
ATOM     13  C   UNL     1       2.916   6.104  19.438  0.00  0.00    +0.000 A 
ENDROOT
BRANCH   1  14
ATOM     14  C   UNL     1       4.779   3.889  15.933  0.00  0.00    +0.000 C 
BRANCH  14  16
ATOM     15  C   UNL     1       6.982   4.899  15.244  0.00  0.00    +0.000 C 
ATOM     16  C   UNL     1       6.215   4.269  16.150  0.00  0.00    +0.000 C 
ENDBRANCH  14  16
ENDBRANCH   1  14
TORSDOF 2
ENDMDL
MODEL 6
REMARK VINA RESULT:      -6.5      1.605      3.080
REMARK  Name = 
REMARK  2 active torsions:
REMARK  status: ('A' for Active; 'I' for Inactive)
REMARK    1  A    between atoms: C_2  and  C_3
REMARK    2  A    between atoms: C_3  and  N_4
REMARK                            x       y       z     vdW  Elec       q    Type
REMARK                         _______ _______ _______ _____ _____    ______ ____
ROOT
ATOM      1  N   UNL     1       4.048   3.392  17.543  0.00  0.00    +0.000 NA
ATOM      2  C   UNL     1       2.879   2.578  17.266  0.00  0.00    +0.000 C 
ATOM      3  C   UNL     1       1.666   2.638  18.206  0.00  0.00    +0.000 C 
ATOM      4  C   UNL     1       1.876   2.093  19.625  0.00  0.00    +0.000 C 
ATOM      5  C   UNL     1       2.888   2.856  20.483  0.00  0.00    +0.000 C 
ATOM      6  C   UNL     1       4.314   2.708  19.937  0.00  0.00    +0.000 C 
ATOM      7  C   UNL     1       4.473   3.800  18.865  0.00  0.00    +0.000 C 
ATOM      8  C   UNL     1       3.581   4.879  19.430  0.00  0.00    +0.000 A 
ATOM      9  C   UNL     1       3.482   6.200  19.027  0.00  0.00    +0.000 A 
ATOM     10  C   UNL     1       2.472   6.988  19.585  0.00  0.00    +0.000 A 
ATOM     11  C   UNL     1       1.591   6.455  20.539  0.00  0.00    +0.000 A 
ATOM     12  C   UNL     1       1.702   5.125  20.950  0.00  0.00    +0.000 A 
ATOM     13  C   UNL     1       2.695   4.346  20.379  0.00  0.00    +0.000 A 
ENDROOT
BRANCH   1  14
ATOM     14  C   UNL     1       4.855   3.813  16.416  0.00  0.00    +0.000 C 
BRANCH  14  16
ATOM     15  C   UNL     1       6.445   5.765  16.514  0.00  0.00    +0.000 C 
ATOM     16  C   UNL     1       6.113   4.507  16.850  0.00  0.00    +0.000 C 
ENDBRANCH  14  16
ENDBRANCH   1  14
TORSDOF 2
ENDMDL
MODEL 7
REMARK VINA RESULT:      -6.4      2.634      4.443
REMARK  Name = 
REMARK  2 active torsions:
REMARK  status: ('A' for Active; 'I' for Inactive)
REMARK    1  A    between atoms: C_2  and  C_3
REMARK    2  A    between atoms: C_3  and  N_4
REMARK                            x       y       z     vdW  Elec       q    Type
REMARK                         _______ _______ _______ _____ _____    ______ ____
ROOT
ATOM      1  N   UNL     1       6.275   4.472  15.448  0.00  0.00    +0.000 NA
ATOM      2  C   UNL     1       7.492   4.591  16.229  0.00  0.00    +0.000 C 
ATOM      3  C   UNL     1       7.414   4.984  17.711  0.00  0.00    +0.000 C 
ATOM      4  C   UNL     1       6.919   6.405  18.015  0.00  0.00    +0.000 C 
ATOM      5  C   UNL     1       5.474   6.703  17.606  0.00  0.00    +0.000 C 
ATOM      6  C   UNL     1       5.307   6.693  16.081  0.00  0.00    +0.000 C 
ATOM      7  C   UNL     1       5.063   5.225  15.692  0.00  0.00    +0.000 C 
ATOM      8  C   UNL     1       4.333   4.728  16.916  0.00  0.00    +0.000 A 
ATOM      9  C   UNL     1       3.652   3.533  17.076  0.00  0.00    +0.000 A 
ATOM     10  C   UNL     1       3.184   3.203  18.350  0.00  0.00    +0.000 A 
ATOM     11  C   UNL     1       3.387   4.070  19.436  0.00  0.00    +0.000 A 
ATOM     12  C   UNL     1       4.066   5.279  19.267  0.00  0.00    +0.000 A 
ATOM     13  C   UNL     1       4.542   5.590  18.004  0.00  0.00    +0.000 A 
ENDROOT
BRANCH   1  14
ATOM     14  C   UNL     1       6.278   3.542  14.336  0.00  0.00    +0.000 C 
BRANCH  14  16
ATOM     15  C   UNL     1       5.192   3.317  12.074  0.00  0.00    +0.000 C 
ATOM     16  C   UNL     1       5.369   3.985  13.227  0.00  0.00    +0.000 C 
ENDBRANCH  14  16
ENDBRANCH   1  14
TORSDOF 2
ENDMDL
MODEL 8
REMARK VINA RESULT:      -6.4      1.311      4.513
REMARK  Name = 
REMARK  2 active torsions:
REMARK  status: ('A' for Active; 'I' for Inactive)
REMARK    1  A    between atoms: C_2  and  C_3
REMARK    2  A    between atoms: C_3  and  N_4
REMARK                            x       y       z     vdW  Elec       q    Type
REMARK                         _______ _______ _______ _____ _____    ______ ____
ROOT
ATOM      1  N   UNL     1       3.473   2.994  18.768  0.00  0.00    +0.000 NA
ATOM      2  C   UNL     1       4.690   3.122  19.549  0.00  0.00    +0.000 C 
ATOM      3  C   UNL     1       5.555   4.383  19.414  0.00  0.00    +0.000 C 
ATOM      4  C   UNL     1       6.242   4.597  18.059  0.00  0.00    +0.000 C 
ATOM      5  C   UNL     1       5.305   4.816  16.869  0.00  0.00    +0.000 C 
ATOM      6  C   UNL     1       4.495   3.552  16.550  0.00  0.00    +0.000 C 
ATOM      7  C   UNL     1       3.262   3.597  17.468  0.00  0.00    +0.000 C 
ATOM      8  C   UNL     1       3.044   5.087  17.574  0.00  0.00    +0.000 A 
ATOM      9  C   UNL     1       1.946   5.753  18.089  0.00  0.00    +0.000 A 
ATOM     10  C   UNL     1       2.022   7.140  18.237  0.00  0.00    +0.000 A 
ATOM     11  C   UNL     1       3.178   7.840  17.856  0.00  0.00    +0.000 A 
ATOM     12  C   UNL     1       4.280   7.164  17.326  0.00  0.00    +0.000 A 
ATOM     13  C   UNL     1       4.202   5.787  17.201  0.00  0.00    +0.000 A 
ENDROOT
BRANCH   1  14
ATOM     14  C   UNL     1       2.400   2.193  19.321  0.00  0.00    +0.000 C 
BRANCH  14  16
ATOM     15  C   UNL     1       1.667   2.828  21.646  0.00  0.00    +0.000 C 
ATOM     16  C   UNL     1       1.575   2.961  20.312  0.00  0.00    +0.000 C 
ENDBRANCH  14  16
ENDBRANCH   1  14
TORSDOF 2
ENDMDL
MODEL 9
REMARK VINA RESULT:      -6.3      1.969      3.938
REMARK  Name = 
REMARK  2 active torsions:
REMARK  status: ('A' for Active; 'I' for Inactive)
REMARK    1  A    between atoms: C_2  and  C_3
REMARK    2  A    between atoms: C_3  and  N_4
REMARK                            x       y       z     vdW  Elec       q    Type
REMARK                         _______ _______ _______ _____ _____    ______ ____
ROOT
ATOM      1  N   UNL     1       3.936   6.849  17.602  0.00  0.00    +0.000 NA
ATOM      2  C   UNL     1       4.777   6.595  16.447  0.00  0.00    +0.000 C 
ATOM      3  C   UNL     1       5.178   5.155  16.095  0.00  0.00    +0.000 C 
ATOM      4  C   UNL     1       6.100   4.441  17.092  0.00  0.00    +0.000 C 
ATOM      5  C   UNL     1       5.508   4.197  18.482  0.00  0.00    +0.000 C 
ATOM      6  C   UNL     1       5.282   5.513  19.238  0.00  0.00    +0.000 C 
ATOM      7  C   UNL     1       3.902   6.025  18.793  0.00  0.00    +0.000 C 
ATOM      8  C   UNL     1       3.184   4.720  18.548  0.00  0.00    +0.000 A 
ATOM      9  C   UNL     1       1.830   4.518  18.341  0.00  0.00    +0.000 A 
ATOM     10  C   UNL     1       1.400   3.241  17.973  0.00  0.00    +0.000 A 
ATOM     11  C   UNL     1       2.317   2.187  17.835  0.00  0.00    +0.000 A 
ATOM     12  C   UNL     1       3.681   2.393  18.056  0.00  0.00    +0.000 A 
ATOM     13  C   UNL     1       4.101   3.667  18.402  0.00  0.00    +0.000 A 
ENDROOT
BRANCH   1  14
ATOM     14  C   UNL     1       3.080   8.017  17.567  0.00  0.00    +0.000 C 
BRANCH  14  16
ATOM     15  C   UNL     1       1.372   9.134  19.044  0.00  0.00    +0.000 C 
ATOM     16  C   UNL     1       2.195   8.106  18.776  0.00  0.00    +0.000 C 
ENDBRANCH  14  16
ENDBRANCH   1  14
TORSDOF 2
ENDMDL
