MODEL 1
REMARK VINA RESULT:      -7.4      0.000      0.000
REMARK  Name = 
REMARK  7 active torsions:
REMARK  status: ('A' for Active; 'I' for Inactive)
REMARK    1  A    between atoms: C_1  and  O_2
REMARK    2  A    between atoms: O_2  and  C_3
REMARK    3  A    between atoms: C_5  and  O_6
REMARK    4  A    between atoms: C_13  and  C_14
REMARK    5  A    between atoms: C_14  and  C_15
REMARK    6  A    between atoms: C_17  and  O_18
REMARK    7  A    between atoms: C_20  and  O_21
REMARK                            x       y       z     vdW  Elec       q    Type
REMARK                         _______ _______ _______ _____ _____    ______ ____
ROOT
ATOM      1  C   UNL     1       0.466   9.283  20.574  0.00  0.00    +0.000 A 
ATOM      2  C   UNL     1       0.934   9.976  19.460  0.00  0.00    +0.000 A 
ATOM      3  C   UNL     1       1.793   9.338  18.558  0.00  0.00    +0.000 A 
ATOM      4  C   UNL     1       2.213   8.008  18.757  0.00  0.00    +0.000 A 
ATOM      5  C   UNL     1       1.770   7.347  19.895  0.00  0.00    +0.000 A 
ATOM      6  C   UNL     1       0.895   7.975  20.793  0.00  0.00    +0.000 A 
ATOM      7  C   UNL     1       2.273   6.005  20.224  0.00  0.00    +0.000 C 
ATOM      8  O   UNL     1       2.188   5.616  21.380  0.00  0.00    +0.000 OA
ATOM      9  C   UNL     1       2.932   5.172  19.197  0.00  0.00    +0.000 A 
ATOM     10  C   UNL     1       3.189   3.794  19.400  0.00  0.00    +0.000 A 
ATOM     11  C   UNL     1       3.981   3.126  18.444  0.00  0.00    +0.000 A 
ATOM     12  C   UNL     1       4.484   3.775  17.325  0.00  0.00    +0.000 A 
ATOM     13  C   UNL     1       4.199   5.121  17.126  0.00  0.00    +0.000 A 
ATOM     14  C   UNL     1       3.416   5.839  18.049  0.00  0.00    +0.000 A 
ATOM     15  C   UNL     1       3.140   7.297  17.840  0.00  0.00    +0.000 C 
ATOM     16  O   UNL     1       3.670   7.910  16.923  0.00  0.00    +0.000 OA
ENDROOT
BRANCH  10  17
ATOM     17  C   UNL     1       2.751   2.950  20.563  0.00  0.00    +0.000 C 
ATOM     18  C   UNL     1       1.325   2.522  20.777  0.00  0.00    +0.000 C 
ATOM     19  O   UNL     1       3.639   2.492  21.293  0.00  0.00    +0.000 OA
ENDBRANCH  10  17
BRANCH   1  21
ATOM     20  C   UNL     1       0.017   9.591  22.887  0.00  0.00    +0.000 C 
ATOM     21  O   UNL     1      -0.372   9.780  21.531  0.00  0.00    +0.000 OA
ENDBRANCH   1  21
BRANCH   3  22
ATOM     22  O   UNL     1       2.221  10.055  17.471  0.00  0.00    +0.000 OA
ATOM     23  H   UNL     1       2.549  10.928  17.736  0.00  0.00    +0.000 HD
ENDBRANCH   3  22
BRANCH  11  24
ATOM     24  O   UNL     1       4.329   1.800  18.534  0.00  0.00    +0.000 OA
ATOM     25  H   UNL     1       5.140   1.655  17.992  0.00  0.00    +0.000 HD
ENDBRANCH  11  24
BRANCH  13  26
ATOM     26  O   UNL     1       4.720   5.717  16.013  0.00  0.00    +0.000 OA
ATOM     27  H   UNL     1       5.594   5.354  15.796  0.00  0.00    +0.000 HD
ENDBRANCH  13  26
TORSDOF 5
ENDMDL
MODEL 2
REMARK VINA RESULT:      -6.5      1.527      4.018
REMARK  Name = 
REMARK  7 active torsions:
REMARK  status: ('A' for Active; 'I' for Inactive)
REMARK    1  A    between atoms: C_1  and  O_2
REMARK    2  A    between atoms: O_2  and  C_3
REMARK    3  A    between atoms: C_5  and  O_6
REMARK    4  A    between atoms: C_13  and  C_14
REMARK    5  A    between atoms: C_14  and  C_15
REMARK    6  A    between atoms: C_17  and  O_18
REMARK    7  A    between atoms: C_20  and  O_21
REMARK                            x       y       z     vdW  Elec       q    Type
REMARK                         _______ _______ _______ _____ _____    ______ ____
ROOT
ATOM      1  C   UNL     1       1.117  10.727  18.925  0.00  0.00    +0.000 A 
ATOM      2  C   UNL     1       0.431  10.200  20.017  0.00  0.00    +0.000 A 
ATOM      3  C   UNL     1       0.690   8.888  20.431  0.00  0.00    +0.000 A 
ATOM      4  C   UNL     1       1.622   8.075  19.756  0.00  0.00    +0.000 A 
ATOM      5  C   UNL     1       2.266   8.603  18.644  0.00  0.00    +0.000 A 
ATOM      6  C   UNL     1       2.024   9.923  18.237  0.00  0.00    +0.000 A 
ATOM      7  C   UNL     1       3.152   7.765  17.824  0.00  0.00    +0.000 C 
ATOM      8  O   UNL     1       3.386   8.110  16.675  0.00  0.00    +0.000 OA
ATOM      9  C   UNL     1       3.692   6.494  18.352  0.00  0.00    +0.000 A 
ATOM     10  C   UNL     1       4.743   5.799  17.705  0.00  0.00    +0.000 A 
ATOM     11  C   UNL     1       5.067   4.510  18.178  0.00  0.00    +0.000 A 
ATOM     12  C   UNL     1       4.402   3.935  19.252  0.00  0.00    +0.000 A 
ATOM     13  C   UNL     1       3.393   4.641  19.893  0.00  0.00    +0.000 A 
ATOM     14  C   UNL     1       3.025   5.931  19.463  0.00  0.00    +0.000 A 
ATOM     15  C   UNL     1       1.915   6.671  20.143  0.00  0.00    +0.000 C 
ATOM     16  O   UNL     1       1.244   6.134  21.014  0.00  0.00    +0.000 OA
ENDROOT
BRANCH  10  17
ATOM     17  C   UNL     1       5.540   6.258  16.518  0.00  0.00    +0.000 C 
ATOM     18  C   UNL     1       5.264   5.796  15.113  0.00  0.00    +0.000 C 
ATOM     19  O   UNL     1       6.370   7.155  16.710  0.00  0.00    +0.000 OA
ENDBRANCH  10  17
BRANCH   1  21
ATOM     20  C   UNL     1       2.135  12.786  18.316  0.00  0.00    +0.000 C 
ATOM     21  O   UNL     1       0.963  11.985  18.416  0.00  0.00    +0.000 OA
ENDBRANCH   1  21
BRANCH   3  22
ATOM     22  O   UNL     1      -0.001   8.414  21.514  0.00  0.00    +0.000 OA
ATOM     23  H   UNL     1      -0.367   7.533  21.338  0.00  0.00    +0.000 HD
ENDBRANCH   3  22
BRANCH  11  24
ATOM     24  O   UNL     1       6.043   3.719  17.624  0.00  0.00    +0.000 OA
ATOM     25  H   UNL     1       6.838   3.754  18.206  0.00  0.00    +0.000 HD
ENDBRANCH  11  24
BRANCH  13  26
ATOM     26  O   UNL     1       2.766   4.031  20.942  0.00  0.00    +0.000 OA
ATOM     27  H   UNL     1       1.980   3.543  20.647  0.00  0.00    +0.000 HD
ENDBRANCH  13  26
TORSDOF 5
ENDMDL
MODEL 3
REMARK VINA RESULT:      -6.4      1.021      1.131
REMARK  Name = 
REMARK  7 active torsions:
REMARK  status: ('A' for Active; 'I' for Inactive)
REMARK    1  A    between atoms: C_1  and  O_2
REMARK    2  A    between atoms: O_2  and  C_3
REMARK    3  A    between atoms: C_5  and  O_6
REMARK    4  A    between atoms: C_13  and  C_14
REMARK    5  A    between atoms: C_14  and  C_15
REMARK    6  A    between atoms: C_17  and  O_18
REMARK    7  A    between atoms: C_20  and  O_21
REMARK                            x       y       z     vdW  Elec       q    Type
REMARK                         _______ _______ _______ _____ _____    ______ ____
ROOT
ATOM      1  C   UNL     1       0.198   8.616  21.386  0.00  0.00    +0.000 A 
ATOM      2  C   UNL     1       0.553   9.622  20.490  0.00  0.00    +0.000 A 
ATOM      3  C   UNL     1       1.432   9.336  19.439  0.00  0.00    +0.000 A 
ATOM      4  C   UNL     1       1.985   8.051  19.273  0.00  0.00    +0.000 A 
ATOM      5  C   UNL     1       1.653   7.071  20.200  0.00  0.00    +0.000 A 
ATOM      6  C   UNL     1       0.758   7.348  21.243  0.00  0.00    +0.000 A 
ATOM      7  C   UNL     1       2.293   5.749  20.154  0.00  0.00    +0.000 C 
ATOM      8  O   UNL     1       2.292   5.063  21.166  0.00  0.00    +0.000 OA
ATOM      9  C   UNL     1       2.987   5.287  18.934  0.00  0.00    +0.000 A 
ATOM     10  C   UNL     1       3.383   3.938  18.760  0.00  0.00    +0.000 A 
ATOM     11  C   UNL     1       4.197   3.630  17.650  0.00  0.00    +0.000 A 
ATOM     12  C   UNL     1       4.590   4.599  16.738  0.00  0.00    +0.000 A 
ATOM     13  C   UNL     1       4.171   5.913  16.907  0.00  0.00    +0.000 A 
ATOM     14  C   UNL     1       3.359   6.278  17.998  0.00  0.00    +0.000 A 
ATOM     15  C   UNL     1       2.938   7.704  18.187  0.00  0.00    +0.000 C 
ATOM     16  O   UNL     1       3.370   8.587  17.460  0.00  0.00    +0.000 OA
ENDROOT
BRANCH  10  17
ATOM     17  C   UNL     1       3.074   2.779  19.663  0.00  0.00    +0.000 C 
ATOM     18  C   UNL     1       4.032   2.269  20.705  0.00  0.00    +0.000 C 
ATOM     19  O   UNL     1       1.926   2.319  19.617  0.00  0.00    +0.000 OA
ENDBRANCH  10  17
BRANCH   1  21
ATOM     20  C   UNL     1      -0.510   9.942  23.226  0.00  0.00    +0.000 C 
ATOM     21  O   UNL     1      -0.644   8.756  22.452  0.00  0.00    +0.000 OA
ENDBRANCH   1  21
BRANCH   3  22
ATOM     22  O   UNL     1       1.746  10.353  18.577  0.00  0.00    +0.000 OA
ATOM     23  H   UNL     1       2.032  11.144  19.059  0.00  0.00    +0.000 HD
ENDBRANCH   3  22
BRANCH  11  24
ATOM     24  O   UNL     1       4.673   2.370  17.381  0.00  0.00    +0.000 OA
ATOM     25  H   UNL     1       3.905   1.756  17.319  0.00  0.00    +0.000 HD
ENDBRANCH  11  24
BRANCH  13  26
ATOM     26  O   UNL     1       4.587   6.830  15.986  0.00  0.00    +0.000 OA
ATOM     27  H   UNL     1       5.506   7.101  16.149  0.00  0.00    +0.000 HD
ENDBRANCH  13  26
TORSDOF 5
ENDMDL
MODEL 4
REMARK VINA RESULT:      -6.3      6.949      9.949
REMARK  Name = 
REMARK  7 active torsions:
REMARK  status: ('A' for Active; 'I' for Inactive)
REMARK    1  A    between atoms: C_1  and  O_2
REMARK    2  A    between atoms: O_2  and  C_3
REMARK    3  A    between atoms: C_5  and  O_6
REMARK    4  A    between atoms: C_13  and  C_14
REMARK    5  A    between atoms: C_14  and  C_15
REMARK    6  A    between atoms: C_17  and  O_18
REMARK    7  A    between atoms: C_20  and  O_21
REMARK                            x       y       z     vdW  Elec       q    Type
REMARK                         _______ _______ _______ _____ _____    ______ ____
ROOT
ATOM      1  C   UNL     1      -4.491  13.208  24.034  0.00  0.00    +0.000 A 
ATOM      2  C   UNL     1      -5.865  13.074  23.848  0.00  0.00    +0.000 A 
ATOM      3  C   UNL     1      -6.365  12.763  22.578  0.00  0.00    +0.000 A 
ATOM      4  C   UNL     1      -5.510  12.596  21.471  0.00  0.00    +0.000 A 
ATOM      5  C   UNL     1      -4.146  12.774  21.666  0.00  0.00    +0.000 A 
ATOM      6  C   UNL     1      -3.638  13.068  22.940  0.00  0.00    +0.000 A 
ATOM      7  C   UNL     1      -3.216  12.739  20.529  0.00  0.00    +0.000 C 
ATOM      8  O   UNL     1      -2.122  13.271  20.650  0.00  0.00    +0.000 OA
ATOM      9  C   UNL     1      -3.620  12.137  19.241  0.00  0.00    +0.000 A 
ATOM     10  C   UNL     1      -2.682  11.850  18.219  0.00  0.00    +0.000 A 
ATOM     11  C   UNL     1      -3.181  11.449  16.963  0.00  0.00    +0.000 A 
ATOM     12  C   UNL     1      -4.542  11.315  16.723  0.00  0.00    +0.000 A 
ATOM     13  C   UNL     1      -5.448  11.574  17.743  0.00  0.00    +0.000 A 
ATOM     14  C   UNL     1      -5.006  11.981  19.017  0.00  0.00    +0.000 A 
ATOM     15  C   UNL     1      -5.994  12.287  20.102  0.00  0.00    +0.000 C 
ATOM     16  O   UNL     1      -7.196  12.286  19.874  0.00  0.00    +0.000 OA
ENDROOT
BRANCH  10  17
ATOM     17  C   UNL     1      -1.188  11.971  18.300  0.00  0.00    +0.000 C 
ATOM     18  C   UNL     1      -0.300  10.869  18.813  0.00  0.00    +0.000 C 
ATOM     19  O   UNL     1      -0.675  12.979  17.797  0.00  0.00    +0.000 OA
ENDBRANCH  10  17
BRANCH   1  21
ATOM     20  C   UNL     1      -3.034  14.661  25.223  0.00  0.00    +0.000 C 
ATOM     21  O   UNL     1      -3.869  13.509  25.212  0.00  0.00    +0.000 OA
ENDBRANCH   1  21
BRANCH   3  22
ATOM     22  O   UNL     1      -7.722  12.632  22.443  0.00  0.00    +0.000 OA
ATOM     23  H   UNL     1      -8.162  12.643  23.307  0.00  0.00    +0.000 HD
ENDBRANCH   3  22
BRANCH  11  24
ATOM     24  O   UNL     1      -2.383  11.168  15.881  0.00  0.00    +0.000 OA
ATOM     25  H   UNL     1      -1.443  11.292  16.149  0.00  0.00    +0.000 HD
ENDBRANCH  11  24
BRANCH  13  26
ATOM     26  O   UNL     1      -6.776  11.434  17.457  0.00  0.00    +0.000 OA
ATOM     27  H   UNL     1      -7.227  12.294  17.449  0.00  0.00    +0.000 HD
ENDBRANCH  13  26
TORSDOF 5
ENDMDL
MODEL 5
REMARK VINA RESULT:      -6.3      7.420     10.599
REMARK  Name = 
REMARK  7 active torsions:
REMARK  status: ('A' for Active; 'I' for Inactive)
REMARK    1  A    between atoms: C_1  and  O_2
REMARK    2  A    between atoms: O_2  and  C_3
REMARK    3  A    between atoms: C_5  and  O_6
REMARK    4  A    between atoms: C_13  and  C_14
REMARK    5  A    between atoms: C_14  and  C_15
REMARK    6  A    between atoms: C_17  and  O_18
REMARK    7  A    between atoms: C_20  and  O_21
REMARK                            x       y       z     vdW  Elec       q    Type
REMARK                         _______ _______ _______ _____ _____    ______ ____
ROOT
ATOM      1  C   UNL     1      -3.556  11.093  16.566  0.00  0.00    +0.000 A 
ATOM      2  C   UNL     1      -2.189  11.122  16.835  0.00  0.00    +0.000 A 
ATOM      3  C   UNL     1      -1.738  11.535  18.094  0.00  0.00    +0.000 A 
ATOM      4  C   UNL     1      -2.637  11.940  19.100  0.00  0.00    +0.000 A 
ATOM      5  C   UNL     1      -3.994  11.944  18.801  0.00  0.00    +0.000 A 
ATOM      6  C   UNL     1      -4.452  11.514  17.547  0.00  0.00    +0.000 A 
ATOM      7  C   UNL     1      -4.971  12.475  19.763  0.00  0.00    +0.000 C 
ATOM      8  O   UNL     1      -6.066  12.828  19.351  0.00  0.00    +0.000 OA
ATOM      9  C   UNL     1      -4.613  12.646  21.187  0.00  0.00    +0.000 A 
ATOM     10  C   UNL     1      -5.589  12.901  22.180  0.00  0.00    +0.000 A 
ATOM     11  C   UNL     1      -5.138  13.230  23.476  0.00  0.00    +0.000 A 
ATOM     12  C   UNL     1      -3.787  13.288  23.789  0.00  0.00    +0.000 A 
ATOM     13  C   UNL     1      -2.842  13.008  22.810  0.00  0.00    +0.000 A 
ATOM     14  C   UNL     1      -3.235  12.676  21.499  0.00  0.00    +0.000 A 
ATOM     15  C   UNL     1      -2.207  12.406  20.443  0.00  0.00    +0.000 C 
ATOM     16  O   UNL     1      -1.016  12.565  20.672  0.00  0.00    +0.000 OA
ENDROOT
BRANCH  10  17
ATOM     17  C   UNL     1      -7.081  12.911  22.006  0.00  0.00    +0.000 C 
ATOM     18  C   UNL     1      -7.917  11.660  21.998  0.00  0.00    +0.000 C 
ATOM     19  O   UNL     1      -7.640  14.015  22.000  0.00  0.00    +0.000 OA
ENDBRANCH  10  17
BRANCH   1  21
ATOM     20  C   UNL     1      -3.276  10.119  14.417  0.00  0.00    +0.000 C 
ATOM     21  O   UNL     1      -4.131  10.715  15.387  0.00  0.00    +0.000 OA
ENDBRANCH   1  21
BRANCH   3  22
ATOM     22  O   UNL     1      -0.386  11.539  18.317  0.00  0.00    +0.000 OA
ATOM     23  H   UNL     1       0.080  11.016  17.646  0.00  0.00    +0.000 HD
ENDBRANCH   3  22
BRANCH  11  24
ATOM     24  O   UNL     1      -5.977  13.527  24.522  0.00  0.00    +0.000 OA
ATOM     25  H   UNL     1      -6.483  14.341  24.292  0.00  0.00    +0.000 HD
ENDBRANCH  11  24
BRANCH  13  26
ATOM     26  O   UNL     1      -1.526  13.082  23.165  0.00  0.00    +0.000 OA
ATOM     27  H   UNL     1      -0.955  12.693  22.483  0.00  0.00    +0.000 HD
ENDBRANCH  13  26
TORSDOF 5
ENDMDL
MODEL 6
REMARK VINA RESULT:      -6.3      6.941      9.456
REMARK  Name = 
REMARK  7 active torsions:
REMARK  status: ('A' for Active; 'I' for Inactive)
REMARK    1  A    between atoms: C_1  and  O_2
REMARK    2  A    between atoms: O_2  and  C_3
REMARK    3  A    between atoms: C_5  and  O_6
REMARK    4  A    between atoms: C_13  and  C_14
REMARK    5  A    between atoms: C_14  and  C_15
REMARK    6  A    between atoms: C_17  and  O_18
REMARK    7  A    between atoms: C_20  and  O_21
REMARK                            x       y       z     vdW  Elec       q    Type
REMARK                         _______ _______ _______ _____ _____    ______ ____
ROOT
ATOM      1  C   UNL     1      -3.116  10.690  15.613  0.00  0.00    +0.000 A 
ATOM      2  C   UNL     1      -4.452  11.031  15.809  0.00  0.00    +0.000 A 
ATOM      3  C   UNL     1      -4.863  11.547  17.043  0.00  0.00    +0.000 A 
ATOM      4  C   UNL     1      -3.955  11.717  18.107  0.00  0.00    +0.000 A 
ATOM      5  C   UNL     1      -2.635  11.333  17.908  0.00  0.00    +0.000 A 
ATOM      6  C   UNL     1      -2.215  10.832  16.667  0.00  0.00    +0.000 A 
ATOM      7  C   UNL     1      -1.670  11.367  19.017  0.00  0.00    +0.000 C 
ATOM      8  O   UNL     1      -0.662  10.680  18.936  0.00  0.00    +0.000 OA
ATOM      9  C   UNL     1      -1.945  12.158  20.234  0.00  0.00    +0.000 A 
ATOM     10  C   UNL     1      -0.943  12.425  21.198  0.00  0.00    +0.000 A 
ATOM     11  C   UNL     1      -1.340  13.029  22.409  0.00  0.00    +0.000 A 
ATOM     12  C   UNL     1      -2.661  13.374  22.658  0.00  0.00    +0.000 A 
ATOM     13  C   UNL     1      -3.628  13.129  21.691  0.00  0.00    +0.000 A 
ATOM     14  C   UNL     1      -3.290  12.527  20.464  0.00  0.00    +0.000 A 
ATOM     15  C   UNL     1      -4.346  12.240  19.441  0.00  0.00    +0.000 C 
ATOM     16  O   UNL     1      -5.529  12.431  19.690  0.00  0.00    +0.000 OA
ENDROOT
BRANCH  10  17
ATOM     17  C   UNL     1       0.519  12.093  21.103  0.00  0.00    +0.000 C 
ATOM     18  C   UNL     1       1.514  12.958  20.379  0.00  0.00    +0.000 C 
ATOM     19  O   UNL     1       0.922  11.129  21.766  0.00  0.00    +0.000 OA
ENDBRANCH  10  17
BRANCH   1  21
ATOM     20  C   UNL     1      -3.489   9.884  13.409  0.00  0.00    +0.000 C 
ATOM     21  O   UNL     1      -2.582  10.177  14.466  0.00  0.00    +0.000 OA
ENDBRANCH   1  21
BRANCH   3  22
ATOM     22  O   UNL     1      -6.184  11.877  17.188  0.00  0.00    +0.000 OA
ATOM     23  H   UNL     1      -6.512  11.632  18.067  0.00  0.00    +0.000 HD
ENDBRANCH   3  22
BRANCH  11  24
ATOM     24  O   UNL     1      -0.475  13.317  23.436  0.00  0.00    +0.000 OA
ATOM     25  H   UNL     1       0.439  13.362  23.069  0.00  0.00    +0.000 HD
ENDBRANCH  11  24
BRANCH  13  26
ATOM     26  O   UNL     1      -4.915  13.482  21.984  0.00  0.00    +0.000 OA
ATOM     27  H   UNL     1      -5.429  12.716  22.289  0.00  0.00    +0.000 HD
ENDBRANCH  13  26
TORSDOF 5
ENDMDL
MODEL 7
REMARK VINA RESULT:      -6.2      5.937      8.785
REMARK  Name = 
REMARK  7 active torsions:
REMARK  status: ('A' for Active; 'I' for Inactive)
REMARK    1  A    between atoms: C_1  and  O_2
REMARK    2  A    between atoms: O_2  and  C_3
REMARK    3  A    between atoms: C_5  and  O_6
REMARK    4  A    between atoms: C_13  and  C_14
REMARK    5  A    between atoms: C_14  and  C_15
REMARK    6  A    between atoms: C_17  and  O_18
REMARK    7  A    between atoms: C_20  and  O_21
REMARK                            x       y       z     vdW  Elec       q    Type
REMARK                         _______ _______ _______ _____ _____    ______ ____
ROOT
ATOM      1  C   UNL     1      -7.031  13.365  20.511  0.00  0.00    +0.000 A 
ATOM      2  C   UNL     1      -7.389  13.024  19.209  0.00  0.00    +0.000 A 
ATOM      3  C   UNL     1      -6.436  12.462  18.352  0.00  0.00    +0.000 A 
ATOM      4  C   UNL     1      -5.108  12.246  18.771  0.00  0.00    +0.000 A 
ATOM      5  C   UNL     1      -4.757  12.631  20.058  0.00  0.00    +0.000 A 
ATOM      6  C   UNL     1      -5.714  13.178  20.927  0.00  0.00    +0.000 A 
ATOM      7  C   UNL     1      -3.361  12.550  20.511  0.00  0.00    +0.000 C 
ATOM      8  O   UNL     1      -3.013  13.234  21.461  0.00  0.00    +0.000 OA
ATOM      9  C   UNL     1      -2.380  11.714  19.788  0.00  0.00    +0.000 A 
ATOM     10  C   UNL     1      -1.111  11.404  20.334  0.00  0.00    +0.000 A 
ATOM     11  C   UNL     1      -0.177  10.756  19.499  0.00  0.00    +0.000 A 
ATOM     12  C   UNL     1      -0.481  10.408  18.190  0.00  0.00    +0.000 A 
ATOM     13  C   UNL     1      -1.740  10.694  17.678  0.00  0.00    +0.000 A 
ATOM     14  C   UNL     1      -2.711  11.343  18.465  0.00  0.00    +0.000 A 
ATOM     15  C   UNL     1      -4.056  11.673  17.892  0.00  0.00    +0.000 C 
ATOM     16  O   UNL     1      -4.299  11.479  16.709  0.00  0.00    +0.000 OA
ENDROOT
BRANCH  10  17
ATOM     17  C   UNL     1      -0.611  11.733  21.711  0.00  0.00    +0.000 C 
ATOM     18  C   UNL     1      -0.984  10.938  22.933  0.00  0.00    +0.000 C 
ATOM     19  O   UNL     1       0.246  12.621  21.802  0.00  0.00    +0.000 OA
ENDBRANCH  10  17
BRANCH   1  21
ATOM     20  C   UNL     1      -7.917  13.273  22.714  0.00  0.00    +0.000 C 
ATOM     21  O   UNL     1      -7.855  13.919  21.448  0.00  0.00    +0.000 OA
ENDBRANCH   1  21
BRANCH   3  22
ATOM     22  O   UNL     1      -6.835  12.132  17.084  0.00  0.00    +0.000 OA
ATOM     23  H   UNL     1      -6.165  11.592  16.636  0.00  0.00    +0.000 HD
ENDBRANCH   3  22
BRANCH  11  24
ATOM     24  O   UNL     1       1.096  10.424  19.894  0.00  0.00    +0.000 OA
ATOM     25  H   UNL     1       1.060  10.116  20.830  0.00  0.00    +0.000 HD
ENDBRANCH  11  24
BRANCH  13  26
ATOM     26  O   UNL     1      -1.989  10.337  16.384  0.00  0.00    +0.000 OA
ATOM     27  H   UNL     1      -1.167  10.125  15.913  0.00  0.00    +0.000 HD
ENDBRANCH  13  26
TORSDOF 5
ENDMDL
MODEL 8
REMARK VINA RESULT:      -6.1      1.431      6.097
REMARK  Name = 
REMARK  7 active torsions:
REMARK  status: ('A' for Active; 'I' for Inactive)
REMARK    1  A    between atoms: C_1  and  O_2
REMARK    2  A    between atoms: O_2  and  C_3
REMARK    3  A    between atoms: C_5  and  O_6
REMARK    4  A    between atoms: C_13  and  C_14
REMARK    5  A    between atoms: C_14  and  C_15
REMARK    6  A    between atoms: C_17  and  O_18
REMARK    7  A    between atoms: C_20  and  O_21
REMARK                            x       y       z     vdW  Elec       q    Type
REMARK                         _______ _______ _______ _____ _____    ______ ____
ROOT
ATOM      1  C   UNL     1       2.697   4.406  20.148  0.00  0.00    +0.000 A 
ATOM      2  C   UNL     1       3.221   4.609  18.873  0.00  0.00    +0.000 A 
ATOM      3  C   UNL     1       3.126   5.871  18.277  0.00  0.00    +0.000 A 
ATOM      4  C   UNL     1       2.496   6.948  18.931  0.00  0.00    +0.000 A 
ATOM      5  C   UNL     1       1.942   6.717  20.184  0.00  0.00    +0.000 A 
ATOM      6  C   UNL     1       2.051   5.459  20.794  0.00  0.00    +0.000 A 
ATOM      7  C   UNL     1       1.162   7.763  20.863  0.00  0.00    +0.000 C 
ATOM      8  O   UNL     1       0.380   7.432  21.741  0.00  0.00    +0.000 OA
ATOM      9  C   UNL     1       1.268   9.176  20.443  0.00  0.00    +0.000 A 
ATOM     10  C   UNL     1       0.744  10.233  21.227  0.00  0.00    +0.000 A 
ATOM     11  C   UNL     1       0.730  11.525  20.663  0.00  0.00    +0.000 A 
ATOM     12  C   UNL     1       1.226  11.775  19.390  0.00  0.00    +0.000 A 
ATOM     13  C   UNL     1       1.762  10.732  18.645  0.00  0.00    +0.000 A 
ATOM     14  C   UNL     1       1.799   9.421  19.157  0.00  0.00    +0.000 A 
ATOM     15  C   UNL     1       2.352   8.299  18.332  0.00  0.00    +0.000 C 
ATOM     16  O   UNL     1       2.685   8.481  17.169  0.00  0.00    +0.000 OA
ENDROOT
BRANCH  10  17
ATOM     17  C   UNL     1       0.144  10.133  22.600  0.00  0.00    +0.000 C 
ATOM     18  C   UNL     1      -1.325  10.310  22.871  0.00  0.00    +0.000 C 
ATOM     19  O   UNL     1       0.889   9.761  23.515  0.00  0.00    +0.000 OA
ENDBRANCH  10  17
BRANCH   1  21
ATOM     20  C   UNL     1       1.543   2.892  21.569  0.00  0.00    +0.000 C 
ATOM     21  O   UNL     1       2.719   3.232  20.844  0.00  0.00    +0.000 OA
ENDBRANCH   1  21
BRANCH   3  22
ATOM     22  O   UNL     1       3.663   6.027  17.026  0.00  0.00    +0.000 OA
ATOM     23  H   UNL     1       3.096   5.625  16.350  0.00  0.00    +0.000 HD
ENDBRANCH   3  22
BRANCH  11  24
ATOM     24  O   UNL     1       0.226  12.631  21.303  0.00  0.00    +0.000 OA
ATOM     25  H   UNL     1       0.284  12.478  22.275  0.00  0.00    +0.000 HD
ENDBRANCH  11  24
BRANCH  13  26
ATOM     26  O   UNL     1       2.233  11.028  17.398  0.00  0.00    +0.000 OA
ATOM     27  H   UNL     1       3.201  10.969  17.364  0.00  0.00    +0.000 HD
ENDBRANCH  13  26
TORSDOF 5
ENDMDL
MODEL 9
REMARK VINA RESULT:      -6.1      1.072      5.863
REMARK  Name = 
REMARK  7 active torsions:
REMARK  status: ('A' for Active; 'I' for Inactive)
REMARK    1  A    between atoms: C_1  and  O_2
REMARK    2  A    between atoms: O_2  and  C_3
REMARK    3  A    between atoms: C_5  and  O_6
REMARK    4  A    between atoms: C_13  and  C_14
REMARK    5  A    between atoms: C_14  and  C_15
REMARK    6  A    between atoms: C_17  and  O_18
REMARK    7  A    between atoms: C_20  and  O_21
REMARK                            x       y       z     vdW  Elec       q    Type
REMARK                         _______ _______ _______ _____ _____    ______ ____
ROOT
ATOM      1  C   UNL     1       3.977   4.023  19.383  0.00  0.00    +0.000 A 
ATOM      2  C   UNL     1       4.506   4.441  18.164  0.00  0.00    +0.000 A 
ATOM      3  C   UNL     1       4.174   5.705  17.662  0.00  0.00    +0.000 A 
ATOM      4  C   UNL     1       3.300   6.566  18.355  0.00  0.00    +0.000 A 
ATOM      5  C   UNL     1       2.750   6.115  19.548  0.00  0.00    +0.000 A 
ATOM      6  C   UNL     1       3.093   4.857  20.065  0.00  0.00    +0.000 A 
ATOM      7  C   UNL     1       1.736   6.912  20.253  0.00  0.00    +0.000 C 
ATOM      8  O   UNL     1       1.000   6.350  21.051  0.00  0.00    +0.000 OA
ATOM      9  C   UNL     1       1.560   8.348  19.952  0.00  0.00    +0.000 A 
ATOM     10  C   UNL     1       0.788   9.200  20.780  0.00  0.00    +0.000 A 
ATOM     11  C   UNL     1       0.527  10.506  20.317  0.00  0.00    +0.000 A 
ATOM     12  C   UNL     1       1.018  10.966  19.102  0.00  0.00    +0.000 A 
ATOM     13  C   UNL     1       1.796  10.127  18.314  0.00  0.00    +0.000 A 
ATOM     14  C   UNL     1       2.087   8.811  18.725  0.00  0.00    +0.000 A 
ATOM     15  C   UNL     1       2.902   7.906  17.854  0.00  0.00    +0.000 C 
ATOM     16  O   UNL     1       3.244   8.255  16.732  0.00  0.00    +0.000 OA
ENDROOT
BRANCH  10  17
ATOM     17  C   UNL     1       0.159   8.856  22.099  0.00  0.00    +0.000 C 
ATOM     18  C   UNL     1       0.768   9.232  23.423  0.00  0.00    +0.000 C 
ATOM     19  O   UNL     1      -0.972   8.356  22.071  0.00  0.00    +0.000 OA
ENDBRANCH  10  17
BRANCH   1  21
ATOM     20  C   UNL     1       3.296   2.415  20.994  0.00  0.00    +0.000 C 
ATOM     21  O   UNL     1       4.215   2.821  19.986  0.00  0.00    +0.000 OA
ENDBRANCH   1  21
BRANCH   3  22
ATOM     22  O   UNL     1       4.724   6.079  16.464  0.00  0.00    +0.000 OA
ATOM     23  H   UNL     1       4.232   5.698  15.720  0.00  0.00    +0.000 HD
ENDBRANCH   3  22
BRANCH  11  24
ATOM     24  O   UNL     1      -0.229  11.422  21.006  0.00  0.00    +0.000 OA
ATOM     25  H   UNL     1       0.380  12.079  21.418  0.00  0.00    +0.000 HD
ENDBRANCH  11  24
BRANCH  13  26
ATOM     26  O   UNL     1       2.252  10.622  17.126  0.00  0.00    +0.000 OA
ATOM     27  H   UNL     1       3.191  10.411  16.994  0.00  0.00    +0.000 HD
ENDBRANCH  13  26
TORSDOF 5
ENDMDL
