MODEL 1
REMARK VINA RESULT:      -6.0      0.000      0.000
REMARK  Name = 
REMARK  4 active torsions:
REMARK  status: ('A' for Active; 'I' for Inactive)
REMARK    1  A    between atoms: C_1  and  O_2
REMARK    2  A    between atoms: O_2  and  C_3
REMARK    3  A    between atoms: C_6  and  N_7
REMARK    4  A    between atoms: C_11  and  S_12
REMARK                            x       y       z     vdW  Elec       q    Type
REMARK                         _______ _______ _______ _____ _____    ______ ____
ROOT
ATOM      1  C   UNL     1       2.103   3.896  18.780  0.00  0.00    +0.000 A 
ATOM      2  C   UNL     1       2.454   5.190  18.394  0.00  0.00    +0.000 A 
ATOM      3  C   UNL     1       3.565   5.415  17.575  0.00  0.00    +0.000 A 
ATOM      4  C   UNL     1       4.336   4.337  17.127  0.00  0.00    +0.000 A 
ATOM      5  C   UNL     1       4.000   3.040  17.535  0.00  0.00    +0.000 A 
ATOM      6  C   UNL     1       2.889   2.825  18.358  0.00  0.00    +0.000 A 
ENDROOT
BRANCH   4   7
ATOM      7  N   UNL     1       5.482   4.570  16.312  0.00  0.00    +0.000 N 
ATOM      8  C   UNL     1       5.539   4.325  14.950  0.00  0.00    +0.000 A 
ATOM      9  C   UNL     1       6.760   4.790  14.525  0.00  0.00    +0.000 A 
ATOM     10  N   UNL     1       7.496   5.251  15.578  0.00  0.00    +0.000 NA
ATOM     11  C   UNL     1       6.730   5.085  16.632  0.00  0.00    +0.000 A 
BRANCH  11  12
ATOM     12  S   UNL     1       7.347   5.302  18.241  0.00  0.00    +0.000 S 
ATOM     13  H   UNL     1       7.313   4.006  18.580  0.00  0.00    +0.000 HD
ENDBRANCH  11  12
ENDBRANCH   4   7
BRANCH   1  15
ATOM     14  C   UNL     1       1.213   3.091  20.820  0.00  0.00    +0.000 C 
ATOM     15  O   UNL     1       1.016   3.804  19.604  0.00  0.00    +0.000 OA
ENDBRANCH   1  15
TORSDOF 3
ENDMDL
MODEL 2
REMARK VINA RESULT:      -5.9      0.239      1.308
REMARK  Name = 
REMARK  4 active torsions:
REMARK  status: ('A' for Active; 'I' for Inactive)
REMARK    1  A    between atoms: C_1  and  O_2
REMARK    2  A    between atoms: O_2  and  C_3
REMARK    3  A    between atoms: C_6  and  N_7
REMARK    4  A    between atoms: C_11  and  S_12
REMARK                            x       y       z     vdW  Elec       q    Type
REMARK                         _______ _______ _______ _____ _____    ______ ____
ROOT
ATOM      1  C   UNL     1       2.141   3.657  18.651  0.00  0.00    +0.000 A 
ATOM      2  C   UNL     1       2.905   2.619  18.115  0.00  0.00    +0.000 A 
ATOM      3  C   UNL     1       4.018   2.891  17.314  0.00  0.00    +0.000 A 
ATOM      4  C   UNL     1       4.383   4.215  17.046  0.00  0.00    +0.000 A 
ATOM      5  C   UNL     1       3.603   5.257  17.563  0.00  0.00    +0.000 A 
ATOM      6  C   UNL     1       2.488   4.975  18.360  0.00  0.00    +0.000 A 
ENDROOT
BRANCH   4   7
ATOM      7  N   UNL     1       5.504   4.490  16.210  0.00  0.00    +0.000 N 
ATOM      8  C   UNL     1       5.540   4.262  14.844  0.00  0.00    +0.000 A 
ATOM      9  C   UNL     1       6.737   4.767  14.400  0.00  0.00    +0.000 A 
ATOM     10  N   UNL     1       7.482   5.236  15.442  0.00  0.00    +0.000 NA
ATOM     11  C   UNL     1       6.743   5.037  16.510  0.00  0.00    +0.000 A 
BRANCH  11  12
ATOM     12  S   UNL     1       7.388   5.255  18.108  0.00  0.00    +0.000 S 
ATOM     13  H   UNL     1       6.235   5.638  18.673  0.00  0.00    +0.000 HD
ENDBRANCH  11  12
ENDBRANCH   4   7
BRANCH   1  15
ATOM     14  C   UNL     1       1.268   3.188  20.800  0.00  0.00    +0.000 C 
ATOM     15  O   UNL     1       1.062   3.268  19.394  0.00  0.00    +0.000 OA
ENDBRANCH   1  15
TORSDOF 3
ENDMDL
MODEL 3
REMARK VINA RESULT:      -5.8      3.324      5.610
REMARK  Name = 
REMARK  4 active torsions:
REMARK  status: ('A' for Active; 'I' for Inactive)
REMARK    1  A    between atoms: C_1  and  O_2
REMARK    2  A    between atoms: O_2  and  C_3
REMARK    3  A    between atoms: C_6  and  N_7
REMARK    4  A    between atoms: C_11  and  S_12
REMARK                            x       y       z     vdW  Elec       q    Type
REMARK                         _______ _______ _______ _____ _____    ______ ____
ROOT
ATOM      1  C   UNL     1       6.688   4.680  16.494  0.00  0.00    +0.000 A 
ATOM      2  C   UNL     1       5.417   4.212  16.158  0.00  0.00    +0.000 A 
ATOM      3  C   UNL     1       4.455   3.987  17.146  0.00  0.00    +0.000 A 
ATOM      4  C   UNL     1       4.756   4.237  18.490  0.00  0.00    +0.000 A 
ATOM      5  C   UNL     1       6.038   4.683  18.831  0.00  0.00    +0.000 A 
ATOM      6  C   UNL     1       6.997   4.901  17.836  0.00  0.00    +0.000 A 
ENDROOT
BRANCH   4   7
ATOM      7  N   UNL     1       3.781   3.985  19.498  0.00  0.00    +0.000 N 
ATOM      8  C   UNL     1       3.558   2.749  20.084  0.00  0.00    +0.000 A 
ATOM      9  C   UNL     1       2.633   2.954  21.078  0.00  0.00    +0.000 A 
ATOM     10  N   UNL     1       2.215   4.253  21.090  0.00  0.00    +0.000 NA
ATOM     11  C   UNL     1       2.888   4.841  20.127  0.00  0.00    +0.000 A 
BRANCH  11  12
ATOM     12  S   UNL     1       2.501   6.452  19.607  0.00  0.00    +0.000 S 
ATOM     13  H   UNL     1       2.930   6.299  18.347  0.00  0.00    +0.000 HD
ENDBRANCH  11  12
ENDBRANCH   4   7
BRANCH   1  15
ATOM     14  C   UNL     1       6.995   4.671  14.148  0.00  0.00    +0.000 C 
ATOM     15  O   UNL     1       7.553   4.835  15.447  0.00  0.00    +0.000 OA
ENDBRANCH   1  15
TORSDOF 3
ENDMDL
MODEL 4
REMARK VINA RESULT:      -5.8      3.364      5.613
REMARK  Name = 
REMARK  4 active torsions:
REMARK  status: ('A' for Active; 'I' for Inactive)
REMARK    1  A    between atoms: C_1  and  O_2
REMARK    2  A    between atoms: O_2  and  C_3
REMARK    3  A    between atoms: C_6  and  N_7
REMARK    4  A    between atoms: C_11  and  S_12
REMARK                            x       y       z     vdW  Elec       q    Type
REMARK                         _______ _______ _______ _____ _____    ______ ____
ROOT
ATOM      1  C   UNL     1       6.473   4.537  16.582  0.00  0.00    +0.000 A 
ATOM      2  C   UNL     1       6.798   4.798  17.914  0.00  0.00    +0.000 A 
ATOM      3  C   UNL     1       5.863   4.588  18.931  0.00  0.00    +0.000 A 
ATOM      4  C   UNL     1       4.586   4.103  18.623  0.00  0.00    +0.000 A 
ATOM      5  C   UNL     1       4.252   3.864  17.285  0.00  0.00    +0.000 A 
ATOM      6  C   UNL     1       5.192   4.082  16.272  0.00  0.00    +0.000 A 
ENDROOT
BRANCH   4   7
ATOM      7  N   UNL     1       3.627   3.912  19.659  0.00  0.00    +0.000 N 
ATOM      8  C   UNL     1       3.394   2.706  20.301  0.00  0.00    +0.000 A 
ATOM      9  C   UNL     1       2.493   2.970  21.303  0.00  0.00    +0.000 A 
ATOM     10  N   UNL     1       2.100   4.276  21.269  0.00  0.00    +0.000 NA
ATOM     11  C   UNL     1       2.763   4.810  20.269  0.00  0.00    +0.000 A 
BRANCH  11  12
ATOM     12  S   UNL     1       2.395   6.405  19.689  0.00  0.00    +0.000 S 
ATOM     13  H   UNL     1       1.914   6.869  20.851  0.00  0.00    +0.000 HD
ENDBRANCH  11  12
ENDBRANCH   4   7
BRANCH   1  15
ATOM     14  C   UNL     1       7.067   4.788  14.305  0.00  0.00    +0.000 C 
ATOM     15  O   UNL     1       7.458   4.808  15.674  0.00  0.00    +0.000 OA
ENDBRANCH   1  15
TORSDOF 3
ENDMDL
MODEL 5
REMARK VINA RESULT:      -5.7      3.527      5.724
REMARK  Name = 
REMARK  4 active torsions:
REMARK  status: ('A' for Active; 'I' for Inactive)
REMARK    1  A    between atoms: C_1  and  O_2
REMARK    2  A    between atoms: O_2  and  C_3
REMARK    3  A    between atoms: C_6  and  N_7
REMARK    4  A    between atoms: C_11  and  S_12
REMARK                            x       y       z     vdW  Elec       q    Type
REMARK                         _______ _______ _______ _____ _____    ______ ____
ROOT
ATOM      1  C   UNL     1       6.249   6.445  17.444  0.00  0.00    +0.000 A 
ATOM      2  C   UNL     1       6.520   5.636  18.549  0.00  0.00    +0.000 A 
ATOM      3  C   UNL     1       5.491   4.954  19.204  0.00  0.00    +0.000 A 
ATOM      4  C   UNL     1       4.172   5.069  18.751  0.00  0.00    +0.000 A 
ATOM      5  C   UNL     1       3.895   5.899  17.658  0.00  0.00    +0.000 A 
ATOM      6  C   UNL     1       4.931   6.582  17.011  0.00  0.00    +0.000 A 
ENDROOT
BRANCH   4   7
ATOM      7  N   UNL     1       3.122   4.391  19.435  0.00  0.00    +0.000 N 
ATOM      8  C   UNL     1       2.353   4.948  20.444  0.00  0.00    +0.000 A 
ATOM      9  C   UNL     1       1.386   4.022  20.749  0.00  0.00    +0.000 A 
ATOM     10  N   UNL     1       1.562   2.880  20.023  0.00  0.00    +0.000 NA
ATOM     11  C   UNL     1       2.614   3.110  19.270  0.00  0.00    +0.000 A 
BRANCH  11  12
ATOM     12  S   UNL     1       3.365   1.840  18.354  0.00  0.00    +0.000 S 
ATOM     13  H   UNL     1       2.619   0.846  18.855  0.00  0.00    +0.000 HD
ENDBRANCH  11  12
ENDBRANCH   4   7
BRANCH   1  15
ATOM     14  C   UNL     1       7.800   8.223  17.616  0.00  0.00    +0.000 C 
ATOM     15  O   UNL     1       7.330   7.084  16.904  0.00  0.00    +0.000 OA
ENDBRANCH   1  15
TORSDOF 3
ENDMDL
MODEL 6
REMARK VINA RESULT:      -5.7      3.567      5.659
REMARK  Name = 
REMARK  4 active torsions:
REMARK  status: ('A' for Active; 'I' for Inactive)
REMARK    1  A    between atoms: C_1  and  O_2
REMARK    2  A    between atoms: O_2  and  C_3
REMARK    3  A    between atoms: C_6  and  N_7
REMARK    4  A    between atoms: C_11  and  S_12
REMARK                            x       y       z     vdW  Elec       q    Type
REMARK                         _______ _______ _______ _____ _____    ______ ____
ROOT
ATOM      1  C   UNL     1       5.995   6.556  17.593  0.00  0.00    +0.000 A 
ATOM      2  C   UNL     1       4.643   6.660  17.265  0.00  0.00    +0.000 A 
ATOM      3  C   UNL     1       3.684   5.898  17.938  0.00  0.00    +0.000 A 
ATOM      4  C   UNL     1       4.072   5.023  18.960  0.00  0.00    +0.000 A 
ATOM      5  C   UNL     1       5.431   4.901  19.273  0.00  0.00    +0.000 A 
ATOM      6  C   UNL     1       6.385   5.664  18.591  0.00  0.00    +0.000 A 
ENDROOT
BRANCH   4   7
ATOM      7  N   UNL     1       3.096   4.231  19.629  0.00  0.00    +0.000 N 
ATOM      8  C   UNL     1       2.367   4.647  20.730  0.00  0.00    +0.000 A 
ATOM      9  C   UNL     1       1.460   3.649  20.994  0.00  0.00    +0.000 A 
ATOM     10  N   UNL     1       1.641   2.595  20.146  0.00  0.00    +0.000 NA
ATOM     11  C   UNL     1       2.634   2.949  19.363  0.00  0.00    +0.000 A 
BRANCH  11  12
ATOM     12  S   UNL     1       3.382   1.814  18.281  0.00  0.00    +0.000 S 
ATOM     13  H   UNL     1       3.275   2.576  17.184  0.00  0.00    +0.000 HD
ENDBRANCH  11  12
ENDBRANCH   4   7
BRANCH   1  15
ATOM     14  C   UNL     1       7.781   8.108  17.579  0.00  0.00    +0.000 C 
ATOM     15  O   UNL     1       6.841   7.329  16.848  0.00  0.00    +0.000 OA
ENDBRANCH   1  15
TORSDOF 3
ENDMDL
MODEL 7
REMARK VINA RESULT:      -5.7      0.827      1.501
REMARK  Name = 
REMARK  4 active torsions:
REMARK  status: ('A' for Active; 'I' for Inactive)
REMARK    1  A    between atoms: C_1  and  O_2
REMARK    2  A    between atoms: O_2  and  C_3
REMARK    3  A    between atoms: C_6  and  N_7
REMARK    4  A    between atoms: C_11  and  S_12
REMARK                            x       y       z     vdW  Elec       q    Type
REMARK                         _______ _______ _______ _____ _____    ______ ____
ROOT
ATOM      1  C   UNL     1       2.415   4.802  19.329  0.00  0.00    +0.000 A 
ATOM      2  C   UNL     1       3.285   3.717  19.214  0.00  0.00    +0.000 A 
ATOM      3  C   UNL     1       4.351   3.749  18.311  0.00  0.00    +0.000 A 
ATOM      4  C   UNL     1       4.562   4.880  17.514  0.00  0.00    +0.000 A 
ATOM      5  C   UNL     1       3.676   5.959  17.611  0.00  0.00    +0.000 A 
ATOM      6  C   UNL     1       2.608   5.916  18.514  0.00  0.00    +0.000 A 
ENDROOT
BRANCH   4   7
ATOM      7  N   UNL     1       5.636   4.901  16.578  0.00  0.00    +0.000 N 
ATOM      8  C   UNL     1       5.689   4.133  15.426  0.00  0.00    +0.000 A 
ATOM      9  C   UNL     1       6.815   4.531  14.747  0.00  0.00    +0.000 A 
ATOM     10  N   UNL     1       7.505   5.467  15.461  0.00  0.00    +0.000 NA
ATOM     11  C   UNL     1       6.803   5.651  16.556  0.00  0.00    +0.000 A 
BRANCH  11  12
ATOM     12  S   UNL     1       7.429   6.577  17.886  0.00  0.00    +0.000 S 
ATOM     13  H   UNL     1       7.626   5.534  18.703  0.00  0.00    +0.000 HD
ENDBRANCH  11  12
ENDBRANCH   4   7
BRANCH   1  15
ATOM     14  C   UNL     1       1.301   3.367  20.846  0.00  0.00    +0.000 C 
ATOM     15  O   UNL     1       1.394   4.644  20.224  0.00  0.00    +0.000 OA
ENDBRANCH   1  15
TORSDOF 3
ENDMDL
MODEL 8
REMARK VINA RESULT:      -5.7      1.020      1.020
REMARK  Name = 
REMARK  4 active torsions:
REMARK  status: ('A' for Active; 'I' for Inactive)
REMARK    1  A    between atoms: C_1  and  O_2
REMARK    2  A    between atoms: O_2  and  C_3
REMARK    3  A    between atoms: C_6  and  N_7
REMARK    4  A    between atoms: C_11  and  S_12
REMARK                            x       y       z     vdW  Elec       q    Type
REMARK                         _______ _______ _______ _____ _____    ______ ____
ROOT
ATOM      1  C   UNL     1       2.834   4.344  19.678  0.00  0.00    +0.000 A 
ATOM      2  C   UNL     1       2.610   5.205  18.603  0.00  0.00    +0.000 A 
ATOM      3  C   UNL     1       3.553   5.329  17.578  0.00  0.00    +0.000 A 
ATOM      4  C   UNL     1       4.735   4.581  17.618  0.00  0.00    +0.000 A 
ATOM      5  C   UNL     1       4.972   3.735  18.708  0.00  0.00    +0.000 A 
ATOM      6  C   UNL     1       4.025   3.621  19.731  0.00  0.00    +0.000 A 
ENDROOT
BRANCH   4   7
ATOM      7  N   UNL     1       5.705   4.726  16.585  0.00  0.00    +0.000 N 
ATOM      8  C   UNL     1       5.793   3.910  15.469  0.00  0.00    +0.000 A 
ATOM      9  C   UNL     1       6.770   4.451  14.670  0.00  0.00    +0.000 A 
ATOM     10  N   UNL     1       7.346   5.531  15.273  0.00  0.00    +0.000 NA
ATOM     11  C   UNL     1       6.719   5.660  16.420  0.00  0.00    +0.000 A 
BRANCH  11  12
ATOM     12  S   UNL     1       7.285   6.757  17.642  0.00  0.00    +0.000 S 
ATOM     13  H   UNL     1       7.219   5.883  18.656  0.00  0.00    +0.000 HD
ENDBRANCH  11  12
ENDBRANCH   4   7
BRANCH   1  15
ATOM     14  C   UNL     1       1.201   3.080  20.833  0.00  0.00    +0.000 C 
ATOM     15  O   UNL     1       1.855   4.328  20.632  0.00  0.00    +0.000 OA
ENDBRANCH   1  15
TORSDOF 3
ENDMDL
MODEL 9
REMARK VINA RESULT:      -5.6      3.434      5.383
REMARK  Name = 
REMARK  4 active torsions:
REMARK  status: ('A' for Active; 'I' for Inactive)
REMARK    1  A    between atoms: C_1  and  O_2
REMARK    2  A    between atoms: O_2  and  C_3
REMARK    3  A    between atoms: C_6  and  N_7
REMARK    4  A    between atoms: C_11  and  S_12
REMARK                            x       y       z     vdW  Elec       q    Type
REMARK                         _______ _______ _______ _____ _____    ______ ____
ROOT
ATOM      1  C   UNL     1       6.639   6.530  17.358  0.00  0.00    +0.000 A 
ATOM      2  C   UNL     1       5.493   6.337  16.586  0.00  0.00    +0.000 A 
ATOM      3  C   UNL     1       4.512   5.422  16.980  0.00  0.00    +0.000 A 
ATOM      4  C   UNL     1       4.668   4.692  18.164  0.00  0.00    +0.000 A 
ATOM      5  C   UNL     1       5.828   4.867  18.926  0.00  0.00    +0.000 A 
ATOM      6  C   UNL     1       6.807   5.782  18.522  0.00  0.00    +0.000 A 
ENDROOT
BRANCH   4   7
ATOM      7  N   UNL     1       3.678   3.743  18.551  0.00  0.00    +0.000 N 
ATOM      8  C   UNL     1       3.556   2.472  18.014  0.00  0.00    +0.000 A 
ATOM      9  C   UNL     1       2.570   1.841  18.732  0.00  0.00    +0.000 A 
ATOM     10  N   UNL     1       2.022   2.690  19.650  0.00  0.00    +0.000 NA
ATOM     11  C   UNL     1       2.675   3.821  19.506  0.00  0.00    +0.000 A 
BRANCH  11  12
ATOM     12  S   UNL     1       2.150   5.275  20.298  0.00  0.00    +0.000 S 
ATOM     13  H   UNL     1       1.824   4.692  21.460  0.00  0.00    +0.000 HD
ENDBRANCH  11  12
ENDBRANCH   4   7
BRANCH   1  15
ATOM     14  C   UNL     1       7.900   8.499  17.725  0.00  0.00    +0.000 C 
ATOM     15  O   UNL     1       7.539   7.429  16.858  0.00  0.00    +0.000 OA
ENDBRANCH   1  15
TORSDOF 3
ENDMDL
