MODEL 1
REMARK VINA RESULT:      -6.0      0.000      0.000
REMARK  Name = 
REMARK  2 active torsions:
REMARK  status: ('A' for Active; 'I' for Inactive)
REMARK    1  A    between atoms: C_1  and  C_2
REMARK    2  A    between atoms: C_5  and  N_6
REMARK                            x       y       z     vdW  Elec       q    Type
REMARK                         _______ _______ _______ _____ _____    ______ ____
ROOT
ATOM      1  C   UNL     1       4.369   3.207  19.936  0.00  0.00    +0.000 C 
ATOM      2  C   UNL     1       4.767   3.838  18.633  0.00  0.00    +0.000 A 
ATOM      3  C   UNL     1       4.028   3.577  17.473  0.00  0.00    +0.000 A 
ATOM      4  C   UNL     1       4.369   4.181  16.259  0.00  0.00    +0.000 A 
ATOM      5  C   UNL     1       5.471   5.036  16.161  0.00  0.00    +0.000 A 
ATOM      6  C   UNL     1       6.195   5.321  17.334  0.00  0.00    +0.000 A 
ATOM      7  C   UNL     1       5.865   4.710  18.555  0.00  0.00    +0.000 A 
ATOM      8  O   UNL     1       6.537   4.951  19.731  0.00  0.00    +0.000 OA
ATOM      9  C   UNL     1       7.841   5.510  19.555  0.00  0.00    +0.000 C 
ATOM     10  C   UNL     1       7.797   6.738  18.677  0.00  0.00    +0.000 C 
ATOM     11  C   UNL     1       7.326   6.284  17.328  0.00  0.00    +0.000 C 
ATOM     12  O   UNL     1       7.829   6.695  16.287  0.00  0.00    +0.000 OA
ENDROOT
BRANCH   5  13
ATOM     13  N   UNL     1       5.651   5.759  14.969  0.00  0.00    +0.000 N 
ATOM     14  H   UNL     1       5.287   6.705  14.982  0.00  0.00    +0.000 HD
ATOM     15  H   UNL     1       5.339   5.229  14.146  0.00  0.00    +0.000 HD
ENDBRANCH   5  13
TORSDOF 1
ENDMDL
MODEL 2
REMARK VINA RESULT:      -5.9      3.443      4.717
REMARK  Name = 
REMARK  2 active torsions:
REMARK  status: ('A' for Active; 'I' for Inactive)
REMARK    1  A    between atoms: C_1  and  C_2
REMARK    2  A    between atoms: C_5  and  N_6
REMARK                            x       y       z     vdW  Elec       q    Type
REMARK                         _______ _______ _______ _____ _____    ______ ____
ROOT
ATOM      1  C   UNL     1       2.185   7.142  20.123  0.00  0.00    +0.000 C 
ATOM      2  C   UNL     1       2.107   5.665  19.861  0.00  0.00    +0.000 A 
ATOM      3  C   UNL     1       1.156   4.885  20.529  0.00  0.00    +0.000 A 
ATOM      4  C   UNL     1       1.051   3.514  20.272  0.00  0.00    +0.000 A 
ATOM      5  C   UNL     1       1.908   2.880  19.367  0.00  0.00    +0.000 A 
ATOM      6  C   UNL     1       2.843   3.671  18.674  0.00  0.00    +0.000 A 
ATOM      7  C   UNL     1       2.961   5.048  18.934  0.00  0.00    +0.000 A 
ATOM      8  O   UNL     1       3.857   5.868  18.289  0.00  0.00    +0.000 OA
ATOM      9  C   UNL     1       4.941   5.175  17.666  0.00  0.00    +0.000 C 
ATOM     10  C   UNL     1       4.440   4.075  16.760  0.00  0.00    +0.000 C 
ATOM     11  C   UNL     1       3.731   3.087  17.637  0.00  0.00    +0.000 C 
ATOM     12  O   UNL     1       3.861   1.875  17.495  0.00  0.00    +0.000 OA
ENDROOT
BRANCH   5  13
ATOM     13  N   UNL     1       1.633   1.549  19.008  0.00  0.00    +0.000 N 
ATOM     14  H   UNL     1       1.657   0.885  19.774  0.00  0.00    +0.000 HD
ATOM     15  H   UNL     1       2.195   1.243  18.204  0.00  0.00    +0.000 HD
ENDBRANCH   5  13
TORSDOF 1
ENDMDL
MODEL 3
REMARK VINA RESULT:      -5.8      2.838      4.458
REMARK  Name = 
REMARK  2 active torsions:
REMARK  status: ('A' for Active; 'I' for Inactive)
REMARK    1  A    between atoms: C_1  and  C_2
REMARK    2  A    between atoms: C_5  and  N_6
REMARK                            x       y       z     vdW  Elec       q    Type
REMARK                         _______ _______ _______ _____ _____    ______ ____
ROOT
ATOM      1  C   UNL     1       2.174   7.853  17.958  0.00  0.00    +0.000 C 
ATOM      2  C   UNL     1       3.264   6.822  18.024  0.00  0.00    +0.000 A 
ATOM      3  C   UNL     1       4.465   7.026  17.336  0.00  0.00    +0.000 A 
ATOM      4  C   UNL     1       5.500   6.089  17.414  0.00  0.00    +0.000 A 
ATOM      5  C   UNL     1       5.355   4.912  18.154  0.00  0.00    +0.000 A 
ATOM      6  C   UNL     1       4.159   4.721  18.870  0.00  0.00    +0.000 A 
ATOM      7  C   UNL     1       3.110   5.654  18.788  0.00  0.00    +0.000 A 
ATOM      8  O   UNL     1       1.921   5.519  19.464  0.00  0.00    +0.000 OA
ATOM      9  C   UNL     1       1.643   4.186  19.900  0.00  0.00    +0.000 C 
ATOM     10  C   UNL     1       2.799   3.615  20.687  0.00  0.00    +0.000 C 
ATOM     11  C   UNL     1       3.962   3.538  19.744  0.00  0.00    +0.000 C 
ATOM     12  O   UNL     1       4.714   2.569  19.711  0.00  0.00    +0.000 OA
ENDROOT
BRANCH   5  13
ATOM     13  N   UNL     1       6.489   4.104  18.351  0.00  0.00    +0.000 N 
ATOM     14  H   UNL     1       6.995   4.278  19.212  0.00  0.00    +0.000 HD
ATOM     15  H   UNL     1       7.104   4.096  17.528  0.00  0.00    +0.000 HD
ENDBRANCH   5  13
TORSDOF 1
ENDMDL
MODEL 4
REMARK VINA RESULT:      -5.8      3.131      4.566
REMARK  Name = 
REMARK  2 active torsions:
REMARK  status: ('A' for Active; 'I' for Inactive)
REMARK    1  A    between atoms: C_1  and  C_2
REMARK    2  A    between atoms: C_5  and  N_6
REMARK                            x       y       z     vdW  Elec       q    Type
REMARK                         _______ _______ _______ _____ _____    ______ ____
ROOT
ATOM      1  C   UNL     1       2.334   7.588  18.809  0.00  0.00    +0.000 C 
ATOM      2  C   UNL     1       3.097   6.449  18.196  0.00  0.00    +0.000 A 
ATOM      3  C   UNL     1       4.153   6.707  17.314  0.00  0.00    +0.000 A 
ATOM      4  C   UNL     1       4.892   5.658  16.760  0.00  0.00    +0.000 A 
ATOM      5  C   UNL     1       4.580   4.324  17.044  0.00  0.00    +0.000 A 
ATOM      6  C   UNL     1       3.538   4.067  17.953  0.00  0.00    +0.000 A 
ATOM      7  C   UNL     1       2.784   5.116  18.507  0.00  0.00    +0.000 A 
ATOM      8  O   UNL     1       1.755   4.923  19.398  0.00  0.00    +0.000 OA
ATOM      9  C   UNL     1       1.217   3.599  19.393  0.00  0.00    +0.000 C 
ATOM     10  C   UNL     1       2.305   2.565  19.566  0.00  0.00    +0.000 C 
ATOM     11  C   UNL     1       3.201   2.682  18.370  0.00  0.00    +0.000 C 
ATOM     12  O   UNL     1       3.643   1.698  17.785  0.00  0.00    +0.000 OA
ENDROOT
BRANCH   5  13
ATOM     13  N   UNL     1       5.470   3.325  16.614  0.00  0.00    +0.000 N 
ATOM     14  H   UNL     1       6.074   2.949  17.336  0.00  0.00    +0.000 HD
ATOM     15  H   UNL     1       5.991   3.608  15.774  0.00  0.00    +0.000 HD
ENDBRANCH   5  13
TORSDOF 1
ENDMDL
MODEL 5
REMARK VINA RESULT:      -5.8      3.354      4.743
REMARK  Name = 
REMARK  2 active torsions:
REMARK  status: ('A' for Active; 'I' for Inactive)
REMARK    1  A    between atoms: C_1  and  C_2
REMARK    2  A    between atoms: C_5  and  N_6
REMARK                            x       y       z     vdW  Elec       q    Type
REMARK                         _______ _______ _______ _____ _____    ______ ____
ROOT
ATOM      1  C   UNL     1       1.960   7.555  20.089  0.00  0.00    +0.000 C 
ATOM      2  C   UNL     1       2.647   6.450  19.338  0.00  0.00    +0.000 A 
ATOM      3  C   UNL     1       3.341   6.732  18.157  0.00  0.00    +0.000 A 
ATOM      4  C   UNL     1       4.011   5.719  17.464  0.00  0.00    +0.000 A 
ATOM      5  C   UNL     1       3.982   4.395  17.913  0.00  0.00    +0.000 A 
ATOM      6  C   UNL     1       3.309   4.118  19.117  0.00  0.00    +0.000 A 
ATOM      7  C   UNL     1       2.625   5.129  19.813  0.00  0.00    +0.000 A 
ATOM      8  O   UNL     1       1.950   4.916  20.992  0.00  0.00    +0.000 OA
ATOM      9  C   UNL     1       1.619   3.547  21.237  0.00  0.00    +0.000 C 
ATOM     10  C   UNL     1       2.837   2.660  21.124  0.00  0.00    +0.000 C 
ATOM     11  C   UNL     1       3.303   2.753  19.702  0.00  0.00    +0.000 C 
ATOM     12  O   UNL     1       3.675   1.769  19.070  0.00  0.00    +0.000 OA
ENDROOT
BRANCH   5  13
ATOM     13  N   UNL     1       4.826   3.460  17.288  0.00  0.00    +0.000 N 
ATOM     14  H   UNL     1       5.739   3.354  17.714  0.00  0.00    +0.000 HD
ATOM     15  H   UNL     1       4.880   3.608  16.272  0.00  0.00    +0.000 HD
ENDBRANCH   5  13
TORSDOF 1
ENDMDL
MODEL 6
REMARK VINA RESULT:      -5.8      2.575      3.332
REMARK  Name = 
REMARK  2 active torsions:
REMARK  status: ('A' for Active; 'I' for Inactive)
REMARK    1  A    between atoms: C_1  and  C_2
REMARK    2  A    between atoms: C_5  and  N_6
REMARK                            x       y       z     vdW  Elec       q    Type
REMARK                         _______ _______ _______ _____ _____    ______ ____
ROOT
ATOM      1  C   UNL     1       2.364   7.599  17.926  0.00  0.00    +0.000 C 
ATOM      2  C   UNL     1       3.172   6.413  18.370  0.00  0.00    +0.000 A 
ATOM      3  C   UNL     1       2.573   5.403  19.131  0.00  0.00    +0.000 A 
ATOM      4  C   UNL     1       3.305   4.278  19.525  0.00  0.00    +0.000 A 
ATOM      5  C   UNL     1       4.658   4.144  19.198  0.00  0.00    +0.000 A 
ATOM      6  C   UNL     1       5.251   5.146  18.407  0.00  0.00    +0.000 A 
ATOM      7  C   UNL     1       4.525   6.284  18.016  0.00  0.00    +0.000 A 
ATOM      8  O   UNL     1       5.053   7.293  17.245  0.00  0.00    +0.000 OA
ATOM      9  C   UNL     1       6.482   7.332  17.232  0.00  0.00    +0.000 C 
ATOM     10  C   UNL     1       7.063   5.988  16.864  0.00  0.00    +0.000 C 
ATOM     11  C   UNL     1       6.658   5.035  17.948  0.00  0.00    +0.000 C 
ATOM     12  O   UNL     1       7.434   4.205  18.413  0.00  0.00    +0.000 OA
ENDROOT
BRANCH   5  13
ATOM     13  N   UNL     1       5.287   2.913  19.454  0.00  0.00    +0.000 N 
ATOM     14  H   UNL     1       5.613   2.419  18.631  0.00  0.00    +0.000 HD
ATOM     15  H   UNL     1       4.728   2.316  20.076  0.00  0.00    +0.000 HD
ENDBRANCH   5  13
TORSDOF 1
ENDMDL
MODEL 7
REMARK VINA RESULT:      -5.7      3.480      5.245
REMARK  Name = 
REMARK  2 active torsions:
REMARK  status: ('A' for Active; 'I' for Inactive)
REMARK    1  A    between atoms: C_1  and  C_2
REMARK    2  A    between atoms: C_5  and  N_6
REMARK                            x       y       z     vdW  Elec       q    Type
REMARK                         _______ _______ _______ _____ _____    ______ ____
ROOT
ATOM      1  C   UNL     1       4.976   4.003  15.954  0.00  0.00    +0.000 C 
ATOM      2  C   UNL     1       4.269   4.710  17.075  0.00  0.00    +0.000 A 
ATOM      3  C   UNL     1       4.573   6.046  17.362  0.00  0.00    +0.000 A 
ATOM      4  C   UNL     1       3.901   6.726  18.382  0.00  0.00    +0.000 A 
ATOM      5  C   UNL     1       2.932   6.087  19.162  0.00  0.00    +0.000 A 
ATOM      6  C   UNL     1       2.606   4.753  18.853  0.00  0.00    +0.000 A 
ATOM      7  C   UNL     1       3.284   4.060  17.835  0.00  0.00    +0.000 A 
ATOM      8  O   UNL     1       3.009   2.757  17.491  0.00  0.00    +0.000 OA
ATOM      9  C   UNL     1       2.311   2.021  18.499  0.00  0.00    +0.000 C 
ATOM     10  C   UNL     1       1.069   2.753  18.950  0.00  0.00    +0.000 C 
ATOM     11  C   UNL     1       1.531   4.033  19.579  0.00  0.00    +0.000 C 
ATOM     12  O   UNL     1       1.038   4.466  20.616  0.00  0.00    +0.000 OA
ENDROOT
BRANCH   5  13
ATOM     13  N   UNL     1       2.159   6.868  20.039  0.00  0.00    +0.000 N 
ATOM     14  H   UNL     1       1.882   7.773  19.676  0.00  0.00    +0.000 HD
ATOM     15  H   UNL     1       2.583   6.932  20.973  0.00  0.00    +0.000 HD
ENDBRANCH   5  13
TORSDOF 1
ENDMDL
MODEL 8
REMARK VINA RESULT:      -5.7      2.815      3.534
REMARK  Name = 
REMARK  2 active torsions:
REMARK  status: ('A' for Active; 'I' for Inactive)
REMARK    1  A    between atoms: C_1  and  C_2
REMARK    2  A    between atoms: C_5  and  N_6
REMARK                            x       y       z     vdW  Elec       q    Type
REMARK                         _______ _______ _______ _____ _____    ______ ____
ROOT
ATOM      1  C   UNL     1       1.023   3.062  20.537  0.00  0.00    +0.000 C 
ATOM      2  C   UNL     1       2.132   3.213  19.536  0.00  0.00    +0.000 A 
ATOM      3  C   UNL     1       2.745   2.078  18.993  0.00  0.00    +0.000 A 
ATOM      4  C   UNL     1       3.758   2.203  18.036  0.00  0.00    +0.000 A 
ATOM      5  C   UNL     1       4.206   3.460  17.618  0.00  0.00    +0.000 A 
ATOM      6  C   UNL     1       3.569   4.600  18.142  0.00  0.00    +0.000 A 
ATOM      7  C   UNL     1       2.557   4.482  19.111  0.00  0.00    +0.000 A 
ATOM      8  O   UNL     1       1.901   5.560  19.658  0.00  0.00    +0.000 OA
ATOM      9  C   UNL     1       2.594   6.802  19.512  0.00  0.00    +0.000 C 
ATOM     10  C   UNL     1       2.973   7.052  18.072  0.00  0.00    +0.000 C 
ATOM     11  C   UNL     1       3.931   5.965  17.686  0.00  0.00    +0.000 C 
ATOM     12  O   UNL     1       4.937   6.187  17.019  0.00  0.00    +0.000 OA
ENDROOT
BRANCH   5  13
ATOM     13  N   UNL     1       5.086   3.524  16.523  0.00  0.00    +0.000 N 
ATOM     14  H   UNL     1       6.000   3.116  16.683  0.00  0.00    +0.000 HD
ATOM     15  H   UNL     1       5.141   4.471  16.128  0.00  0.00    +0.000 HD
ENDBRANCH   5  13
TORSDOF 1
ENDMDL
MODEL 9
REMARK VINA RESULT:      -5.7      3.332      4.842
REMARK  Name = 
REMARK  2 active torsions:
REMARK  status: ('A' for Active; 'I' for Inactive)
REMARK    1  A    between atoms: C_1  and  C_2
REMARK    2  A    between atoms: C_5  and  N_6
REMARK                            x       y       z     vdW  Elec       q    Type
REMARK                         _______ _______ _______ _____ _____    ______ ____
ROOT
ATOM      1  C   UNL     1       4.267   7.053  17.430  0.00  0.00    +0.000 C 
ATOM      2  C   UNL     1       4.021   5.585  17.627  0.00  0.00    +0.000 A 
ATOM      3  C   UNL     1       4.548   4.658  16.721  0.00  0.00    +0.000 A 
ATOM      4  C   UNL     1       4.354   3.286  16.909  0.00  0.00    +0.000 A 
ATOM      5  C   UNL     1       3.604   2.803  17.986  0.00  0.00    +0.000 A 
ATOM      6  C   UNL     1       3.100   3.734  18.913  0.00  0.00    +0.000 A 
ATOM      7  C   UNL     1       3.283   5.115  18.725  0.00  0.00    +0.000 A 
ATOM      8  O   UNL     1       2.812   6.068  19.597  0.00  0.00    +0.000 OA
ATOM      9  C   UNL     1       1.767   5.609  20.458  0.00  0.00    +0.000 C 
ATOM     10  C   UNL     1       2.168   4.344  21.179  0.00  0.00    +0.000 C 
ATOM     11  C   UNL     1       2.366   3.295  20.127  0.00  0.00    +0.000 C 
ATOM     12  O   UNL     1       1.965   2.144  20.268  0.00  0.00    +0.000 OA
ENDROOT
BRANCH   5  13
ATOM     13  N   UNL     1       3.602   1.418  18.231  0.00  0.00    +0.000 N 
ATOM     14  H   UNL     1       2.885   0.898  17.739  0.00  0.00    +0.000 HD
ATOM     15  H   UNL     1       3.625   1.205  19.236  0.00  0.00    +0.000 HD
ENDBRANCH   5  13
TORSDOF 1
ENDMDL
