MODEL 1
REMARK VINA RESULT:      -7.4      0.000      0.000
REMARK  Name = 
REMARK  6 active torsions:
REMARK  status: ('A' for Active; 'I' for Inactive)
REMARK    1  A    between atoms: C_1  and  C_2
REMARK    2  A    between atoms: C_3  and  C_4
REMARK    3  A    between atoms: C_4  and  N_5
REMARK    4  A    between atoms: N_8  and  C_9
REMARK    5  A    between atoms: C_13  and  C_14
REMARK    6  A    between atoms: N_21  and  C_22
REMARK                            x       y       z     vdW  Elec       q    Type
REMARK                         _______ _______ _______ _____ _____    ______ ____
ROOT
ATOM      1  C   UNL     1       5.445   7.424  16.563  0.00  0.00    +0.000 C 
ATOM      2  C   UNL     1       5.080   6.140  17.242  0.00  0.00    +0.000 A 
ATOM      3  C   UNL     1       5.752   4.935  17.130  0.00  0.00    +0.000 A 
ATOM      4  C   UNL     1       5.062   4.012  17.942  0.00  0.00    +0.000 A 
ATOM      5  C   UNL     1       3.989   4.629  18.571  0.00  0.00    +0.000 A 
ATOM      6  N   UNL     1       3.989   5.974  18.116  0.00  0.00    +0.000 N 
ENDROOT
BRANCH   5   7
ATOM      7  C   UNL     1       2.975   3.944  19.436  0.00  0.00    +0.000 A 
ATOM      8  C   UNL     1       3.317   3.552  20.746  0.00  0.00    +0.000 A 
ATOM      9  C   UNL     1       2.451   2.796  21.548  0.00  0.00    +0.000 A 
ATOM     10  C   UNL     1       1.167   2.518  21.111  0.00  0.00    +0.000 A 
ATOM     11  C   UNL     1       0.754   2.986  19.867  0.00  0.00    +0.000 A 
ATOM     12  C   UNL     1       1.649   3.669  19.025  0.00  0.00    +0.000 A 
ATOM     13 CL   UNL     1       1.007   4.085  17.469  0.00  0.00    +0.000 Cl
ENDBRANCH   5   7
BRANCH   6  14
ATOM     14  C   UNL     1       3.046   7.008  18.459  0.00  0.00    +0.000 A 
ATOM     15  C   UNL     1       2.661   7.960  17.515  0.00  0.00    +0.000 A 
ATOM     16  C   UNL     1       1.849   9.038  17.903  0.00  0.00    +0.000 A 
ATOM     17  C   UNL     1       1.364   9.104  19.198  0.00  0.00    +0.000 A 
ATOM     18  F   UNL     1       0.580  10.132  19.553  0.00  0.00    +0.000 F 
ATOM     19  C   UNL     1       1.685   8.135  20.134  0.00  0.00    +0.000 A 
ATOM     20  C   UNL     1       2.558   7.103  19.775  0.00  0.00    +0.000 A 
ENDBRANCH   6  14
BRANCH   3  21
ATOM     21  C   UNL     1       6.941   4.620  16.269  0.00  0.00    +0.000 C 
BRANCH  21  22
ATOM     22  N   UNL     1       6.583   4.761  14.852  0.00  0.00    +0.000 NA
ATOM     23  C   UNL     1       5.752   3.623  14.413  0.00  0.00    +0.000 C 
ATOM     24  C   UNL     1       5.357   3.734  12.920  0.00  0.00    +0.000 C 
ATOM     25  N   UNL     1       6.481   3.935  11.979  0.00  0.00    +0.000 NA
ATOM     26  C   UNL     1       7.253   2.713  11.783  0.00  0.00    +0.000 C 
ATOM     27  C   UNL     1       7.328   5.031  12.481  0.00  0.00    +0.000 C 
ATOM     28  C   UNL     1       7.748   4.888  13.958  0.00  0.00    +0.000 C 
ENDBRANCH  21  22
ENDBRANCH   3  21
TORSDOF 4
ENDMDL
MODEL 2
REMARK VINA RESULT:      -7.2      1.178      1.744
REMARK  Name = 
REMARK  6 active torsions:
REMARK  status: ('A' for Active; 'I' for Inactive)
REMARK    1  A    between atoms: C_1  and  C_2
REMARK    2  A    between atoms: C_3  and  C_4
REMARK    3  A    between atoms: C_4  and  N_5
REMARK    4  A    between atoms: N_8  and  C_9
REMARK    5  A    between atoms: C_13  and  C_14
REMARK    6  A    between atoms: N_21  and  C_22
REMARK                            x       y       z     vdW  Elec       q    Type
REMARK                         _______ _______ _______ _____ _____    ______ ____
ROOT
ATOM      1  C   UNL     1       5.819   7.552  16.838  0.00  0.00    +0.000 C 
ATOM      2  C   UNL     1       5.288   6.174  17.081  0.00  0.00    +0.000 A 
ATOM      3  C   UNL     1       5.854   4.989  16.641  0.00  0.00    +0.000 A 
ATOM      4  C   UNL     1       5.024   3.949  17.106  0.00  0.00    +0.000 A 
ATOM      5  C   UNL     1       3.968   4.466  17.844  0.00  0.00    +0.000 A 
ATOM      6  N   UNL     1       4.125   5.877  17.816  0.00  0.00    +0.000 N 
ENDROOT
BRANCH   5   7
ATOM      7  C   UNL     1       2.834   3.672  18.418  0.00  0.00    +0.000 A 
ATOM      8  C   UNL     1       1.533   3.828  17.899  0.00  0.00    +0.000 A 
ATOM      9  C   UNL     1       0.419   3.209  18.483  0.00  0.00    +0.000 A 
ATOM     10  C   UNL     1       0.590   2.314  19.525  0.00  0.00    +0.000 A 
ATOM     11  C   UNL     1       1.873   2.048  19.992  0.00  0.00    +0.000 A 
ATOM     12  C   UNL     1       2.983   2.734  19.466  0.00  0.00    +0.000 A 
ATOM     13 CL   UNL     1       4.493   2.365  20.234  0.00  0.00    +0.000 Cl
ENDBRANCH   5   7
BRANCH   6  14
ATOM     14  C   UNL     1       3.258   6.861  18.414  0.00  0.00    +0.000 A 
ATOM     15  C   UNL     1       2.832   6.723  19.735  0.00  0.00    +0.000 A 
ATOM     16  C   UNL     1       1.882   7.615  20.257  0.00  0.00    +0.000 A 
ATOM     17  C   UNL     1       1.438   8.677  19.488  0.00  0.00    +0.000 A 
ATOM     18  F   UNL     1       0.539   9.529  20.002  0.00  0.00    +0.000 F 
ATOM     19  C   UNL     1       1.895   8.866  18.195  0.00  0.00    +0.000 A 
ATOM     20  C   UNL     1       2.781   7.936  17.641  0.00  0.00    +0.000 A 
ENDBRANCH   6  14
BRANCH   3  21
ATOM     21  C   UNL     1       7.070   4.814  15.777  0.00  0.00    +0.000 C 
BRANCH  21  22
ATOM     22  N   UNL     1       6.679   4.802  14.361  0.00  0.00    +0.000 NA
ATOM     23  C   UNL     1       5.894   3.591  14.052  0.00  0.00    +0.000 C 
ATOM     24  C   UNL     1       5.466   3.540  12.565  0.00  0.00    +0.000 C 
ATOM     25  N   UNL     1       6.562   3.700  11.584  0.00  0.00    +0.000 NA
ATOM     26  C   UNL     1       7.386   2.500  11.487  0.00  0.00    +0.000 C 
ATOM     27  C   UNL     1       7.367   4.875  11.959  0.00  0.00    +0.000 C 
ATOM     28  C   UNL     1       7.821   4.894  13.433  0.00  0.00    +0.000 C 
ENDBRANCH  21  22
ENDBRANCH   3  21
TORSDOF 4
ENDMDL
MODEL 3
REMARK VINA RESULT:      -7.1      3.241      7.139
REMARK  Name = 
REMARK  6 active torsions:
REMARK  status: ('A' for Active; 'I' for Inactive)
REMARK    1  A    between atoms: C_1  and  C_2
REMARK    2  A    between atoms: C_3  and  C_4
REMARK    3  A    between atoms: C_4  and  N_5
REMARK    4  A    between atoms: N_8  and  C_9
REMARK    5  A    between atoms: C_13  and  C_14
REMARK    6  A    between atoms: N_21  and  C_22
REMARK                            x       y       z     vdW  Elec       q    Type
REMARK                         _______ _______ _______ _____ _____    ______ ____
ROOT
ATOM      1  C   UNL     1       4.279   8.543  17.102  0.00  0.00    +0.000 C 
ATOM      2  C   UNL     1       3.299   7.676  17.830  0.00  0.00    +0.000 A 
ATOM      3  C   UNL     1       1.990   8.002  18.141  0.00  0.00    +0.000 A 
ATOM      4  C   UNL     1       1.447   6.890  18.817  0.00  0.00    +0.000 A 
ATOM      5  C   UNL     1       2.388   5.873  18.909  0.00  0.00    +0.000 A 
ATOM      6  N   UNL     1       3.568   6.376  18.298  0.00  0.00    +0.000 N 
ENDROOT
BRANCH   5   7
ATOM      7  C   UNL     1       2.204   4.579  19.639  0.00  0.00    +0.000 A 
ATOM      8  C   UNL     1       2.079   4.573  21.043  0.00  0.00    +0.000 A 
ATOM      9  C   UNL     1       2.034   3.384  21.783  0.00  0.00    +0.000 A 
ATOM     10  C   UNL     1       1.985   2.163  21.132  0.00  0.00    +0.000 A 
ATOM     11  C   UNL     1       1.993   2.132  19.740  0.00  0.00    +0.000 A 
ATOM     12  C   UNL     1       2.126   3.319  18.998  0.00  0.00    +0.000 A 
ATOM     13 CL   UNL     1       2.229   3.093  17.282  0.00  0.00    +0.000 Cl
ENDBRANCH   5   7
BRANCH   6  14
ATOM     14  C   UNL     1       4.837   5.704  18.174  0.00  0.00    +0.000 A 
ATOM     15  C   UNL     1       5.752   5.713  19.226  0.00  0.00    +0.000 A 
ATOM     16  C   UNL     1       7.034   5.172  19.040  0.00  0.00    +0.000 A 
ATOM     17  C   UNL     1       7.354   4.555  17.842  0.00  0.00    +0.000 A 
ATOM     18  F   UNL     1       8.578   4.032  17.680  0.00  0.00    +0.000 F 
ATOM     19  C   UNL     1       6.438   4.482  16.806  0.00  0.00    +0.000 A 
ATOM     20  C   UNL     1       5.187   5.090  16.957  0.00  0.00    +0.000 A 
ENDBRANCH   6  14
BRANCH   3  21
ATOM     21  C   UNL     1       1.279   9.301  17.889  0.00  0.00    +0.000 C 
BRANCH  21  22
ATOM     22  N   UNL     1       1.355  10.152  19.083  0.00  0.00    +0.000 NA
ATOM     23  C   UNL     1       0.177   9.940  19.945  0.00  0.00    +0.000 C 
ATOM     24  C   UNL     1       0.219  10.825  21.216  0.00  0.00    +0.000 C 
ATOM     25  N   UNL     1       0.419  12.271  20.975  0.00  0.00    +0.000 NA
ATOM     26  C   UNL     1      -0.786  12.908  20.454  0.00  0.00    +0.000 C 
ATOM     27  C   UNL     1       1.558  12.445  20.057  0.00  0.00    +0.000 C 
ATOM     28  C   UNL     1       1.484  11.589  18.778  0.00  0.00    +0.000 C 
ENDBRANCH  21  22
ENDBRANCH   3  21
TORSDOF 4
ENDMDL
MODEL 4
REMARK VINA RESULT:      -6.9      6.867      9.287
REMARK  Name = 
REMARK  6 active torsions:
REMARK  status: ('A' for Active; 'I' for Inactive)
REMARK    1  A    between atoms: C_1  and  C_2
REMARK    2  A    between atoms: C_3  and  C_4
REMARK    3  A    between atoms: C_4  and  N_5
REMARK    4  A    between atoms: N_8  and  C_9
REMARK    5  A    between atoms: C_13  and  C_14
REMARK    6  A    between atoms: N_21  and  C_22
REMARK                            x       y       z     vdW  Elec       q    Type
REMARK                         _______ _______ _______ _____ _____    ______ ____
ROOT
ATOM      1  C   UNL     1      -0.420  15.392  18.617  0.00  0.00    +0.000 C 
ATOM      2  C   UNL     1       0.399  14.269  19.172  0.00  0.00    +0.000 A 
ATOM      3  C   UNL     1       1.751  14.310  19.469  0.00  0.00    +0.000 A 
ATOM      4  C   UNL     1       2.093  13.037  19.971  0.00  0.00    +0.000 A 
ATOM      5  C   UNL     1       0.973  12.217  20.011  0.00  0.00    +0.000 A 
ATOM      6  N   UNL     1      -0.098  12.991  19.490  0.00  0.00    +0.000 N 
ENDROOT
BRANCH   5   7
ATOM      7  C   UNL     1       0.967  10.770  20.398  0.00  0.00    +0.000 A 
ATOM      8  C   UNL     1       0.530  10.386  21.682  0.00  0.00    +0.000 A 
ATOM      9  C   UNL     1       0.626   9.064  22.138  0.00  0.00    +0.000 A 
ATOM     10  C   UNL     1       1.043   8.063  21.278  0.00  0.00    +0.000 A 
ATOM     11  C   UNL     1       1.376   8.386  19.966  0.00  0.00    +0.000 A 
ATOM     12  C   UNL     1       1.364   9.723  19.532  0.00  0.00    +0.000 A 
ATOM     13 CL   UNL     1       1.911   9.962  17.905  0.00  0.00    +0.000 Cl
ENDBRANCH   5   7
BRANCH   6  14
ATOM     14  C   UNL     1      -1.462  12.568  19.295  0.00  0.00    +0.000 A 
ATOM     15  C   UNL     1      -1.832  11.866  18.149  0.00  0.00    +0.000 A 
ATOM     16  C   UNL     1      -3.186  11.582  17.912  0.00  0.00    +0.000 A 
ATOM     17  C   UNL     1      -4.138  11.924  18.858  0.00  0.00    +0.000 A 
ATOM     18  F   UNL     1      -5.427  11.637  18.625  0.00  0.00    +0.000 F 
ATOM     19  C   UNL     1      -3.783  12.568  20.031  0.00  0.00    +0.000 A 
ATOM     20  C   UNL     1      -2.446  12.925  20.236  0.00  0.00    +0.000 A 
ENDBRANCH   6  14
BRANCH   3  21
ATOM     21  C   UNL     1       2.709  15.445  19.247  0.00  0.00    +0.000 C 
BRANCH  21  22
ATOM     22  N   UNL     1       4.084  14.933  19.184  0.00  0.00    +0.000 NA
ATOM     23  C   UNL     1       4.916  15.556  20.232  0.00  0.00    +0.000 C 
ATOM     24  C   UNL     1       6.377  15.043  20.195  0.00  0.00    +0.000 C 
ATOM     25  N   UNL     1       7.052  15.144  18.882  0.00  0.00    +0.000 NA
ATOM     26  C   UNL     1       7.425  16.518  18.565  0.00  0.00    +0.000 C 
ATOM     27  C   UNL     1       6.168  14.576  17.850  0.00  0.00    +0.000 C 
ATOM     28  C   UNL     1       4.727  15.125  17.872  0.00  0.00    +0.000 C 
ENDBRANCH  21  22
ENDBRANCH   3  21
TORSDOF 4
ENDMDL
MODEL 5
REMARK VINA RESULT:      -6.9      6.223     11.110
REMARK  Name = 
REMARK  6 active torsions:
REMARK  status: ('A' for Active; 'I' for Inactive)
REMARK    1  A    between atoms: C_1  and  C_2
REMARK    2  A    between atoms: C_3  and  C_4
REMARK    3  A    between atoms: C_4  and  N_5
REMARK    4  A    between atoms: N_8  and  C_9
REMARK    5  A    between atoms: C_13  and  C_14
REMARK    6  A    between atoms: N_21  and  C_22
REMARK                            x       y       z     vdW  Elec       q    Type
REMARK                         _______ _______ _______ _____ _____    ______ ____
ROOT
ATOM      1  C   UNL     1      -1.102  14.737  19.954  0.00  0.00    +0.000 C 
ATOM      2  C   UNL     1      -1.027  13.256  19.748  0.00  0.00    +0.000 A 
ATOM      3  C   UNL     1      -2.097  12.377  19.718  0.00  0.00    +0.000 A 
ATOM      4  C   UNL     1      -1.559  11.093  19.493  0.00  0.00    +0.000 A 
ATOM      5  C   UNL     1      -0.178  11.164  19.362  0.00  0.00    +0.000 A 
ATOM      6  N   UNL     1       0.162  12.531  19.540  0.00  0.00    +0.000 N 
ENDROOT
BRANCH   5   7
ATOM      7  C   UNL     1       0.743   9.994  19.208  0.00  0.00    +0.000 A 
ATOM      8  C   UNL     1       1.399   9.771  17.980  0.00  0.00    +0.000 A 
ATOM      9  C   UNL     1       2.168   8.623  17.743  0.00  0.00    +0.000 A 
ATOM     10  C   UNL     1       2.407   7.724  18.769  0.00  0.00    +0.000 A 
ATOM     11  C   UNL     1       1.868   7.969  20.029  0.00  0.00    +0.000 A 
ATOM     12  C   UNL     1       1.026   9.074  20.246  0.00  0.00    +0.000 A 
ATOM     13 CL   UNL     1       0.351   9.169  21.840  0.00  0.00    +0.000 Cl
ENDBRANCH   5   7
BRANCH   6  14
ATOM     14  C   UNL     1       1.483  13.108  19.526  0.00  0.00    +0.000 A 
ATOM     15  C   UNL     1       2.162  13.355  20.719  0.00  0.00    +0.000 A 
ATOM     16  C   UNL     1       3.387  14.040  20.695  0.00  0.00    +0.000 A 
ATOM     17  C   UNL     1       3.957  14.390  19.482  0.00  0.00    +0.000 A 
ATOM     18  F   UNL     1       5.133  15.034  19.471  0.00  0.00    +0.000 F 
ATOM     19  C   UNL     1       3.327  14.099  18.284  0.00  0.00    +0.000 A 
ATOM     20  C   UNL     1       2.069  13.488  18.305  0.00  0.00    +0.000 A 
ENDBRANCH   6  14
BRANCH   3  21
ATOM     21  C   UNL     1      -3.549  12.686  19.946  0.00  0.00    +0.000 C 
BRANCH  21  22
ATOM     22  N   UNL     1      -3.717  13.376  21.231  0.00  0.00    +0.000 NA
ATOM     23  C   UNL     1      -3.171  12.558  22.332  0.00  0.00    +0.000 C 
ATOM     24  C   UNL     1      -3.334  13.252  23.707  0.00  0.00    +0.000 C 
ATOM     25  N   UNL     1      -4.706  13.695  24.035  0.00  0.00    +0.000 NA
ATOM     26  C   UNL     1      -5.571  12.574  24.391  0.00  0.00    +0.000 C 
ATOM     27  C   UNL     1      -5.248  14.449  22.891  0.00  0.00    +0.000 C 
ATOM     28  C   UNL     1      -5.116  13.730  21.534  0.00  0.00    +0.000 C 
ENDBRANCH  21  22
ENDBRANCH   3  21
TORSDOF 4
ENDMDL
MODEL 6
REMARK VINA RESULT:      -6.9      3.154      7.695
REMARK  Name = 
REMARK  6 active torsions:
REMARK  status: ('A' for Active; 'I' for Inactive)
REMARK    1  A    between atoms: C_1  and  C_2
REMARK    2  A    between atoms: C_3  and  C_4
REMARK    3  A    between atoms: C_4  and  N_5
REMARK    4  A    between atoms: N_8  and  C_9
REMARK    5  A    between atoms: C_13  and  C_14
REMARK    6  A    between atoms: N_21  and  C_22
REMARK                            x       y       z     vdW  Elec       q    Type
REMARK                         _______ _______ _______ _____ _____    ______ ____
ROOT
ATOM      1  C   UNL     1       0.958   7.516  19.503  0.00  0.00    +0.000 C 
ATOM      2  C   UNL     1       2.178   7.545  18.635  0.00  0.00    +0.000 A 
ATOM      3  C   UNL     1       2.721   8.661  18.022  0.00  0.00    +0.000 A 
ATOM      4  C   UNL     1       3.860   8.220  17.317  0.00  0.00    +0.000 A 
ATOM      5  C   UNL     1       4.044   6.856  17.502  0.00  0.00    +0.000 A 
ATOM      6  N   UNL     1       2.970   6.424  18.323  0.00  0.00    +0.000 N 
ENDROOT
BRANCH   5   7
ATOM      7  C   UNL     1       5.094   6.021  16.835  0.00  0.00    +0.000 A 
ATOM      8  C   UNL     1       5.080   5.858  15.435  0.00  0.00    +0.000 A 
ATOM      9  C   UNL     1       5.958   4.986  14.777  0.00  0.00    +0.000 A 
ATOM     10  C   UNL     1       6.961   4.347  15.486  0.00  0.00    +0.000 A 
ATOM     11  C   UNL     1       7.077   4.570  16.854  0.00  0.00    +0.000 A 
ATOM     12  C   UNL     1       6.144   5.377  17.530  0.00  0.00    +0.000 A 
ATOM     13 CL   UNL     1       6.369   5.461  19.247  0.00  0.00    +0.000 Cl
ENDBRANCH   5   7
BRANCH   6  14
ATOM     14  C   UNL     1       2.702   5.079  18.768  0.00  0.00    +0.000 A 
ATOM     15  C   UNL     1       2.026   4.180  17.944  0.00  0.00    +0.000 A 
ATOM     16  C   UNL     1       1.654   2.921  18.443  0.00  0.00    +0.000 A 
ATOM     17  C   UNL     1       2.035   2.547  19.721  0.00  0.00    +0.000 A 
ATOM     18  F   UNL     1       1.684   1.337  20.182  0.00  0.00    +0.000 F 
ATOM     19  C   UNL     1       2.759   3.403  20.533  0.00  0.00    +0.000 A 
ATOM     20  C   UNL     1       3.063   4.688  20.071  0.00  0.00    +0.000 A 
ENDBRANCH   6  14
BRANCH   3  21
ATOM     21  C   UNL     1       2.188  10.065  18.026  0.00  0.00    +0.000 C 
BRANCH  21  22
ATOM     22  N   UNL     1       0.981  10.139  18.860  0.00  0.00    +0.000 NA
ATOM     23  C   UNL     1      -0.204  10.428  18.029  0.00  0.00    +0.000 C 
ATOM     24  C   UNL     1      -1.498  10.518  18.873  0.00  0.00    +0.000 C 
ATOM     25  N   UNL     1      -1.443  11.449  20.022  0.00  0.00    +0.000 NA
ATOM     26  C   UNL     1      -1.509  12.843  19.597  0.00  0.00    +0.000 C 
ATOM     27  C   UNL     1      -0.216  11.180  20.791  0.00  0.00    +0.000 C 
ATOM     28  C   UNL     1       1.072  11.134  19.944  0.00  0.00    +0.000 C 
ENDBRANCH  21  22
ENDBRANCH   3  21
TORSDOF 4
ENDMDL
MODEL 7
REMARK VINA RESULT:      -6.8      8.891     11.806
REMARK  Name = 
REMARK  6 active torsions:
REMARK  status: ('A' for Active; 'I' for Inactive)
REMARK    1  A    between atoms: C_1  and  C_2
REMARK    2  A    between atoms: C_3  and  C_4
REMARK    3  A    between atoms: C_4  and  N_5
REMARK    4  A    between atoms: N_8  and  C_9
REMARK    5  A    between atoms: C_13  and  C_14
REMARK    6  A    between atoms: N_21  and  C_22
REMARK                            x       y       z     vdW  Elec       q    Type
REMARK                         _______ _______ _______ _____ _____    ______ ____
ROOT
ATOM      1  C   UNL     1       5.374  16.194  20.568  0.00  0.00    +0.000 C 
ATOM      2  C   UNL     1       6.075  15.393  19.516  0.00  0.00    +0.000 A 
ATOM      3  C   UNL     1       5.540  14.980  18.308  0.00  0.00    +0.000 A 
ATOM      4  C   UNL     1       6.554  14.264  17.640  0.00  0.00    +0.000 A 
ATOM      5  C   UNL     1       7.714  14.244  18.403  0.00  0.00    +0.000 A 
ATOM      6  N   UNL     1       7.407  14.945  19.599  0.00  0.00    +0.000 N 
ENDROOT
BRANCH   5   7
ATOM      7  C   UNL     1       8.969  13.501  18.061  0.00  0.00    +0.000 A 
ATOM      8  C   UNL     1       9.001  12.095  18.151  0.00  0.00    +0.000 A 
ATOM      9  C   UNL     1      10.182  11.363  17.968  0.00  0.00    +0.000 A 
ATOM     10  C   UNL     1      11.341  12.005  17.566  0.00  0.00    +0.000 A 
ATOM     11  C   UNL     1      11.320  13.381  17.357  0.00  0.00    +0.000 A 
ATOM     12  C   UNL     1      10.159  14.129  17.624  0.00  0.00    +0.000 A 
ATOM     13 CL   UNL     1      10.337  15.841  17.418  0.00  0.00    +0.000 Cl
ENDBRANCH   5   7
BRANCH   6  14
ATOM     14  C   UNL     1       8.280  15.168  20.725  0.00  0.00    +0.000 A 
ATOM     15  C   UNL     1       8.291  14.280  21.801  0.00  0.00    +0.000 A 
ATOM     16  C   UNL     1       9.044  14.583  22.946  0.00  0.00    +0.000 A 
ATOM     17  C   UNL     1       9.839  15.717  22.969  0.00  0.00    +0.000 A 
ATOM     18  F   UNL     1      10.563  15.989  24.064  0.00  0.00    +0.000 F 
ATOM     19  C   UNL     1       9.887  16.579  21.887  0.00  0.00    +0.000 A 
ATOM     20  C   UNL     1       9.078  16.325  20.774  0.00  0.00    +0.000 A 
ENDBRANCH   6  14
BRANCH   3  21
ATOM     21  C   UNL     1       4.138  15.178  17.807  0.00  0.00    +0.000 C 
BRANCH  21  22
ATOM     22  N   UNL     1       3.187  14.510  18.705  0.00  0.00    +0.000 NA
ATOM     23  C   UNL     1       2.800  13.193  18.162  0.00  0.00    +0.000 C 
ATOM     24  C   UNL     1       1.794  12.458  19.081  0.00  0.00    +0.000 C 
ATOM     25  N   UNL     1       0.587  13.231  19.446  0.00  0.00    +0.000 NA
ATOM     26  C   UNL     1      -0.354  13.332  18.335  0.00  0.00    +0.000 C 
ATOM     27  C   UNL     1       1.003  14.563  19.919  0.00  0.00    +0.000 C 
ATOM     28  C   UNL     1       1.973  15.301  18.976  0.00  0.00    +0.000 C 
ENDBRANCH  21  22
ENDBRANCH   3  21
TORSDOF 4
ENDMDL
MODEL 8
REMARK VINA RESULT:      -6.8      7.732      9.589
REMARK  Name = 
REMARK  6 active torsions:
REMARK  status: ('A' for Active; 'I' for Inactive)
REMARK    1  A    between atoms: C_1  and  C_2
REMARK    2  A    between atoms: C_3  and  C_4
REMARK    3  A    between atoms: C_4  and  N_5
REMARK    4  A    between atoms: N_8  and  C_9
REMARK    5  A    between atoms: C_13  and  C_14
REMARK    6  A    between atoms: N_21  and  C_22
REMARK                            x       y       z     vdW  Elec       q    Type
REMARK                         _______ _______ _______ _____ _____    ______ ____
ROOT
ATOM      1  C   UNL     1      -0.331  15.325  18.433  0.00  0.00    +0.000 C 
ATOM      2  C   UNL     1       0.202  14.325  19.411  0.00  0.00    +0.000 A 
ATOM      3  C   UNL     1       1.357  14.451  20.164  0.00  0.00    +0.000 A 
ATOM      4  C   UNL     1       1.459  13.281  20.945  0.00  0.00    +0.000 A 
ATOM      5  C   UNL     1       0.378  12.444  20.705  0.00  0.00    +0.000 A 
ATOM      6  N   UNL     1      -0.412  13.096  19.721  0.00  0.00    +0.000 N 
ENDROOT
BRANCH   5   7
ATOM      7  C   UNL     1       0.192  11.074  21.280  0.00  0.00    +0.000 A 
ATOM      8  C   UNL     1      -0.385  10.919  22.558  0.00  0.00    +0.000 A 
ATOM      9  C   UNL     1      -0.462   9.673  23.194  0.00  0.00    +0.000 A 
ATOM     10  C   UNL     1      -0.080   8.525  22.521  0.00  0.00    +0.000 A 
ATOM     11  C   UNL     1       0.390   8.625  21.215  0.00  0.00    +0.000 A 
ATOM     12  C   UNL     1       0.550   9.882  20.606  0.00  0.00    +0.000 A 
ATOM     13 CL   UNL     1       1.250   9.836  19.021  0.00  0.00    +0.000 Cl
ENDBRANCH   5   7
BRANCH   6  14
ATOM     14  C   UNL     1      -1.626  12.609  19.116  0.00  0.00    +0.000 A 
ATOM     15  C   UNL     1      -2.845  12.718  19.785  0.00  0.00    +0.000 A 
ATOM     16  C   UNL     1      -3.993  12.118  19.243  0.00  0.00    +0.000 A 
ATOM     17  C   UNL     1      -3.927  11.496  18.007  0.00  0.00    +0.000 A 
ATOM     18  F   UNL     1      -5.033  10.937  17.494  0.00  0.00    +0.000 F 
ATOM     19  C   UNL     1      -2.739  11.431  17.300  0.00  0.00    +0.000 A 
ATOM     20  C   UNL     1      -1.575  11.957  17.871  0.00  0.00    +0.000 A 
ENDBRANCH   6  14
BRANCH   3  21
ATOM     21  C   UNL     1       2.362  15.566  20.130  0.00  0.00    +0.000 C 
BRANCH  21  22
ATOM     22  N   UNL     1       3.681  15.038  19.759  0.00  0.00    +0.000 NA
ATOM     23  C   UNL     1       4.716  15.532  20.688  0.00  0.00    +0.000 C 
ATOM     24  C   UNL     1       6.124  15.000  20.327  0.00  0.00    +0.000 C 
ATOM     25  N   UNL     1       6.548  15.225  18.927  0.00  0.00    +0.000 NA
ATOM     26  C   UNL     1       6.907  16.619  18.685  0.00  0.00    +0.000 C 
ATOM     27  C   UNL     1       5.467  14.786  18.028  0.00  0.00    +0.000 C 
ATOM     28  C   UNL     1       4.077  15.355  18.375  0.00  0.00    +0.000 C 
ENDBRANCH  21  22
ENDBRANCH   3  21
TORSDOF 4
ENDMDL
MODEL 9
REMARK VINA RESULT:      -6.8      3.328      7.746
REMARK  Name = 
REMARK  6 active torsions:
REMARK  status: ('A' for Active; 'I' for Inactive)
REMARK    1  A    between atoms: C_1  and  C_2
REMARK    2  A    between atoms: C_3  and  C_4
REMARK    3  A    between atoms: C_4  and  N_5
REMARK    4  A    between atoms: N_8  and  C_9
REMARK    5  A    between atoms: C_13  and  C_14
REMARK    6  A    between atoms: N_21  and  C_22
REMARK                            x       y       z     vdW  Elec       q    Type
REMARK                         _______ _______ _______ _____ _____    ______ ____
ROOT
ATOM      1  C   UNL     1       0.768   8.070  20.220  0.00  0.00    +0.000 C 
ATOM      2  C   UNL     1       1.830   7.846  19.188  0.00  0.00    +0.000 A 
ATOM      3  C   UNL     1       2.334   8.792  18.312  0.00  0.00    +0.000 A 
ATOM      4  C   UNL     1       3.313   8.141  17.534  0.00  0.00    +0.000 A 
ATOM      5  C   UNL     1       3.439   6.815  17.927  0.00  0.00    +0.000 A 
ATOM      6  N   UNL     1       2.489   6.622  18.964  0.00  0.00    +0.000 N 
ENDROOT
BRANCH   5   7
ATOM      7  C   UNL     1       4.312   5.791  17.270  0.00  0.00    +0.000 A 
ATOM      8  C   UNL     1       3.770   4.548  16.882  0.00  0.00    +0.000 A 
ATOM      9  C   UNL     1       4.569   3.510  16.383  0.00  0.00    +0.000 A 
ATOM     10  C   UNL     1       5.914   3.727  16.137  0.00  0.00    +0.000 A 
ATOM     11  C   UNL     1       6.463   4.978  16.402  0.00  0.00    +0.000 A 
ATOM     12  C   UNL     1       5.683   5.993  16.984  0.00  0.00    +0.000 A 
ATOM     13 CL   UNL     1       6.548   7.451  17.350  0.00  0.00    +0.000 Cl
ENDBRANCH   5   7
BRANCH   6  14
ATOM     14  C   UNL     1       2.214   5.399  19.676  0.00  0.00    +0.000 A 
ATOM     15  C   UNL     1       1.316   4.464  19.161  0.00  0.00    +0.000 A 
ATOM     16  C   UNL     1       0.957   3.346  19.929  0.00  0.00    +0.000 A 
ATOM     17  C   UNL     1       1.561   3.131  21.157  0.00  0.00    +0.000 A 
ATOM     18  F   UNL     1       1.219   2.052  21.876  0.00  0.00    +0.000 F 
ATOM     19  C   UNL     1       2.501   4.015  21.658  0.00  0.00    +0.000 A 
ATOM     20  C   UNL     1       2.803   5.173  20.934  0.00  0.00    +0.000 A 
ENDBRANCH   6  14
BRANCH   3  21
ATOM     21  C   UNL     1       1.897  10.219  18.147  0.00  0.00    +0.000 C 
BRANCH  21  22
ATOM     22  N   UNL     1       0.862  10.543  19.138  0.00  0.00    +0.000 NA
ATOM     23  C   UNL     1      -0.406  10.888  18.466  0.00  0.00    +0.000 C 
ATOM     24  C   UNL     1      -1.523  11.240  19.479  0.00  0.00    +0.000 C 
ATOM     25  N   UNL     1      -1.174  12.279  20.472  0.00  0.00    +0.000 NA
ATOM     26  C   UNL     1      -1.157  13.614  19.881  0.00  0.00    +0.000 C 
ATOM     27  C   UNL     1       0.127  11.943  21.074  0.00  0.00    +0.000 C 
ATOM     28  C   UNL     1       1.242  11.634  20.054  0.00  0.00    +0.000 C 
ENDBRANCH  21  22
ENDBRANCH   3  21
TORSDOF 4
ENDMDL
