MODEL 1
REMARK VINA RESULT:      -9.7      0.000      0.000
REMARK  Name = 
REMARK  4 active torsions:
REMARK  status: ('A' for Active; 'I' for Inactive)
REMARK    1  A    between atoms: C_7  and  C_8
REMARK    2  A    between atoms: C_13  and  C_14
REMARK    3  A    between atoms: C_17  and  C_18
REMARK    4  A    between atoms: C_18  and  C_20
REMARK                            x       y       z     vdW  Elec       q    Type
REMARK                         _______ _______ _______ _____ _____    ______ ____
ROOT
ATOM      1  N   UNL     1       0.963   4.467  20.157  0.00  0.00    +0.000 N 
ATOM      2  C   UNL     1       1.914   3.829  19.418  0.00  0.00    +0.000 A 
ATOM      3  N   UNL     1       1.950   2.528  19.574  0.00  0.00    +0.000 NA
ATOM      4  C   UNL     1       2.843   1.786  18.841  0.00  0.00    +0.000 A 
ATOM      5  C   UNL     1       3.701   2.310  17.955  0.00  0.00    +0.000 A 
ATOM      6  N   UNL     1       3.705   3.682  17.780  0.00  0.00    +0.000 N 
ATOM      7  C   UNL     1       4.465   4.504  16.980  0.00  0.00    +0.000 A 
ATOM      8  N   UNL     1       4.092   5.761  17.108  0.00  0.00    +0.000 NA
ATOM      9  C   UNL     1       3.128   5.773  18.097  0.00  0.00    +0.000 A 
ATOM     10  C   UNL     1       2.835   4.480  18.496  0.00  0.00    +0.000 A 
ATOM     11  H   UNL     1       0.324   3.799  20.578  0.00  0.00    +0.000 HD
ATOM     12  H   UNL     1       0.480   5.220  19.680  0.00  0.00    +0.000 HD
ENDROOT
BRANCH   9  13
ATOM     13  C   UNL     1       2.543   7.015  18.574  0.00  0.00    +0.000 A 
ATOM     14  C   UNL     1       2.336   8.080  17.686  0.00  0.00    +0.000 A 
ATOM     15  C   UNL     1       1.694   9.249  18.116  0.00  0.00    +0.000 A 
ATOM     16  C   UNL     1       1.241   9.364  19.437  0.00  0.00    +0.000 A 
ATOM     17  C   UNL     1       1.474   8.316  20.330  0.00  0.00    +0.000 A 
ATOM     18  C   UNL     1       2.175   7.183  19.912  0.00  0.00    +0.000 A 
BRANCH  16  19
ATOM     19  C   UNL     1       0.471  10.575  19.829  0.00  0.00    +0.000 C 
ATOM     20  O   UNL     1       0.988  11.385  20.595  0.00  0.00    +0.000 OA
BRANCH  19  21
ATOM     21  C   UNL     1      -0.890  10.857  19.301  0.00  0.00    +0.000 A 
ATOM     22  C   UNL     1      -1.347  10.108  18.210  0.00  0.00    +0.000 A 
ATOM     23  C   UNL     1      -2.612  10.352  17.670  0.00  0.00    +0.000 A 
ATOM     24  C   UNL     1      -3.421  11.345  18.218  0.00  0.00    +0.000 A 
ATOM     25  C   UNL     1      -2.968  12.103  19.298  0.00  0.00    +0.000 A 
ATOM     26  C   UNL     1      -1.699  11.869  19.832  0.00  0.00    +0.000 A 
ENDBRANCH  19  21
ENDBRANCH  16  19
ENDBRANCH   9  13
BRANCH   7  27
ATOM     27  C   UNL     1       5.643   4.060  16.116  0.00  0.00    +0.000 C 
ATOM     28  C   UNL     1       5.533   4.456  14.613  0.00  0.00    +0.000 C 
ATOM     29  C   UNL     1       7.040   4.775  14.654  0.00  0.00    +0.000 C 
ATOM     30  C   UNL     1       6.857   5.039  16.156  0.00  0.00    +0.000 C 
ENDBRANCH   7  27
TORSDOF 4
ENDMDL
MODEL 2
REMARK VINA RESULT:      -9.5      0.902      1.310
REMARK  Name = 
REMARK  4 active torsions:
REMARK  status: ('A' for Active; 'I' for Inactive)
REMARK    1  A    between atoms: C_7  and  C_8
REMARK    2  A    between atoms: C_13  and  C_14
REMARK    3  A    between atoms: C_17  and  C_18
REMARK    4  A    between atoms: C_18  and  C_20
REMARK                            x       y       z     vdW  Elec       q    Type
REMARK                         _______ _______ _______ _____ _____    ______ ____
ROOT
ATOM      1  N   UNL     1       1.237   5.100  20.771  0.00  0.00    +0.000 N 
ATOM      2  C   UNL     1       2.296   4.466  20.192  0.00  0.00    +0.000 A 
ATOM      3  N   UNL     1       2.500   3.241  20.614  0.00  0.00    +0.000 NA
ATOM      4  C   UNL     1       3.514   2.500  20.061  0.00  0.00    +0.000 A 
ATOM      5  C   UNL     1       4.331   2.948  19.097  0.00  0.00    +0.000 A 
ATOM      6  N   UNL     1       4.157   4.242  18.643  0.00  0.00    +0.000 N 
ATOM      7  C   UNL     1       4.833   4.985  17.701  0.00  0.00    +0.000 A 
ATOM      8  N   UNL     1       4.288   6.176  17.562  0.00  0.00    +0.000 NA
ATOM      9  C   UNL     1       3.292   6.253  18.515  0.00  0.00    +0.000 A 
ATOM     10  C   UNL     1       3.158   5.039  19.168  0.00  0.00    +0.000 A 
ATOM     11  H   UNL     1       0.677   4.449  21.311  0.00  0.00    +0.000 HD
ATOM     12  H   UNL     1       0.678   5.666  20.142  0.00  0.00    +0.000 HD
ENDROOT
BRANCH   9  13
ATOM     13  C   UNL     1       2.525   7.471  18.717  0.00  0.00    +0.000 A 
ATOM     14  C   UNL     1       2.340   8.368  17.656  0.00  0.00    +0.000 A 
ATOM     15  C   UNL     1       1.531   9.501  17.817  0.00  0.00    +0.000 A 
ATOM     16  C   UNL     1       0.889   9.746  19.038  0.00  0.00    +0.000 A 
ATOM     17  C   UNL     1       1.098   8.870  20.105  0.00  0.00    +0.000 A 
ATOM     18  C   UNL     1       1.960   7.781  19.957  0.00  0.00    +0.000 A 
BRANCH  16  19
ATOM     19  C   UNL     1      -0.044  10.900  19.140  0.00  0.00    +0.000 C 
ATOM     20  O   UNL     1       0.346  11.934  19.679  0.00  0.00    +0.000 OA
BRANCH  19  21
ATOM     21  C   UNL     1      -1.422  10.859  18.583  0.00  0.00    +0.000 A 
ATOM     22  C   UNL     1      -2.364  11.770  19.078  0.00  0.00    +0.000 A 
ATOM     23  C   UNL     1      -3.675  11.756  18.596  0.00  0.00    +0.000 A 
ATOM     24  C   UNL     1      -4.049  10.830  17.623  0.00  0.00    +0.000 A 
ATOM     25  C   UNL     1      -3.119   9.913  17.135  0.00  0.00    +0.000 A 
ATOM     26  C   UNL     1      -1.809   9.917  17.622  0.00  0.00    +0.000 A 
ENDBRANCH  19  21
ENDBRANCH  16  19
ENDBRANCH   9  13
BRANCH   7  27
ATOM     27  C   UNL     1       6.094   4.544  16.963  0.00  0.00    +0.000 C 
ATOM     28  C   UNL     1       5.844   3.957  15.541  0.00  0.00    +0.000 C 
ATOM     29  C   UNL     1       7.104   4.714  15.078  0.00  0.00    +0.000 C 
ATOM     30  C   UNL     1       6.825   5.704  16.219  0.00  0.00    +0.000 C 
ENDBRANCH   7  27
TORSDOF 4
ENDMDL
MODEL 3
REMARK VINA RESULT:      -9.4      1.286      1.898
REMARK  Name = 
REMARK  4 active torsions:
REMARK  status: ('A' for Active; 'I' for Inactive)
REMARK    1  A    between atoms: C_7  and  C_8
REMARK    2  A    between atoms: C_13  and  C_14
REMARK    3  A    between atoms: C_17  and  C_18
REMARK    4  A    between atoms: C_18  and  C_20
REMARK                            x       y       z     vdW  Elec       q    Type
REMARK                         _______ _______ _______ _____ _____    ______ ____
ROOT
ATOM      1  N   UNL     1       0.894   4.234  20.134  0.00  0.00    +0.000 N 
ATOM      2  C   UNL     1       1.876   3.662  19.381  0.00  0.00    +0.000 A 
ATOM      3  N   UNL     1       1.923   2.353  19.441  0.00  0.00    +0.000 NA
ATOM      4  C   UNL     1       2.848   1.677  18.684  0.00  0.00    +0.000 A 
ATOM      5  C   UNL     1       3.728   2.274  17.868  0.00  0.00    +0.000 A 
ATOM      6  N   UNL     1       3.720   3.655  17.796  0.00  0.00    +0.000 N 
ATOM      7  C   UNL     1       4.497   4.542  17.086  0.00  0.00    +0.000 A 
ATOM      8  N   UNL     1       4.104   5.782  17.295  0.00  0.00    +0.000 NA
ATOM      9  C   UNL     1       3.109   5.711  18.250  0.00  0.00    +0.000 A 
ATOM     10  C   UNL     1       2.818   4.389  18.541  0.00  0.00    +0.000 A 
ATOM     11  H   UNL     1       0.250   3.530  20.482  0.00  0.00    +0.000 HD
ATOM     12  H   UNL     1       0.418   5.015  19.699  0.00  0.00    +0.000 HD
ENDROOT
BRANCH   9  13
ATOM     13  C   UNL     1       2.494   6.908  18.798  0.00  0.00    +0.000 A 
ATOM     14  C   UNL     1       2.157   7.974  17.953  0.00  0.00    +0.000 A 
ATOM     15  C   UNL     1       1.485   9.096  18.457  0.00  0.00    +0.000 A 
ATOM     16  C   UNL     1       1.133   9.161  19.812  0.00  0.00    +0.000 A 
ATOM     17  C   UNL     1       1.496   8.113  20.661  0.00  0.00    +0.000 A 
ATOM     18  C   UNL     1       2.225   7.031  20.164  0.00  0.00    +0.000 A 
BRANCH  16  19
ATOM     19  C   UNL     1       0.330  10.318  20.290  0.00  0.00    +0.000 C 
ATOM     20  O   UNL     1      -0.475  10.146  21.203  0.00  0.00    +0.000 OA
BRANCH  19  21
ATOM     21  C   UNL     1       0.489  11.684  19.725  0.00  0.00    +0.000 A 
ATOM     22  C   UNL     1       1.586  12.450  20.140  0.00  0.00    +0.000 A 
ATOM     23  C   UNL     1       1.764  13.745  19.649  0.00  0.00    +0.000 A 
ATOM     24  C   UNL     1       0.847  14.279  18.744  0.00  0.00    +0.000 A 
ATOM     25  C   UNL     1      -0.253  13.526  18.336  0.00  0.00    +0.000 A 
ATOM     26  C   UNL     1      -0.441  12.234  18.834  0.00  0.00    +0.000 A 
ENDBRANCH  19  21
ENDBRANCH  16  19
ENDBRANCH   9  13
BRANCH   7  27
ATOM     27  C   UNL     1       5.707   4.175  16.230  0.00  0.00    +0.000 C 
ATOM     28  C   UNL     1       5.519   4.415  14.702  0.00  0.00    +0.000 C 
ATOM     29  C   UNL     1       6.973   4.927  14.670  0.00  0.00    +0.000 C 
ATOM     30  C   UNL     1       6.783   5.301  16.148  0.00  0.00    +0.000 C 
ENDBRANCH   7  27
TORSDOF 4
ENDMDL
MODEL 4
REMARK VINA RESULT:      -9.3      1.091      1.836
REMARK  Name = 
REMARK  4 active torsions:
REMARK  status: ('A' for Active; 'I' for Inactive)
REMARK    1  A    between atoms: C_7  and  C_8
REMARK    2  A    between atoms: C_13  and  C_14
REMARK    3  A    between atoms: C_17  and  C_18
REMARK    4  A    between atoms: C_18  and  C_20
REMARK                            x       y       z     vdW  Elec       q    Type
REMARK                         _______ _______ _______ _____ _____    ______ ____
ROOT
ATOM      1  N   UNL     1       0.793   3.992  20.087  0.00  0.00    +0.000 N 
ATOM      2  C   UNL     1       1.785   3.439  19.332  0.00  0.00    +0.000 A 
ATOM      3  N   UNL     1       1.833   2.129  19.364  0.00  0.00    +0.000 NA
ATOM      4  C   UNL     1       2.768   1.471  18.603  0.00  0.00    +0.000 A 
ATOM      5  C   UNL     1       3.655   2.088  17.809  0.00  0.00    +0.000 A 
ATOM      6  N   UNL     1       3.645   3.470  17.767  0.00  0.00    +0.000 N 
ATOM      7  C   UNL     1       4.426   4.374  17.084  0.00  0.00    +0.000 A 
ATOM      8  N   UNL     1       4.029   5.608  17.315  0.00  0.00    +0.000 NA
ATOM      9  C   UNL     1       3.024   5.514  18.258  0.00  0.00    +0.000 A 
ATOM     10  C   UNL     1       2.733   4.186  18.518  0.00  0.00    +0.000 A 
ATOM     11  H   UNL     1       0.148   3.280  20.413  0.00  0.00    +0.000 HD
ATOM     12  H   UNL     1       0.320   4.782  19.663  0.00  0.00    +0.000 HD
ENDROOT
BRANCH   9  13
ATOM     13  C   UNL     1       2.401   6.698  18.825  0.00  0.00    +0.000 A 
ATOM     14  C   UNL     1       2.073   6.735  20.188  0.00  0.00    +0.000 A 
ATOM     15  C   UNL     1       1.552   7.902  20.762  0.00  0.00    +0.000 A 
ATOM     16  C   UNL     1       1.361   9.051  19.983  0.00  0.00    +0.000 A 
ATOM     17  C   UNL     1       1.658   9.005  18.619  0.00  0.00    +0.000 A 
ATOM     18  C   UNL     1       2.112   7.819  18.041  0.00  0.00    +0.000 A 
BRANCH  16  19
ATOM     19  C   UNL     1       0.905  10.301  20.647  0.00  0.00    +0.000 C 
ATOM     20  O   UNL     1       0.930  10.365  21.875  0.00  0.00    +0.000 OA
BRANCH  19  21
ATOM     21  C   UNL     1       0.450  11.490  19.878  0.00  0.00    +0.000 A 
ATOM     22  C   UNL     1       1.326  12.576  19.756  0.00  0.00    +0.000 A 
ATOM     23  C   UNL     1       0.934  13.720  19.058  0.00  0.00    +0.000 A 
ATOM     24  C   UNL     1      -0.334  13.783  18.483  0.00  0.00    +0.000 A 
ATOM     25  C   UNL     1      -1.216  12.710  18.610  0.00  0.00    +0.000 A 
ATOM     26  C   UNL     1      -0.831  11.568  19.318  0.00  0.00    +0.000 A 
ENDBRANCH  19  21
ENDBRANCH  16  19
ENDBRANCH   9  13
BRANCH   7  27
ATOM     27  C   UNL     1       5.646   4.027  16.233  0.00  0.00    +0.000 C 
ATOM     28  C   UNL     1       5.505   4.378  14.722  0.00  0.00    +0.000 C 
ATOM     29  C   UNL     1       6.974   4.843  14.759  0.00  0.00    +0.000 C 
ATOM     30  C   UNL     1       6.758   5.121  16.255  0.00  0.00    +0.000 C 
ENDBRANCH   7  27
TORSDOF 4
ENDMDL
MODEL 5
REMARK VINA RESULT:      -9.3      0.550      1.091
REMARK  Name = 
REMARK  4 active torsions:
REMARK  status: ('A' for Active; 'I' for Inactive)
REMARK    1  A    between atoms: C_7  and  C_8
REMARK    2  A    between atoms: C_13  and  C_14
REMARK    3  A    between atoms: C_17  and  C_18
REMARK    4  A    between atoms: C_18  and  C_20
REMARK                            x       y       z     vdW  Elec       q    Type
REMARK                         _______ _______ _______ _____ _____    ______ ____
ROOT
ATOM      1  N   UNL     1       0.809   4.157  19.973  0.00  0.00    +0.000 N 
ATOM      2  C   UNL     1       1.884   3.636  19.314  0.00  0.00    +0.000 A 
ATOM      3  N   UNL     1       1.980   2.329  19.367  0.00  0.00    +0.000 NA
ATOM      4  C   UNL     1       3.002   1.702  18.699  0.00  0.00    +0.000 A 
ATOM      5  C   UNL     1       3.930   2.345  17.977  0.00  0.00    +0.000 A 
ATOM      6  N   UNL     1       3.871   3.725  17.915  0.00  0.00    +0.000 N 
ATOM      7  C   UNL     1       4.673   4.652  17.291  0.00  0.00    +0.000 A 
ATOM      8  N   UNL     1       4.210   5.873  17.471  0.00  0.00    +0.000 NA
ATOM      9  C   UNL     1       3.131   5.748  18.324  0.00  0.00    +0.000 A 
ATOM     10  C   UNL     1       2.870   4.412  18.576  0.00  0.00    +0.000 A 
ATOM     11  H   UNL     1       0.166   3.423  20.251  0.00  0.00    +0.000 HD
ATOM     12  H   UNL     1       0.345   4.923  19.500  0.00  0.00    +0.000 HD
ENDROOT
BRANCH   9  13
ATOM     13  C   UNL     1       2.416   6.911  18.820  0.00  0.00    +0.000 A 
ATOM     14  C   UNL     1       2.045   6.986  20.170  0.00  0.00    +0.000 A 
ATOM     15  C   UNL     1       1.432   8.140  20.676  0.00  0.00    +0.000 A 
ATOM     16  C   UNL     1       1.191   9.239  19.841  0.00  0.00    +0.000 A 
ATOM     17  C   UNL     1       1.532   9.154  18.489  0.00  0.00    +0.000 A 
ATOM     18  C   UNL     1       2.080   7.976  17.978  0.00  0.00    +0.000 A 
BRANCH  16  19
ATOM     19  C   UNL     1       0.635  10.484  20.435  0.00  0.00    +0.000 C 
ATOM     20  O   UNL     1       1.297  11.088  21.277  0.00  0.00    +0.000 OA
BRANCH  19  21
ATOM     21  C   UNL     1      -0.679  11.043  20.024  0.00  0.00    +0.000 A 
ATOM     22  C   UNL     1      -1.273  10.550  18.855  0.00  0.00    +0.000 A 
ATOM     23  C   UNL     1      -2.499  11.060  18.421  0.00  0.00    +0.000 A 
ATOM     24  C   UNL     1      -3.133  12.064  19.152  0.00  0.00    +0.000 A 
ATOM     25  C   UNL     1      -2.542  12.567  20.310  0.00  0.00    +0.000 A 
ATOM     26  C   UNL     1      -1.310  12.068  20.740  0.00  0.00    +0.000 A 
ENDBRANCH  19  21
ENDBRANCH  16  19
ENDBRANCH   9  13
BRANCH   7  27
ATOM     27  C   UNL     1       5.975   4.346  16.554  0.00  0.00    +0.000 C 
ATOM     28  C   UNL     1       5.804   4.023  15.039  0.00  0.00    +0.000 C 
ATOM     29  C   UNL     1       7.081   4.847  14.785  0.00  0.00    +0.000 C 
ATOM     30  C   UNL     1       6.736   5.619  16.069  0.00  0.00    +0.000 C 
ENDBRANCH   7  27
TORSDOF 4
ENDMDL
MODEL 6
REMARK VINA RESULT:      -9.2      1.417      2.161
REMARK  Name = 
REMARK  4 active torsions:
REMARK  status: ('A' for Active; 'I' for Inactive)
REMARK    1  A    between atoms: C_7  and  C_8
REMARK    2  A    between atoms: C_13  and  C_14
REMARK    3  A    between atoms: C_17  and  C_18
REMARK    4  A    between atoms: C_18  and  C_20
REMARK                            x       y       z     vdW  Elec       q    Type
REMARK                         _______ _______ _______ _____ _____    ______ ____
ROOT
ATOM      1  N   UNL     1       0.928   4.319  20.003  0.00  0.00    +0.000 N 
ATOM      2  C   UNL     1       1.928   3.711  19.302  0.00  0.00    +0.000 A 
ATOM      3  N   UNL     1       2.009   2.414  19.475  0.00  0.00    +0.000 NA
ATOM      4  C   UNL     1       2.954   1.700  18.781  0.00  0.00    +0.000 A 
ATOM      5  C   UNL     1       3.819   2.247  17.916  0.00  0.00    +0.000 A 
ATOM      6  N   UNL     1       3.775   3.616  17.724  0.00  0.00    +0.000 N 
ATOM      7  C   UNL     1       4.529   4.459  16.940  0.00  0.00    +0.000 A 
ATOM      8  N   UNL     1       4.102   5.701  17.040  0.00  0.00    +0.000 NA
ATOM      9  C   UNL     1       3.108   5.686  17.997  0.00  0.00    +0.000 A 
ATOM     10  C   UNL     1       2.852   4.387  18.403  0.00  0.00    +0.000 A 
ATOM     11  H   UNL     1       0.303   3.632  20.411  0.00  0.00    +0.000 HD
ATOM     12  H   UNL     1       0.433   5.047  19.501  0.00  0.00    +0.000 HD
ENDROOT
BRANCH   9  13
ATOM     13  C   UNL     1       2.459   6.909  18.440  0.00  0.00    +0.000 A 
ATOM     14  C   UNL     1       2.280   7.154  19.808  0.00  0.00    +0.000 A 
ATOM     15  C   UNL     1       1.735   8.368  20.248  0.00  0.00    +0.000 A 
ATOM     16  C   UNL     1       1.372   9.357  19.324  0.00  0.00    +0.000 A 
ATOM     17  C   UNL     1       1.521   9.102  17.959  0.00  0.00    +0.000 A 
ATOM     18  C   UNL     1       2.001   7.864  17.527  0.00  0.00    +0.000 A 
BRANCH  16  19
ATOM     19  C   UNL     1       0.895  10.672  19.831  0.00  0.00    +0.000 C 
ATOM     20  O   UNL     1       1.210  11.693  19.223  0.00  0.00    +0.000 OA
BRANCH  19  21
ATOM     21  C   UNL     1       0.023  10.793  21.029  0.00  0.00    +0.000 A 
ATOM     22  C   UNL     1      -0.879  11.863  21.088  0.00  0.00    +0.000 A 
ATOM     23  C   UNL     1      -1.705  12.026  22.202  0.00  0.00    +0.000 A 
ATOM     24  C   UNL     1      -1.629  11.123  23.262  0.00  0.00    +0.000 A 
ATOM     25  C   UNL     1      -0.725  10.062  23.215  0.00  0.00    +0.000 A 
ATOM     26  C   UNL     1       0.111   9.903  22.107  0.00  0.00    +0.000 A 
ENDBRANCH  19  21
ENDBRANCH  16  19
ENDBRANCH   9  13
BRANCH   7  27
ATOM     27  C   UNL     1       5.750   4.051  16.118  0.00  0.00    +0.000 C 
ATOM     28  C   UNL     1       5.600   4.261  14.582  0.00  0.00    +0.000 C 
ATOM     29  C   UNL     1       7.063   4.746  14.571  0.00  0.00    +0.000 C 
ATOM     30  C   UNL     1       6.848   5.156  16.036  0.00  0.00    +0.000 C 
ENDBRANCH   7  27
TORSDOF 4
ENDMDL
MODEL 7
REMARK VINA RESULT:      -9.1      3.135      8.573
REMARK  Name = 
REMARK  4 active torsions:
REMARK  status: ('A' for Active; 'I' for Inactive)
REMARK    1  A    between atoms: C_7  and  C_8
REMARK    2  A    between atoms: C_13  and  C_14
REMARK    3  A    between atoms: C_17  and  C_18
REMARK    4  A    between atoms: C_18  and  C_20
REMARK                            x       y       z     vdW  Elec       q    Type
REMARK                         _______ _______ _______ _____ _____    ______ ____
ROOT
ATOM      1  N   UNL     1       1.659   9.142  22.445  0.00  0.00    +0.000 N 
ATOM      2  C   UNL     1       0.707   9.953  21.901  0.00  0.00    +0.000 A 
ATOM      3  N   UNL     1       0.094  10.732  22.758  0.00  0.00    +0.000 NA
ATOM      4  C   UNL     1      -0.852  11.619  22.305  0.00  0.00    +0.000 A 
ATOM      5  C   UNL     1      -1.201  11.748  21.018  0.00  0.00    +0.000 A 
ATOM      6  N   UNL     1      -0.589  10.927  20.089  0.00  0.00    +0.000 N 
ATOM      7  C   UNL     1      -0.745  10.804  18.727  0.00  0.00    +0.000 A 
ATOM      8  N   UNL     1       0.088   9.908  18.237  0.00  0.00    +0.000 NA
ATOM      9  C   UNL     1       0.733   9.354  19.324  0.00  0.00    +0.000 A 
ATOM     10  C   UNL     1       0.364  10.009  20.487  0.00  0.00    +0.000 A 
ATOM     11  H   UNL     1       1.852   9.406  23.406  0.00  0.00    +0.000 HD
ATOM     12  H   UNL     1       2.502   9.038  21.893  0.00  0.00    +0.000 HD
ENDROOT
BRANCH   9  13
ATOM     13  C   UNL     1       1.672   8.255  19.172  0.00  0.00    +0.000 A 
ATOM     14  C   UNL     1       1.681   7.205  20.102  0.00  0.00    +0.000 A 
ATOM     15  C   UNL     1       2.522   6.100  19.916  0.00  0.00    +0.000 A 
ATOM     16  C   UNL     1       3.358   6.025  18.794  0.00  0.00    +0.000 A 
ATOM     17  C   UNL     1       3.372   7.084  17.884  0.00  0.00    +0.000 A 
ATOM     18  C   UNL     1       2.582   8.212  18.112  0.00  0.00    +0.000 A 
BRANCH  16  19
ATOM     19  C   UNL     1       4.158   4.790  18.576  0.00  0.00    +0.000 C 
ATOM     20  O   UNL     1       3.963   3.818  19.303  0.00  0.00    +0.000 OA
BRANCH  19  21
ATOM     21  C   UNL     1       5.164   4.677  17.487  0.00  0.00    +0.000 A 
ATOM     22  C   UNL     1       4.728   4.271  16.220  0.00  0.00    +0.000 A 
ATOM     23  C   UNL     1       5.642   4.135  15.173  0.00  0.00    +0.000 A 
ATOM     24  C   UNL     1       6.993   4.399  15.390  0.00  0.00    +0.000 A 
ATOM     25  C   UNL     1       7.436   4.793  16.652  0.00  0.00    +0.000 A 
ATOM     26  C   UNL     1       6.527   4.919  17.705  0.00  0.00    +0.000 A 
ENDBRANCH  19  21
ENDBRANCH  16  19
ENDBRANCH   9  13
BRANCH   7  27
ATOM     27  C   UNL     1      -1.788  11.534  17.884  0.00  0.00    +0.000 C 
ATOM     28  C   UNL     1      -2.238  10.771  16.602  0.00  0.00    +0.000 C 
ATOM     29  C   UNL     1      -3.672  11.251  16.897  0.00  0.00    +0.000 C 
ATOM     30  C   UNL     1      -3.253  11.320  18.374  0.00  0.00    +0.000 C 
ENDBRANCH   7  27
TORSDOF 4
ENDMDL
MODEL 8
REMARK VINA RESULT:      -9.0      3.887      9.152
REMARK  Name = 
REMARK  4 active torsions:
REMARK  status: ('A' for Active; 'I' for Inactive)
REMARK    1  A    between atoms: C_7  and  C_8
REMARK    2  A    between atoms: C_13  and  C_14
REMARK    3  A    between atoms: C_17  and  C_18
REMARK    4  A    between atoms: C_18  and  C_20
REMARK                            x       y       z     vdW  Elec       q    Type
REMARK                         _______ _______ _______ _____ _____    ______ ____
ROOT
ATOM      1  N   UNL     1       2.692  11.994  17.634  0.00  0.00    +0.000 N 
ATOM      2  C   UNL     1       1.927  12.684  18.528  0.00  0.00    +0.000 A 
ATOM      3  N   UNL     1       2.030  13.989  18.445  0.00  0.00    +0.000 NA
ATOM      4  C   UNL     1       1.267  14.777  19.270  0.00  0.00    +0.000 A 
ATOM      5  C   UNL     1       0.403  14.297  20.176  0.00  0.00    +0.000 A 
ATOM      6  N   UNL     1       0.285  12.925  20.304  0.00  0.00    +0.000 N 
ATOM      7  C   UNL     1      -0.479  12.143  21.139  0.00  0.00    +0.000 A 
ATOM      8  N   UNL     1      -0.300  10.863  20.880  0.00  0.00    +0.000 NA
ATOM      9  C   UNL     1       0.689  10.805  19.918  0.00  0.00    +0.000 A 
ATOM     10  C   UNL     1       1.034  12.082  19.507  0.00  0.00    +0.000 A 
ATOM     11  H   UNL     1       3.084  12.618  16.937  0.00  0.00    +0.000 HD
ATOM     12  H   UNL     1       2.247  11.181  17.224  0.00  0.00    +0.000 HD
ENDROOT
BRANCH   9  13
ATOM     13  C   UNL     1       1.216   9.536  19.446  0.00  0.00    +0.000 A 
ATOM     14  C   UNL     1       1.434   9.332  18.076  0.00  0.00    +0.000 A 
ATOM     15  C   UNL     1       2.023   8.146  17.619  0.00  0.00    +0.000 A 
ATOM     16  C   UNL     1       2.410   7.151  18.527  0.00  0.00    +0.000 A 
ATOM     17  C   UNL     1       2.166   7.340  19.889  0.00  0.00    +0.000 A 
ATOM     18  C   UNL     1       1.517   8.496  20.329  0.00  0.00    +0.000 A 
BRANCH  16  19
ATOM     19  C   UNL     1       3.126   5.952  18.016  0.00  0.00    +0.000 C 
ATOM     20  O   UNL     1       4.057   6.106  17.227  0.00  0.00    +0.000 OA
BRANCH  19  21
ATOM     21  C   UNL     1       2.779   4.573  18.451  0.00  0.00    +0.000 A 
ATOM     22  C   UNL     1       1.521   4.066  18.104  0.00  0.00    +0.000 A 
ATOM     23  C   UNL     1       1.145   2.782  18.506  0.00  0.00    +0.000 A 
ATOM     24  C   UNL     1       2.024   2.005  19.259  0.00  0.00    +0.000 A 
ATOM     25  C   UNL     1       3.274   2.508  19.618  0.00  0.00    +0.000 A 
ATOM     26  C   UNL     1       3.648   3.796  19.226  0.00  0.00    +0.000 A 
ENDBRANCH  19  21
ENDBRANCH  16  19
ENDBRANCH   9  13
BRANCH   7  27
ATOM     27  C   UNL     1      -1.361  12.656  22.275  0.00  0.00    +0.000 C 
ATOM     28  C   UNL     1      -2.869  12.806  21.911  0.00  0.00    +0.000 C 
ATOM     29  C   UNL     1      -3.195  12.255  23.314  0.00  0.00    +0.000 C 
ATOM     30  C   UNL     1      -1.837  11.539  23.255  0.00  0.00    +0.000 C 
ENDBRANCH   7  27
TORSDOF 4
ENDMDL
MODEL 9
REMARK VINA RESULT:      -9.0      3.136      8.467
REMARK  Name = 
REMARK  4 active torsions:
REMARK  status: ('A' for Active; 'I' for Inactive)
REMARK    1  A    between atoms: C_7  and  C_8
REMARK    2  A    between atoms: C_13  and  C_14
REMARK    3  A    between atoms: C_17  and  C_18
REMARK    4  A    between atoms: C_18  and  C_20
REMARK                            x       y       z     vdW  Elec       q    Type
REMARK                         _______ _______ _______ _____ _____    ______ ____
ROOT
ATOM      1  N   UNL     1       1.867   8.905  22.267  0.00  0.00    +0.000 N 
ATOM      2  C   UNL     1       0.893   9.736  21.798  0.00  0.00    +0.000 A 
ATOM      3  N   UNL     1       0.291  10.451  22.717  0.00  0.00    +0.000 NA
ATOM      4  C   UNL     1      -0.674  11.352  22.344  0.00  0.00    +0.000 A 
ATOM      5  C   UNL     1      -1.054  11.560  21.075  0.00  0.00    +0.000 A 
ATOM      6  N   UNL     1      -0.454  10.809  20.082  0.00  0.00    +0.000 N 
ATOM      7  C   UNL     1      -0.639  10.772  18.718  0.00  0.00    +0.000 A 
ATOM      8  N   UNL     1       0.192   9.920  18.153  0.00  0.00    +0.000 NA
ATOM      9  C   UNL     1       0.869   9.306  19.188  0.00  0.00    +0.000 A 
ATOM     10  C   UNL     1       0.518   9.879  20.398  0.00  0.00    +0.000 A 
ATOM     11  H   UNL     1       2.079   9.109  23.239  0.00  0.00    +0.000 HD
ATOM     12  H   UNL     1       2.698   8.848  21.691  0.00  0.00    +0.000 HD
ENDROOT
BRANCH   9  13
ATOM     13  C   UNL     1       1.816   8.231  18.945  0.00  0.00    +0.000 A 
ATOM     14  C   UNL     1       2.702   8.308  17.861  0.00  0.00    +0.000 A 
ATOM     15  C   UNL     1       3.677   7.320  17.668  0.00  0.00    +0.000 A 
ATOM     16  C   UNL     1       3.785   6.247  18.563  0.00  0.00    +0.000 A 
ATOM     17  C   UNL     1       2.883   6.153  19.625  0.00  0.00    +0.000 A 
ATOM     18  C   UNL     1       1.872   7.105  19.771  0.00  0.00    +0.000 A 
BRANCH  16  19
ATOM     19  C   UNL     1       4.897   5.275  18.387  0.00  0.00    +0.000 C 
ATOM     20  O   UNL     1       5.292   4.640  19.363  0.00  0.00    +0.000 OA
BRANCH  19  21
ATOM     21  C   UNL     1       5.527   5.019  17.065  0.00  0.00    +0.000 A 
ATOM     22  C   UNL     1       4.811   4.271  16.122  0.00  0.00    +0.000 A 
ATOM     23  C   UNL     1       5.372   3.991  14.874  0.00  0.00    +0.000 A 
ATOM     24  C   UNL     1       6.650   4.455  14.566  0.00  0.00    +0.000 A 
ATOM     25  C   UNL     1       7.373   5.191  15.505  0.00  0.00    +0.000 A 
ATOM     26  C   UNL     1       6.820   5.463  16.758  0.00  0.00    +0.000 A 
ENDBRANCH  19  21
ENDBRANCH  16  19
ENDBRANCH   9  13
BRANCH   7  27
ATOM     27  C   UNL     1      -1.710  11.541  17.947  0.00  0.00    +0.000 C 
ATOM     28  C   UNL     1      -2.228  10.825  16.664  0.00  0.00    +0.000 C 
ATOM     29  C   UNL     1      -3.640  11.314  17.040  0.00  0.00    +0.000 C 
ATOM     30  C   UNL     1      -3.154  11.330  18.498  0.00  0.00    +0.000 C 
ENDBRANCH   7  27
TORSDOF 4
ENDMDL
