MODEL 1
REMARK VINA RESULT:      -8.2      0.000      0.000
REMARK  Name = 
REMARK  9 active torsions:
REMARK  status: ('A' for Active; 'I' for Inactive)
REMARK    1  A    between atoms: C_1  and  C_2
REMARK    2  A    between atoms: C_3  and  N_4
REMARK    3  A    between atoms: C_5  and  C_7
REMARK    4  A    between atoms: C_9  and  C_10
REMARK    5  A    between atoms: C_10  and  N_11
REMARK    6  A    between atoms: N_11  and  C_12
REMARK    7  A    between atoms: C_12  and  C_13
REMARK    8  A    between atoms: C_13  and  O_14
REMARK    9  A    between atoms: C_24  and  C_25
REMARK                            x       y       z     vdW  Elec       q    Type
REMARK                         _______ _______ _______ _____ _____    ______ ____
ROOT
ATOM      1  N   UNL     1       0.993   8.681  20.081  0.00  0.00    +0.000 N 
ATOM      2  C   UNL     1       0.961   9.468  21.219  0.00  0.00    +0.000 C 
ATOM      3  O   UNL     1       1.653   9.286  22.218  0.00  0.00    +0.000 OA
ATOM      4  H   UNL     1       0.173   8.731  19.480  0.00  0.00    +0.000 HD
ENDROOT
BRANCH   2   5
ATOM      5  C   UNL     1      -0.011  10.617  21.160  0.00  0.00    +0.000 A 
ATOM      6  C   UNL     1      -0.900  10.748  22.171  0.00  0.00    +0.000 A 
ATOM      7  C   UNL     1      -1.713  11.965  22.353  0.00  0.00    +0.000 A 
ATOM      8  C   UNL     1      -1.571  12.949  21.450  0.00  0.00    +0.000 A 
ATOM      9  N   UNL     1      -0.714  12.777  20.377  0.00  0.00    +0.000 N 
ATOM     10  C   UNL     1      -0.404  13.608  19.338  0.00  0.00    +0.000 A 
ATOM     11  N   UNL     1       0.424  13.004  18.511  0.00  0.00    +0.000 NA
ATOM     12  N   UNL     1       0.704  11.758  19.030  0.00  0.00    +0.000 NA
ATOM     13  C   UNL     1       0.044  11.637  20.170  0.00  0.00    +0.000 A 
BRANCH   7  14
ATOM     14  C   UNL     1      -2.583  12.069  23.577  0.00  0.00    +0.000 C 
BRANCH  14  15
ATOM     15  N   UNL     1      -3.974  12.281  23.177  0.00  0.00    +0.000 NA
ATOM     16  H   UNL     1      -4.485  11.418  23.355  0.00  0.00    +0.000 HD
BRANCH  15  17
ATOM     17  C   UNL     1      -4.590  13.362  23.960  0.00  0.00    +0.000 C 
BRANCH  17  18
ATOM     18  C   UNL     1      -6.118  13.237  23.931  0.00  0.00    +0.000 C 
BRANCH  18  19
ATOM     19  O   UNL     1      -6.498  11.862  23.918  0.00  0.00    +0.000 OA
ATOM     20  H   UNL     1      -7.100  11.761  23.161  0.00  0.00    +0.000 HD
ENDBRANCH  18  19
ENDBRANCH  17  18
ENDBRANCH  15  17
ENDBRANCH  14  15
ENDBRANCH   7  14
ENDBRANCH   2   5
BRANCH   1  23
ATOM     21  C   UNL     1       2.855   8.366  17.816  0.00  0.00    +0.000 C 
ATOM     22  C   UNL     1       2.745   7.336  18.916  0.00  0.00    +0.000 A 
ATOM     23  C   UNL     1       1.793   7.524  19.950  0.00  0.00    +0.000 A 
ATOM     24  C   UNL     1       1.534   6.510  20.875  0.00  0.00    +0.000 A 
ATOM     25  C   UNL     1       2.257   5.329  20.835  0.00  0.00    +0.000 A 
ATOM     26  C   UNL     1       3.243   5.157  19.867  0.00  0.00    +0.000 A 
ATOM     27  C   UNL     1       3.529   6.139  18.887  0.00  0.00    +0.000 A 
BRANCH  27  28
ATOM     28  C   UNL     1       4.630   5.863  17.906  0.00  0.00    +0.000 A 
ATOM     29  C   UNL     1       5.990   5.941  18.262  0.00  0.00    +0.000 A 
ATOM     30  C   UNL     1       7.023   5.677  17.360  0.00  0.00    +0.000 A 
ATOM     31  C   UNL     1       6.717   5.229  16.089  0.00  0.00    +0.000 A 
ATOM     32  C   UNL     1       5.383   5.074  15.714  0.00  0.00    +0.000 A 
ATOM     33  C   UNL     1       4.356   5.439  16.590  0.00  0.00    +0.000 A 
ATOM     34  O   UNL     1       5.005   4.550  14.502  0.00  0.00    +0.000 OA
ATOM     35  C   UNL     1       6.102   3.872  13.877  0.00  0.00    +0.000 C 
ATOM     36  C   UNL     1       7.346   4.742  13.924  0.00  0.00    +0.000 C 
ATOM     37  O   UNL     1       7.777   4.927  15.274  0.00  0.00    +0.000 OA
ENDBRANCH  27  28
ENDBRANCH   1  23
TORSDOF 8
ENDMDL
MODEL 2
REMARK VINA RESULT:      -8.0      1.750      3.231
REMARK  Name = 
REMARK  9 active torsions:
REMARK  status: ('A' for Active; 'I' for Inactive)
REMARK    1  A    between atoms: C_1  and  C_2
REMARK    2  A    between atoms: C_3  and  N_4
REMARK    3  A    between atoms: C_5  and  C_7
REMARK    4  A    between atoms: C_9  and  C_10
REMARK    5  A    between atoms: C_10  and  N_11
REMARK    6  A    between atoms: N_11  and  C_12
REMARK    7  A    between atoms: C_12  and  C_13
REMARK    8  A    between atoms: C_13  and  O_14
REMARK    9  A    between atoms: C_24  and  C_25
REMARK                            x       y       z     vdW  Elec       q    Type
REMARK                         _______ _______ _______ _____ _____    ______ ____
ROOT
ATOM      1  N   UNL     1       0.968   8.826  20.068  0.00  0.00    +0.000 N 
ATOM      2  C   UNL     1       1.008   9.672  21.162  0.00  0.00    +0.000 C 
ATOM      3  O   UNL     1       1.716   9.506  22.152  0.00  0.00    +0.000 OA
ATOM      4  H   UNL     1       0.136   8.888  19.485  0.00  0.00    +0.000 HD
ENDROOT
BRANCH   2   5
ATOM      5  C   UNL     1       0.095  10.866  21.065  0.00  0.00    +0.000 A 
ATOM      6  C   UNL     1       0.119  11.591  19.923  0.00  0.00    +0.000 A 
ATOM      7  C   UNL     1      -0.903  12.609  19.614  0.00  0.00    +0.000 A 
ATOM      8  C   UNL     1      -1.860  12.828  20.530  0.00  0.00    +0.000 A 
ATOM      9  N   UNL     1      -1.835  12.136  21.728  0.00  0.00    +0.000 N 
ATOM     10  C   UNL     1      -2.673  12.182  22.806  0.00  0.00    +0.000 A 
ATOM     11  N   UNL     1      -2.228  11.385  23.755  0.00  0.00    +0.000 NA
ATOM     12  N   UNL     1      -1.091  10.763  23.286  0.00  0.00    +0.000 NA
ATOM     13  C   UNL     1      -0.875  11.191  22.054  0.00  0.00    +0.000 A 
BRANCH   7  14
ATOM     14  C   UNL     1      -0.865  13.275  18.264  0.00  0.00    +0.000 C 
BRANCH  14  15
ATOM     15  N   UNL     1      -1.147  12.291  17.220  0.00  0.00    +0.000 NA
ATOM     16  H   UNL     1      -0.390  11.610  17.220  0.00  0.00    +0.000 HD
BRANCH  15  17
ATOM     17  C   UNL     1      -2.411  11.589  17.482  0.00  0.00    +0.000 C 
BRANCH  17  18
ATOM     18  C   UNL     1      -2.219  10.073  17.343  0.00  0.00    +0.000 C 
BRANCH  18  19
ATOM     19  O   UNL     1      -3.458   9.400  17.558  0.00  0.00    +0.000 OA
ATOM     20  H   UNL     1      -4.132  10.098  17.618  0.00  0.00    +0.000 HD
ENDBRANCH  18  19
ENDBRANCH  17  18
ENDBRANCH  15  17
ENDBRANCH  14  15
ENDBRANCH   7  14
ENDBRANCH   2   5
BRANCH   1  23
ATOM     21  C   UNL     1       2.942   8.402  17.918  0.00  0.00    +0.000 C 
ATOM     22  C   UNL     1       2.703   7.379  19.005  0.00  0.00    +0.000 A 
ATOM     23  C   UNL     1       1.703   7.623  19.980  0.00  0.00    +0.000 A 
ATOM     24  C   UNL     1       1.327   6.625  20.882  0.00  0.00    +0.000 A 
ATOM     25  C   UNL     1       1.979   5.402  20.881  0.00  0.00    +0.000 A 
ATOM     26  C   UNL     1       3.009   5.172  19.973  0.00  0.00    +0.000 A 
ATOM     27  C   UNL     1       3.413   6.136  19.017  0.00  0.00    +0.000 A 
BRANCH  27  28
ATOM     28  C   UNL     1       4.553   5.796  18.104  0.00  0.00    +0.000 A 
ATOM     29  C   UNL     1       5.876   5.665  18.568  0.00  0.00    +0.000 A 
ATOM     30  C   UNL     1       6.943   5.339  17.728  0.00  0.00    +0.000 A 
ATOM     31  C   UNL     1       6.696   5.037  16.403  0.00  0.00    +0.000 A 
ATOM     32  C   UNL     1       5.392   5.089  15.914  0.00  0.00    +0.000 A 
ATOM     33  C   UNL     1       4.345   5.516  16.737  0.00  0.00    +0.000 A 
ATOM     34  O   UNL     1       5.059   4.716  14.635  0.00  0.00    +0.000 OA
ATOM     35  C   UNL     1       6.113   3.950  14.038  0.00  0.00    +0.000 C 
ATOM     36  C   UNL     1       7.447   4.642  14.258  0.00  0.00    +0.000 C 
ATOM     37  O   UNL     1       7.778   4.662  15.649  0.00  0.00    +0.000 OA
ENDBRANCH  27  28
ENDBRANCH   1  23
TORSDOF 8
ENDMDL
MODEL 3
REMARK VINA RESULT:      -8.0      3.423     10.937
REMARK  Name = 
REMARK  9 active torsions:
REMARK  status: ('A' for Active; 'I' for Inactive)
REMARK    1  A    between atoms: C_1  and  C_2
REMARK    2  A    between atoms: C_3  and  N_4
REMARK    3  A    between atoms: C_5  and  C_7
REMARK    4  A    between atoms: C_9  and  C_10
REMARK    5  A    between atoms: C_10  and  N_11
REMARK    6  A    between atoms: N_11  and  C_12
REMARK    7  A    between atoms: C_12  and  C_13
REMARK    8  A    between atoms: C_13  and  O_14
REMARK    9  A    between atoms: C_24  and  C_25
REMARK                            x       y       z     vdW  Elec       q    Type
REMARK                         _______ _______ _______ _____ _____    ______ ____
ROOT
ATOM      1  N   UNL     1       1.017   9.031  19.463  0.00  0.00    +0.000 N 
ATOM      2  C   UNL     1       1.873   8.915  18.382  0.00  0.00    +0.000 C 
ATOM      3  O   UNL     1       2.068   9.792  17.544  0.00  0.00    +0.000 OA
ATOM      4  H   UNL     1       0.703   8.157  19.880  0.00  0.00    +0.000 HD
ENDROOT
BRANCH   2   5
ATOM      5  C   UNL     1       2.592   7.595  18.290  0.00  0.00    +0.000 A 
ATOM      6  C   UNL     1       3.509   7.439  17.308  0.00  0.00    +0.000 A 
ATOM      7  C   UNL     1       4.450   6.303  17.280  0.00  0.00    +0.000 A 
ATOM      8  C   UNL     1       4.349   5.389  18.258  0.00  0.00    +0.000 A 
ATOM      9  N   UNL     1       3.361   5.516  19.219  0.00  0.00    +0.000 N 
ATOM     10  C   UNL     1       3.050   4.731  20.293  0.00  0.00    +0.000 A 
ATOM     11  N   UNL     1       1.986   5.207  20.905  0.00  0.00    +0.000 NA
ATOM     12  N   UNL     1       1.602   6.358  20.250  0.00  0.00    +0.000 NA
ATOM     13  C   UNL     1       2.450   6.559  19.256  0.00  0.00    +0.000 A 
BRANCH   7  14
ATOM     14  C   UNL     1       5.514   6.281  16.217  0.00  0.00    +0.000 C 
BRANCH  14  15
ATOM     15  N   UNL     1       6.763   5.769  16.780  0.00  0.00    +0.000 NA
ATOM     16  H   UNL     1       7.361   5.486  16.005  0.00  0.00    +0.000 HD
BRANCH  15  17
ATOM     17  C   UNL     1       7.458   6.804  17.557  0.00  0.00    +0.000 C 
BRANCH  17  18
ATOM     18  C   UNL     1       7.911   6.242  18.910  0.00  0.00    +0.000 C 
BRANCH  18  19
ATOM     19  O   UNL     1       7.911   4.816  18.873  0.00  0.00    +0.000 OA
ATOM     20  H   UNL     1       7.535   4.529  19.723  0.00  0.00    +0.000 HD
ENDBRANCH  18  19
ENDBRANCH  17  18
ENDBRANCH  15  17
ENDBRANCH  14  15
ENDBRANCH   7  14
ENDBRANCH   2   5
BRANCH   1  23
ATOM     21  C   UNL     1      -1.480   9.469  17.956  0.00  0.00    +0.000 C 
ATOM     22  C   UNL     1      -1.029  10.404  19.054  0.00  0.00    +0.000 A 
ATOM     23  C   UNL     1       0.208  10.163  19.705  0.00  0.00    +0.000 A 
ATOM     24  C   UNL     1       0.744  11.103  20.589  0.00  0.00    +0.000 A 
ATOM     25  C   UNL     1       0.037  12.255  20.895  0.00  0.00    +0.000 A 
ATOM     26  C   UNL     1      -1.210  12.472  20.316  0.00  0.00    +0.000 A 
ATOM     27  C   UNL     1      -1.790  11.569  19.392  0.00  0.00    +0.000 A 
BRANCH  27  28
ATOM     28  C   UNL     1      -3.151  11.886  18.847  0.00  0.00    +0.000 A 
ATOM     29  C   UNL     1      -3.536  11.539  17.537  0.00  0.00    +0.000 A 
ATOM     30  C   UNL     1      -4.804  11.820  17.023  0.00  0.00    +0.000 A 
ATOM     31  C   UNL     1      -5.763  12.376  17.848  0.00  0.00    +0.000 A 
ATOM     32  C   UNL     1      -5.446  12.675  19.172  0.00  0.00    +0.000 A 
ATOM     33  C   UNL     1      -4.145  12.485  19.647  0.00  0.00    +0.000 A 
ATOM     34  O   UNL     1      -6.371  13.144  20.073  0.00  0.00    +0.000 OA
ATOM     35  C   UNL     1      -7.704  12.927  19.592  0.00  0.00    +0.000 C 
ATOM     36  C   UNL     1      -7.815  13.384  18.147  0.00  0.00    +0.000 C 
ATOM     37  O   UNL     1      -7.005  12.567  17.300  0.00  0.00    +0.000 OA
ENDBRANCH  27  28
ENDBRANCH   1  23
TORSDOF 8
ENDMDL
MODEL 4
REMARK VINA RESULT:      -8.0      3.650     10.968
REMARK  Name = 
REMARK  9 active torsions:
REMARK  status: ('A' for Active; 'I' for Inactive)
REMARK    1  A    between atoms: C_1  and  C_2
REMARK    2  A    between atoms: C_3  and  N_4
REMARK    3  A    between atoms: C_5  and  C_7
REMARK    4  A    between atoms: C_9  and  C_10
REMARK    5  A    between atoms: C_10  and  N_11
REMARK    6  A    between atoms: N_11  and  C_12
REMARK    7  A    between atoms: C_12  and  C_13
REMARK    8  A    between atoms: C_13  and  O_14
REMARK    9  A    between atoms: C_24  and  C_25
REMARK                            x       y       z     vdW  Elec       q    Type
REMARK                         _______ _______ _______ _____ _____    ______ ____
ROOT
ATOM      1  N   UNL     1       1.542   8.996  17.859  0.00  0.00    +0.000 N 
ATOM      2  C   UNL     1       2.020   8.004  18.696  0.00  0.00    +0.000 C 
ATOM      3  O   UNL     1       1.791   7.932  19.901  0.00  0.00    +0.000 OA
ATOM      4  H   UNL     1       2.050   9.129  16.987  0.00  0.00    +0.000 HD
ENDROOT
BRANCH   2   5
ATOM      5  C   UNL     1       2.872   6.966  18.015  0.00  0.00    +0.000 A 
ATOM      6  C   UNL     1       4.148   7.295  17.708  0.00  0.00    +0.000 A 
ATOM      7  C   UNL     1       5.142   6.290  17.285  0.00  0.00    +0.000 A 
ATOM      8  C   UNL     1       4.731   5.016  17.178  0.00  0.00    +0.000 A 
ATOM      9  N   UNL     1       3.406   4.699  17.422  0.00  0.00    +0.000 N 
ATOM     10  C   UNL     1       2.749   3.502  17.375  0.00  0.00    +0.000 A 
ATOM     11  N   UNL     1       1.469   3.682  17.628  0.00  0.00    +0.000 NA
ATOM     12  N   UNL     1       1.275   5.022  17.891  0.00  0.00    +0.000 NA
ATOM     13  C   UNL     1       2.447   5.625  17.798  0.00  0.00    +0.000 A 
BRANCH   7  14
ATOM     14  C   UNL     1       6.566   6.731  17.085  0.00  0.00    +0.000 C 
BRANCH  14  15
ATOM     15  N   UNL     1       7.421   5.563  16.882  0.00  0.00    +0.000 NA
ATOM     16  H   UNL     1       8.291   5.882  16.458  0.00  0.00    +0.000 HD
BRANCH  15  17
ATOM     17  C   UNL     1       7.733   4.906  18.159  0.00  0.00    +0.000 C 
BRANCH  17  18
ATOM     18  C   UNL     1       7.862   5.948  19.277  0.00  0.00    +0.000 C 
BRANCH  18  19
ATOM     19  O   UNL     1       8.220   5.311  20.502  0.00  0.00    +0.000 OA
ATOM     20  H   UNL     1       9.191   5.344  20.544  0.00  0.00    +0.000 HD
ENDBRANCH  18  19
ENDBRANCH  17  18
ENDBRANCH  15  17
ENDBRANCH  14  15
ENDBRANCH   7  14
ENDBRANCH   2   5
BRANCH   1  23
ATOM     21  C   UNL     1      -1.268   9.319  17.026  0.00  0.00    +0.000 C 
ATOM     22  C   UNL     1      -0.598  10.277  17.984  0.00  0.00    +0.000 A 
ATOM     23  C   UNL     1       0.771  10.093  18.303  0.00  0.00    +0.000 A 
ATOM     24  C   UNL     1       1.469  11.059  19.033  0.00  0.00    +0.000 A 
ATOM     25  C   UNL     1       0.812  12.180  19.514  0.00  0.00    +0.000 A 
ATOM     26  C   UNL     1      -0.549  12.340  19.266  0.00  0.00    +0.000 A 
ATOM     27  C   UNL     1      -1.301  11.408  18.509  0.00  0.00    +0.000 A 
BRANCH  27  28
ATOM     28  C   UNL     1      -2.767  11.663  18.323  0.00  0.00    +0.000 A 
ATOM     29  C   UNL     1      -3.431  11.386  17.112  0.00  0.00    +0.000 A 
ATOM     30  C   UNL     1      -4.798  11.610  16.931  0.00  0.00    +0.000 A 
ATOM     31  C   UNL     1      -5.564  12.031  18.001  0.00  0.00    +0.000 A 
ATOM     32  C   UNL     1      -4.961  12.255  19.237  0.00  0.00    +0.000 A 
ATOM     33  C   UNL     1      -3.576  12.127  19.381  0.00  0.00    +0.000 A 
ATOM     34  O   UNL     1      -5.671  12.587  20.365  0.00  0.00    +0.000 OA
ATOM     35  C   UNL     1      -7.066  12.309  20.187  0.00  0.00    +0.000 C 
ATOM     36  C   UNL     1      -7.540  12.860  18.854  0.00  0.00    +0.000 C 
ATOM     37  O   UNL     1      -6.909  12.170  17.773  0.00  0.00    +0.000 OA
ENDBRANCH  27  28
ENDBRANCH   1  23
TORSDOF 8
ENDMDL
MODEL 5
REMARK VINA RESULT:      -7.9      3.312     11.114
REMARK  Name = 
REMARK  9 active torsions:
REMARK  status: ('A' for Active; 'I' for Inactive)
REMARK    1  A    between atoms: C_1  and  C_2
REMARK    2  A    between atoms: C_3  and  N_4
REMARK    3  A    between atoms: C_5  and  C_7
REMARK    4  A    between atoms: C_9  and  C_10
REMARK    5  A    between atoms: C_10  and  N_11
REMARK    6  A    between atoms: N_11  and  C_12
REMARK    7  A    between atoms: C_12  and  C_13
REMARK    8  A    between atoms: C_13  and  O_14
REMARK    9  A    between atoms: C_24  and  C_25
REMARK                            x       y       z     vdW  Elec       q    Type
REMARK                         _______ _______ _______ _____ _____    ______ ____
ROOT
ATOM      1  N   UNL     1       1.382   9.193  18.288  0.00  0.00    +0.000 N 
ATOM      2  C   UNL     1       1.737   8.318  19.299  0.00  0.00    +0.000 C 
ATOM      3  O   UNL     1       1.394   8.427  20.474  0.00  0.00    +0.000 OA
ATOM      4  H   UNL     1       1.974   9.184  17.460  0.00  0.00    +0.000 HD
ENDROOT
BRANCH   2   5
ATOM      5  C   UNL     1       2.604   7.169  18.858  0.00  0.00    +0.000 A 
ATOM      6  C   UNL     1       3.557   7.413  17.930  0.00  0.00    +0.000 A 
ATOM      7  C   UNL     1       4.623   6.441  17.619  0.00  0.00    +0.000 A 
ATOM      8  C   UNL     1       4.603   5.267  18.269  0.00  0.00    +0.000 A 
ATOM      9  N   UNL     1       3.581   4.995  19.163  0.00  0.00    +0.000 N 
ATOM     10  C   UNL     1       3.336   3.892  19.932  0.00  0.00    +0.000 A 
ATOM     11  N   UNL     1       2.208   4.049  20.594  0.00  0.00    +0.000 NA
ATOM     12  N   UNL     1       1.712   5.300  20.293  0.00  0.00    +0.000 NA
ATOM     13  C   UNL     1       2.557   5.879  19.458  0.00  0.00    +0.000 A 
BRANCH   7  14
ATOM     14  C   UNL     1       5.710   6.853  16.663  0.00  0.00    +0.000 C 
BRANCH  14  15
ATOM     15  N   UNL     1       5.558   6.128  15.402  0.00  0.00    +0.000 NA
ATOM     16  H   UNL     1       5.565   6.811  14.646  0.00  0.00    +0.000 HD
BRANCH  15  17
ATOM     17  C   UNL     1       6.669   5.188  15.195  0.00  0.00    +0.000 C 
BRANCH  17  18
ATOM     18  C   UNL     1       6.134   3.762  15.011  0.00  0.00    +0.000 C 
BRANCH  18  19
ATOM     19  O   UNL     1       6.269   3.360  13.649  0.00  0.00    +0.000 OA
ATOM     20  H   UNL     1       6.502   2.416  13.674  0.00  0.00    +0.000 HD
ENDBRANCH  18  19
ENDBRANCH  17  18
ENDBRANCH  15  17
ENDBRANCH  14  15
ENDBRANCH   7  14
ENDBRANCH   2   5
BRANCH   1  23
ATOM     21  C   UNL     1      -1.479   9.295  17.576  0.00  0.00    +0.000 C 
ATOM     22  C   UNL     1      -0.769  10.461  18.225  0.00  0.00    +0.000 A 
ATOM     23  C   UNL     1       0.620  10.364  18.495  0.00  0.00    +0.000 A 
ATOM     24  C   UNL     1       1.343  11.482  18.920  0.00  0.00    +0.000 A 
ATOM     25  C   UNL     1       0.697  12.685  19.151  0.00  0.00    +0.000 A 
ATOM     26  C   UNL     1      -0.678  12.777  18.955  0.00  0.00    +0.000 A 
ATOM     27  C   UNL     1      -1.458  11.686  18.499  0.00  0.00    +0.000 A 
BRANCH  27  28
ATOM     28  C   UNL     1      -2.937  11.884  18.347  0.00  0.00    +0.000 A 
ATOM     29  C   UNL     1      -3.617  11.588  17.149  0.00  0.00    +0.000 A 
ATOM     30  C   UNL     1      -4.994  11.759  17.000  0.00  0.00    +0.000 A 
ATOM     31  C   UNL     1      -5.753  12.145  18.089  0.00  0.00    +0.000 A 
ATOM     32  C   UNL     1      -5.131  12.386  19.313  0.00  0.00    +0.000 A 
ATOM     33  C   UNL     1      -3.739  12.311  19.425  0.00  0.00    +0.000 A 
ATOM     34  O   UNL     1      -5.828  12.685  20.458  0.00  0.00    +0.000 OA
ATOM     35  C   UNL     1      -7.215  12.353  20.310  0.00  0.00    +0.000 C 
ATOM     36  C   UNL     1      -7.739  12.892  18.990  0.00  0.00    +0.000 C 
ATOM     37  O   UNL     1      -7.106  12.232  17.892  0.00  0.00    +0.000 OA
ENDBRANCH  27  28
ENDBRANCH   1  23
TORSDOF 8
ENDMDL
MODEL 6
REMARK VINA RESULT:      -7.9      2.771     11.247
REMARK  Name = 
REMARK  9 active torsions:
REMARK  status: ('A' for Active; 'I' for Inactive)
REMARK    1  A    between atoms: C_1  and  C_2
REMARK    2  A    between atoms: C_3  and  N_4
REMARK    3  A    between atoms: C_5  and  C_7
REMARK    4  A    between atoms: C_9  and  C_10
REMARK    5  A    between atoms: C_10  and  N_11
REMARK    6  A    between atoms: N_11  and  C_12
REMARK    7  A    between atoms: C_12  and  C_13
REMARK    8  A    between atoms: C_13  and  O_14
REMARK    9  A    between atoms: C_24  and  C_25
REMARK                            x       y       z     vdW  Elec       q    Type
REMARK                         _______ _______ _______ _____ _____    ______ ____
ROOT
ATOM      1  N   UNL     1       1.346   8.590  19.065  0.00  0.00    +0.000 N 
ATOM      2  C   UNL     1       2.307   8.484  18.075  0.00  0.00    +0.000 C 
ATOM      3  O   UNL     1       2.514   9.326  17.204  0.00  0.00    +0.000 OA
ATOM      4  H   UNL     1       1.059   7.719  19.505  0.00  0.00    +0.000 HD
ENDROOT
BRANCH   2   5
ATOM      5  C   UNL     1       3.125   7.221  18.129  0.00  0.00    +0.000 A 
ATOM      6  C   UNL     1       4.243   7.156  17.369  0.00  0.00    +0.000 A 
ATOM      7  C   UNL     1       5.250   6.091  17.537  0.00  0.00    +0.000 A 
ATOM      8  C   UNL     1       5.009   5.147  18.461  0.00  0.00    +0.000 A 
ATOM      9  N   UNL     1       3.828   5.178  19.183  0.00  0.00    +0.000 N 
ATOM     10  C   UNL     1       3.352   4.346  20.155  0.00  0.00    +0.000 A 
ATOM     11  N   UNL     1       2.147   4.729  20.524  0.00  0.00    +0.000 NA
ATOM     12  N   UNL     1       1.829   5.866  19.812  0.00  0.00    +0.000 NA
ATOM     13  C   UNL     1       2.856   6.153  19.030  0.00  0.00    +0.000 A 
BRANCH   7  14
ATOM     14  C   UNL     1       6.519   6.173  16.733  0.00  0.00    +0.000 C 
BRANCH  14  15
ATOM     15  N   UNL     1       6.862   4.849  16.216  0.00  0.00    +0.000 NA
ATOM     16  H   UNL     1       6.117   4.207  16.483  0.00  0.00    +0.000 HD
BRANCH  15  17
ATOM     17  C   UNL     1       6.966   4.863  14.750  0.00  0.00    +0.000 C 
BRANCH  17  18
ATOM     18  C   UNL     1       5.816   4.064  14.125  0.00  0.00    +0.000 C 
BRANCH  18  19
ATOM     19  O   UNL     1       6.326   3.142  13.163  0.00  0.00    +0.000 OA
ATOM     20  H   UNL     1       7.293   3.246  13.183  0.00  0.00    +0.000 HD
ENDBRANCH  18  19
ENDBRANCH  17  18
ENDBRANCH  15  17
ENDBRANCH  14  15
ENDBRANCH   7  14
ENDBRANCH   2   5
BRANCH   1  23
ATOM     21  C   UNL     1       1.071  10.129  21.566  0.00  0.00    +0.000 C 
ATOM     22  C   UNL     1       0.297  10.479  20.317  0.00  0.00    +0.000 A 
ATOM     23  C   UNL     1       0.437   9.667  19.163  0.00  0.00    +0.000 A 
ATOM     24  C   UNL     1      -0.397   9.848  18.057  0.00  0.00    +0.000 A 
ATOM     25  C   UNL     1      -1.330  10.872  18.047  0.00  0.00    +0.000 A 
ATOM     26  C   UNL     1      -1.434  11.720  19.146  0.00  0.00    +0.000 A 
ATOM     27  C   UNL     1      -0.634  11.567  20.305  0.00  0.00    +0.000 A 
BRANCH  27  28
ATOM     28  C   UNL     1      -0.807  12.553  21.423  0.00  0.00    +0.000 A 
ATOM     29  C   UNL     1       0.028  13.677  21.570  0.00  0.00    +0.000 A 
ATOM     30  C   UNL     1      -0.130  14.606  22.601  0.00  0.00    +0.000 A 
ATOM     31  C   UNL     1      -1.202  14.486  23.465  0.00  0.00    +0.000 A 
ATOM     32  C   UNL     1      -2.093  13.425  23.316  0.00  0.00    +0.000 A 
ATOM     33  C   UNL     1      -1.867  12.443  22.346  0.00  0.00    +0.000 A 
ATOM     34  O   UNL     1      -3.228  13.290  24.079  0.00  0.00    +0.000 OA
ATOM     35  C   UNL     1      -3.544  14.522  24.740  0.00  0.00    +0.000 C 
ATOM     36  C   UNL     1      -2.300  15.092  25.400  0.00  0.00    +0.000 C 
ATOM     37  O   UNL     1      -1.336  15.466  24.413  0.00  0.00    +0.000 OA
ENDBRANCH  27  28
ENDBRANCH   1  23
TORSDOF 8
ENDMDL
MODEL 7
REMARK VINA RESULT:      -7.9      2.882     10.953
REMARK  Name = 
REMARK  9 active torsions:
REMARK  status: ('A' for Active; 'I' for Inactive)
REMARK    1  A    between atoms: C_1  and  C_2
REMARK    2  A    between atoms: C_3  and  N_4
REMARK    3  A    between atoms: C_5  and  C_7
REMARK    4  A    between atoms: C_9  and  C_10
REMARK    5  A    between atoms: C_10  and  N_11
REMARK    6  A    between atoms: N_11  and  C_12
REMARK    7  A    between atoms: C_12  and  C_13
REMARK    8  A    between atoms: C_13  and  O_14
REMARK    9  A    between atoms: C_24  and  C_25
REMARK                            x       y       z     vdW  Elec       q    Type
REMARK                         _______ _______ _______ _____ _____    ______ ____
ROOT
ATOM      1  N   UNL     1       1.212   8.611  19.236  0.00  0.00    +0.000 N 
ATOM      2  C   UNL     1       2.155   8.407  18.245  0.00  0.00    +0.000 C 
ATOM      3  O   UNL     1       2.412   9.204  17.346  0.00  0.00    +0.000 OA
ATOM      4  H   UNL     1       0.870   7.776  19.707  0.00  0.00    +0.000 HD
ENDROOT
BRANCH   2   5
ATOM      5  C   UNL     1       2.888   7.095  18.337  0.00  0.00    +0.000 A 
ATOM      6  C   UNL     1       3.984   6.924  17.562  0.00  0.00    +0.000 A 
ATOM      7  C   UNL     1       4.920   5.801  17.757  0.00  0.00    +0.000 A 
ATOM      8  C   UNL     1       4.634   4.913  18.722  0.00  0.00    +0.000 A 
ATOM      9  N   UNL     1       3.472   5.053  19.462  0.00  0.00    +0.000 N 
ATOM     10  C   UNL     1       2.960   4.294  20.475  0.00  0.00    +0.000 A 
ATOM     11  N   UNL     1       1.791   4.772  20.849  0.00  0.00    +0.000 NA
ATOM     12  N   UNL     1       1.537   5.899  20.096  0.00  0.00    +0.000 NA
ATOM     13  C   UNL     1       2.565   6.084  19.285  0.00  0.00    +0.000 A 
BRANCH   7  14
ATOM     14  C   UNL     1       6.176   5.764  16.928  0.00  0.00    +0.000 C 
BRANCH  14  15
ATOM     15  N   UNL     1       6.896   7.030  17.066  0.00  0.00    +0.000 NA
ATOM     16  H   UNL     1       6.206   7.772  17.168  0.00  0.00    +0.000 HD
BRANCH  15  17
ATOM     17  C   UNL     1       7.757   7.021  18.257  0.00  0.00    +0.000 C 
BRANCH  17  18
ATOM     18  C   UNL     1       7.941   5.589  18.773  0.00  0.00    +0.000 C 
BRANCH  18  19
ATOM     19  O   UNL     1       7.948   5.578  20.199  0.00  0.00    +0.000 OA
ATOM     20  H   UNL     1       7.171   6.096  20.472  0.00  0.00    +0.000 HD
ENDBRANCH  18  19
ENDBRANCH  17  18
ENDBRANCH  15  17
ENDBRANCH  14  15
ENDBRANCH   7  14
ENDBRANCH   2   5
BRANCH   1  23
ATOM     21  C   UNL     1       0.972  10.181  21.721  0.00  0.00    +0.000 C 
ATOM     22  C   UNL     1       0.261  10.576  20.448  0.00  0.00    +0.000 A 
ATOM     23  C   UNL     1       0.377   9.749  19.303  0.00  0.00    +0.000 A 
ATOM     24  C   UNL     1      -0.411   9.980  18.172  0.00  0.00    +0.000 A 
ATOM     25  C   UNL     1      -1.269  11.066  18.130  0.00  0.00    +0.000 A 
ATOM     26  C   UNL     1      -1.345  11.927  19.223  0.00  0.00    +0.000 A 
ATOM     27  C   UNL     1      -0.591  11.726  20.405  0.00  0.00    +0.000 A 
BRANCH  27  28
ATOM     28  C   UNL     1      -0.727  12.728  21.513  0.00  0.00    +0.000 A 
ATOM     29  C   UNL     1       0.116  13.851  21.619  0.00  0.00    +0.000 A 
ATOM     30  C   UNL     1      -0.008  14.796  22.640  0.00  0.00    +0.000 A 
ATOM     31  C   UNL     1      -1.053  14.693  23.537  0.00  0.00    +0.000 A 
ATOM     32  C   UNL     1      -1.953  13.634  23.430  0.00  0.00    +0.000 A 
ATOM     33  C   UNL     1      -1.760  12.637  22.468  0.00  0.00    +0.000 A 
ATOM     34  O   UNL     1      -3.065  13.515  24.228  0.00  0.00    +0.000 OA
ATOM     35  C   UNL     1      -3.357  14.758  24.880  0.00  0.00    +0.000 C 
ATOM     36  C   UNL     1      -2.092  15.331  25.495  0.00  0.00    +0.000 C 
ATOM     37  O   UNL     1      -1.156  15.687  24.475  0.00  0.00    +0.000 OA
ENDBRANCH  27  28
ENDBRANCH   1  23
TORSDOF 8
ENDMDL
MODEL 8
REMARK VINA RESULT:      -7.9      2.497     11.282
REMARK  Name = 
REMARK  9 active torsions:
REMARK  status: ('A' for Active; 'I' for Inactive)
REMARK    1  A    between atoms: C_1  and  C_2
REMARK    2  A    between atoms: C_3  and  N_4
REMARK    3  A    between atoms: C_5  and  C_7
REMARK    4  A    between atoms: C_9  and  C_10
REMARK    5  A    between atoms: C_10  and  N_11
REMARK    6  A    between atoms: N_11  and  C_12
REMARK    7  A    between atoms: C_12  and  C_13
REMARK    8  A    between atoms: C_13  and  O_14
REMARK    9  A    between atoms: C_24  and  C_25
REMARK                            x       y       z     vdW  Elec       q    Type
REMARK                         _______ _______ _______ _____ _____    ______ ____
ROOT
ATOM      1  N   UNL     1       1.876   8.480  19.494  0.00  0.00    +0.000 N 
ATOM      2  C   UNL     1       2.433   7.957  18.340  0.00  0.00    +0.000 C 
ATOM      3  O   UNL     1       2.458   8.527  17.252  0.00  0.00    +0.000 OA
ATOM      4  H   UNL     1       1.631   7.808  20.217  0.00  0.00    +0.000 HD
ENDROOT
BRANCH   2   5
ATOM      5  C   UNL     1       3.039   6.588  18.502  0.00  0.00    +0.000 A 
ATOM      6  C   UNL     1       4.137   6.290  17.770  0.00  0.00    +0.000 A 
ATOM      7  C   UNL     1       4.960   5.095  18.034  0.00  0.00    +0.000 A 
ATOM      8  C   UNL     1       4.565   4.272  19.019  0.00  0.00    +0.000 A 
ATOM      9  N   UNL     1       3.399   4.545  19.715  0.00  0.00    +0.000 N 
ATOM     10  C   UNL     1       2.790   3.873  20.736  0.00  0.00    +0.000 A 
ATOM     11  N   UNL     1       1.659   4.469  21.054  0.00  0.00    +0.000 NA
ATOM     12  N   UNL     1       1.532   5.586  20.255  0.00  0.00    +0.000 NA
ATOM     13  C   UNL     1       2.596   5.647  19.473  0.00  0.00    +0.000 A 
BRANCH   7  14
ATOM     14  C   UNL     1       6.231   4.913  17.249  0.00  0.00    +0.000 C 
BRANCH  14  15
ATOM     15  N   UNL     1       6.081   3.796  16.317  0.00  0.00    +0.000 NA
ATOM     16  H   UNL     1       5.455   3.116  16.744  0.00  0.00    +0.000 HD
BRANCH  15  17
ATOM     17  C   UNL     1       5.493   4.243  15.047  0.00  0.00    +0.000 C 
BRANCH  17  18
ATOM     18  C   UNL     1       6.547   4.217  13.933  0.00  0.00    +0.000 C 
BRANCH  18  19
ATOM     19  O   UNL     1       6.300   3.124  13.049  0.00  0.00    +0.000 OA
ATOM     20  H   UNL     1       7.147   2.652  12.969  0.00  0.00    +0.000 HD
ENDBRANCH  18  19
ENDBRANCH  17  18
ENDBRANCH  15  17
ENDBRANCH  14  15
ENDBRANCH   7  14
ENDBRANCH   2   5
BRANCH   1  23
ATOM     21  C   UNL     1      -0.482   8.872  21.222  0.00  0.00    +0.000 C 
ATOM     22  C   UNL     1       0.106   9.993  20.397  0.00  0.00    +0.000 A 
ATOM     23  C   UNL     1       1.210   9.725  19.549  0.00  0.00    +0.000 A 
ATOM     24  C   UNL     1       1.660  10.685  18.638  0.00  0.00    +0.000 A 
ATOM     25  C   UNL     1       1.075  11.939  18.601  0.00  0.00    +0.000 A 
ATOM     26  C   UNL     1       0.034  12.240  19.476  0.00  0.00    +0.000 A 
ATOM     27  C   UNL     1      -0.482  11.298  20.400  0.00  0.00    +0.000 A 
BRANCH  27  28
ATOM     28  C   UNL     1      -1.587  11.734  21.316  0.00  0.00    +0.000 A 
ATOM     29  C   UNL     1      -1.477  11.655  22.718  0.00  0.00    +0.000 A 
ATOM     30  C   UNL     1      -2.495  12.067  23.580  0.00  0.00    +0.000 A 
ATOM     31  C   UNL     1      -3.626  12.665  23.059  0.00  0.00    +0.000 A 
ATOM     32  C   UNL     1      -3.749  12.825  21.679  0.00  0.00    +0.000 A 
ATOM     33  C   UNL     1      -2.771  12.316  20.819  0.00  0.00    +0.000 A 
ATOM     34  O   UNL     1      -4.801  13.489  21.095  0.00  0.00    +0.000 OA
ATOM     35  C   UNL     1      -5.504  14.278  22.064  0.00  0.00    +0.000 C 
ATOM     36  C   UNL     1      -5.781  13.449  23.307  0.00  0.00    +0.000 C 
ATOM     37  O   UNL     1      -4.558  13.104  23.962  0.00  0.00    +0.000 OA
ENDBRANCH  27  28
ENDBRANCH   1  23
TORSDOF 8
ENDMDL
MODEL 9
REMARK VINA RESULT:      -7.9      2.840     11.028
REMARK  Name = 
REMARK  9 active torsions:
REMARK  status: ('A' for Active; 'I' for Inactive)
REMARK    1  A    between atoms: C_1  and  C_2
REMARK    2  A    between atoms: C_3  and  N_4
REMARK    3  A    between atoms: C_5  and  C_7
REMARK    4  A    between atoms: C_9  and  C_10
REMARK    5  A    between atoms: C_10  and  N_11
REMARK    6  A    between atoms: N_11  and  C_12
REMARK    7  A    between atoms: C_12  and  C_13
REMARK    8  A    between atoms: C_13  and  O_14
REMARK    9  A    between atoms: C_24  and  C_25
REMARK                            x       y       z     vdW  Elec       q    Type
REMARK                         _______ _______ _______ _____ _____    ______ ____
ROOT
ATOM      1  N   UNL     1       1.742   8.189  19.415  0.00  0.00    +0.000 N 
ATOM      2  C   UNL     1       2.543   7.755  18.373  0.00  0.00    +0.000 C 
ATOM      3  O   UNL     1       2.907   8.452  17.430  0.00  0.00    +0.000 OA
ATOM      4  H   UNL     1       1.257   7.464  19.938  0.00  0.00    +0.000 HD
ENDROOT
BRANCH   2   5
ATOM      5  C   UNL     1       2.967   6.313  18.468  0.00  0.00    +0.000 A 
ATOM      6  C   UNL     1       3.864   5.855  17.565  0.00  0.00    +0.000 A 
ATOM      7  C   UNL     1       4.543   4.554  17.717  0.00  0.00    +0.000 A 
ATOM      8  C   UNL     1       4.215   3.803  18.780  0.00  0.00    +0.000 A 
ATOM      9  N   UNL     1       3.242   4.244  19.660  0.00  0.00    +0.000 N 
ATOM     10  C   UNL     1       2.734   3.673  20.792  0.00  0.00    +0.000 A 
ATOM     11  N   UNL     1       1.773   4.429  21.284  0.00  0.00    +0.000 NA
ATOM     12  N   UNL     1       1.667   5.549  20.486  0.00  0.00    +0.000 NA
ATOM     13  C   UNL     1       2.574   5.450  19.529  0.00  0.00    +0.000 A 
BRANCH   7  14
ATOM     14  C   UNL     1       5.616   4.186  16.728  0.00  0.00    +0.000 C 
BRANCH  14  15
ATOM     15  N   UNL     1       6.736   5.119  16.846  0.00  0.00    +0.000 NA
ATOM     16  H   UNL     1       6.354   6.044  17.036  0.00  0.00    +0.000 HD
BRANCH  15  17
ATOM     17  C   UNL     1       7.625   4.741  17.954  0.00  0.00    +0.000 C 
BRANCH  17  18
ATOM     18  C   UNL     1       7.758   5.899  18.951  0.00  0.00    +0.000 C 
BRANCH  18  19
ATOM     19  O   UNL     1       7.906   5.391  20.275  0.00  0.00    +0.000 OA
ATOM     20  H   UNL     1       8.842   5.140  20.360  0.00  0.00    +0.000 HD
ENDBRANCH  18  19
ENDBRANCH  17  18
ENDBRANCH  15  17
ENDBRANCH  14  15
ENDBRANCH   7  14
ENDBRANCH   2   5
BRANCH   1  23
ATOM     21  C   UNL     1      -0.462   8.802  21.276  0.00  0.00    +0.000 C 
ATOM     22  C   UNL     1       0.170   9.860  20.402  0.00  0.00    +0.000 A 
ATOM     23  C   UNL     1       1.192   9.488  19.492  0.00  0.00    +0.000 A 
ATOM     24  C   UNL     1       1.667  10.396  18.542  0.00  0.00    +0.000 A 
ATOM     25  C   UNL     1       1.192  11.697  18.523  0.00  0.00    +0.000 A 
ATOM     26  C   UNL     1       0.238  12.096  19.455  0.00  0.00    +0.000 A 
ATOM     27  C   UNL     1      -0.300  11.212  20.422  0.00  0.00    +0.000 A 
BRANCH  27  28
ATOM     28  C   UNL     1      -1.304  11.751  21.397  0.00  0.00    +0.000 A 
ATOM     29  C   UNL     1      -1.045  11.826  22.779  0.00  0.00    +0.000 A 
ATOM     30  C   UNL     1      -1.969  12.336  23.694  0.00  0.00    +0.000 A 
ATOM     31  C   UNL     1      -3.153  12.879  23.234  0.00  0.00    +0.000 A 
ATOM     32  C   UNL     1      -3.423  12.886  21.866  0.00  0.00    +0.000 A 
ATOM     33  C   UNL     1      -2.538  12.281  20.968  0.00  0.00    +0.000 A 
ATOM     34  O   UNL     1      -4.535  13.487  21.328  0.00  0.00    +0.000 OA
ATOM     35  C   UNL     1      -5.136  14.382  22.274  0.00  0.00    +0.000 C 
ATOM     36  C   UNL     1      -5.274  13.696  23.622  0.00  0.00    +0.000 C 
ATOM     37  O   UNL     1      -3.986  13.419  24.178  0.00  0.00    +0.000 OA
ENDBRANCH  27  28
ENDBRANCH   1  23
TORSDOF 8
ENDMDL
