MODEL 1
REMARK VINA RESULT:      -5.9      0.000      0.000
REMARK  Name = 
REMARK  25 active torsions:
REMARK  status: ('A' for Active; 'I' for Inactive)
REMARK    1  A    between atoms: C_1  and  C_2
REMARK    2  A    between atoms: C_2  and  C_3
REMARK    3  A    between atoms: C_3  and  C_4
REMARK    4  A    between atoms: C_4  and  C_5
REMARK    5  A    between atoms: C_5  and  C_6
REMARK    6  A    between atoms: C_6  and  C_7
REMARK    7  A    between atoms: C_7  and  C_8
REMARK    8  A    between atoms: C_8  and  C_9
REMARK    9  A    between atoms: C_9  and  C_10
REMARK   10  A    between atoms: C_10  and  C_11
REMARK   11  A    between atoms: C_11  and  C_12
REMARK   12  A    between atoms: C_12  and  C_13
REMARK   13  A    between atoms: C_13  and  C_14
REMARK   14  A    between atoms: C_14  and  C_15
REMARK   15  A    between atoms: C_15  and  C_16
REMARK   16  A    between atoms: N_18  and  C_19
REMARK   17  A    between atoms: C_19  and  C_20
REMARK   18  A    between atoms: C_19  and  C_24
REMARK   19  A    between atoms: C_20  and  C_21
REMARK   20  A    between atoms: C_21  and  C_22
REMARK   21  A    between atoms: C_21  and  C_23
REMARK   22  A    between atoms: C_24  and  C_26
REMARK   23  A    between atoms: C_26  and  P_27
REMARK   24  A    between atoms: P_27  and  O_29
REMARK   25  A    between atoms: P_27  and  O_30
REMARK                            x       y       z     vdW  Elec       q    Type
REMARK                         _______ _______ _______ _____ _____    ______ ____
ROOT
ATOM      1  C   UNL     1       1.790  10.043  18.122  0.00  0.00    +0.000 C 
ATOM      2  O   UNL     1       2.374  11.094  17.889  0.00  0.00    +0.000 OA
ATOM      3  N   UNL     1       0.446   9.927  18.435  0.00  0.00    +0.000 N 
ATOM      4  H   UNL     1       0.110   8.969  18.416  0.00  0.00    +0.000 HD
ENDROOT
BRANCH   3   5
ATOM      5  C   UNL     1      -0.555  11.025  18.494  0.00  0.00    +0.000 C 
BRANCH   5   6
ATOM      6  C   UNL     1      -0.439  11.840  19.823  0.00  0.00    +0.000 C 
ATOM      7  O   UNL     1       0.183  12.905  19.890  0.00  0.00    +0.000 OA
BRANCH   6   8
ATOM      8  C   UNL     1      -1.055  11.292  21.075  0.00  0.00    +0.000 C 
BRANCH   8   9
ATOM      9  P   UNL     1      -0.133  10.040  21.936  0.00  0.00    +0.000 P 
ATOM     10  O   UNL     1      -0.433   8.643  21.506  0.00  0.00    +0.000 OA
BRANCH   9  11
ATOM     11  O   UNL     1      -0.287  10.334  23.507  0.00  0.00    +0.000 OA
ATOM     12  H   UNL     1      -0.952   9.879  24.069  0.00  0.00    +0.000 HD
ENDBRANCH   9  11
BRANCH   9  13
ATOM     13  O   UNL     1       1.390  10.442  21.601  0.00  0.00    +0.000 OA
ATOM     14  H   UNL     1       1.489  10.942  20.767  0.00  0.00    +0.000 HD
ENDBRANCH   9  13
ENDBRANCH   8   9
ENDBRANCH   6   8
ENDBRANCH   5   6
BRANCH   5  15
ATOM     15  C   UNL     1      -2.006  10.531  18.235  0.00  0.00    +0.000 C 
BRANCH  15  16
ATOM     16  C   UNL     1      -2.742  11.092  16.993  0.00  0.00    +0.000 C 
ATOM     17  C   UNL     1      -2.607  10.155  15.786  0.00  0.00    +0.000 C 
ATOM     18  C   UNL     1      -4.231  11.320  17.217  0.00  0.00    +0.000 C 
ENDBRANCH  15  16
ENDBRANCH   5  15
ENDBRANCH   3   5
BRANCH   1  19
ATOM     19  C   UNL     1       2.487   8.693  18.068  0.00  0.00    +0.000 C 
BRANCH  19  20
ATOM     20  C   UNL     1       1.679   7.607  18.770  0.00  0.00    +0.000 C 
BRANCH  20  21
ATOM     21  C   UNL     1       2.494   6.849  19.813  0.00  0.00    +0.000 C 
BRANCH  21  22
ATOM     22  C   UNL     1       1.656   5.748  20.460  0.00  0.00    +0.000 C 
BRANCH  22  23
ATOM     23  C   UNL     1       2.210   4.369  20.120  0.00  0.00    +0.000 C 
BRANCH  23  24
ATOM     24  C   UNL     1       1.591   3.824  18.834  0.00  0.00    +0.000 C 
BRANCH  24  25
ATOM     25  C   UNL     1       2.415   4.246  17.622  0.00  0.00    +0.000 C 
BRANCH  25  26
ATOM     26  C   UNL     1       3.778   3.560  17.616  0.00  0.00    +0.000 C 
BRANCH  26  27
ATOM     27  C   UNL     1       4.898   4.587  17.739  0.00  0.00    +0.000 C 
BRANCH  27  28
ATOM     28  C   UNL     1       4.544   5.872  16.995  0.00  0.00    +0.000 C 
BRANCH  28  29
ATOM     29  C   UNL     1       5.203   5.897  15.619  0.00  0.00    +0.000 C 
BRANCH  29  30
ATOM     30  C   UNL     1       6.693   5.583  15.720  0.00  0.00    +0.000 C 
BRANCH  30  31
ATOM     31  C   UNL     1       7.059   4.403  14.823  0.00  0.00    +0.000 C 
BRANCH  31  33
ATOM     32  C   UNL     1       6.238   3.615  12.582  0.00  0.00    +0.000 C 
ATOM     33  C   UNL     1       5.851   3.930  14.018  0.00  0.00    +0.000 C 
ENDBRANCH  31  33
ENDBRANCH  30  31
ENDBRANCH  29  30
ENDBRANCH  28  29
ENDBRANCH  27  28
ENDBRANCH  26  27
ENDBRANCH  25  26
ENDBRANCH  24  25
ENDBRANCH  23  24
ENDBRANCH  22  23
ENDBRANCH  21  22
ENDBRANCH  20  21
ENDBRANCH  19  20
ENDBRANCH   1  19
TORSDOF 22
ENDMDL
MODEL 2
REMARK VINA RESULT:      -5.7      4.053      9.043
REMARK  Name = 
REMARK  25 active torsions:
REMARK  status: ('A' for Active; 'I' for Inactive)
REMARK    1  A    between atoms: C_1  and  C_2
REMARK    2  A    between atoms: C_2  and  C_3
REMARK    3  A    between atoms: C_3  and  C_4
REMARK    4  A    between atoms: C_4  and  C_5
REMARK    5  A    between atoms: C_5  and  C_6
REMARK    6  A    between atoms: C_6  and  C_7
REMARK    7  A    between atoms: C_7  and  C_8
REMARK    8  A    between atoms: C_8  and  C_9
REMARK    9  A    between atoms: C_9  and  C_10
REMARK   10  A    between atoms: C_10  and  C_11
REMARK   11  A    between atoms: C_11  and  C_12
REMARK   12  A    between atoms: C_12  and  C_13
REMARK   13  A    between atoms: C_13  and  C_14
REMARK   14  A    between atoms: C_14  and  C_15
REMARK   15  A    between atoms: C_15  and  C_16
REMARK   16  A    between atoms: N_18  and  C_19
REMARK   17  A    between atoms: C_19  and  C_20
REMARK   18  A    between atoms: C_19  and  C_24
REMARK   19  A    between atoms: C_20  and  C_21
REMARK   20  A    between atoms: C_21  and  C_22
REMARK   21  A    between atoms: C_21  and  C_23
REMARK   22  A    between atoms: C_24  and  C_26
REMARK   23  A    between atoms: C_26  and  P_27
REMARK   24  A    between atoms: P_27  and  O_29
REMARK   25  A    between atoms: P_27  and  O_30
REMARK                            x       y       z     vdW  Elec       q    Type
REMARK                         _______ _______ _______ _____ _____    ______ ____
ROOT
ATOM      1  C   UNL     1       4.149   4.265  17.109  0.00  0.00    +0.000 C 
ATOM      2  O   UNL     1       4.006   5.451  16.838  0.00  0.00    +0.000 OA
ATOM      3  N   UNL     1       5.076   3.417  16.526  0.00  0.00    +0.000 N 
ATOM      4  H   UNL     1       5.164   2.526  17.004  0.00  0.00    +0.000 HD
ENDROOT
BRANCH   3   5
ATOM      5  C   UNL     1       6.105   3.780  15.515  0.00  0.00    +0.000 C 
BRANCH   5   6
ATOM      6  C   UNL     1       7.134   4.811  16.085  0.00  0.00    +0.000 C 
ATOM      7  O   UNL     1       7.584   5.737  15.402  0.00  0.00    +0.000 OA
BRANCH   6   8
ATOM      8  C   UNL     1       7.637   4.647  17.487  0.00  0.00    +0.000 C 
BRANCH   8   9
ATOM      9  P   UNL     1       7.311   5.983  18.614  0.00  0.00    +0.000 P 
ATOM     10  O   UNL     1       8.486   6.858  18.893  0.00  0.00    +0.000 OA
BRANCH   9  11
ATOM     11  O   UNL     1       6.589   5.351  19.901  0.00  0.00    +0.000 OA
ATOM     12  H   UNL     1       6.771   4.439  20.217  0.00  0.00    +0.000 HD
ENDBRANCH   9  11
BRANCH   9  13
ATOM     13  O   UNL     1       6.142   6.794  17.858  0.00  0.00    +0.000 OA
ATOM     14  H   UNL     1       6.472   7.416  17.180  0.00  0.00    +0.000 HD
ENDBRANCH   9  13
ENDBRANCH   8   9
ENDBRANCH   6   8
ENDBRANCH   5   6
BRANCH   5  15
ATOM     15  C   UNL     1       5.486   4.254  14.170  0.00  0.00    +0.000 C 
BRANCH  15  16
ATOM     16  C   UNL     1       5.950   3.538  12.878  0.00  0.00    +0.000 C 
ATOM     17  C   UNL     1       4.796   3.369  11.880  0.00  0.00    +0.000 C 
ATOM     18  C   UNL     1       7.070   4.265  12.145  0.00  0.00    +0.000 C 
ENDBRANCH  15  16
ENDBRANCH   5  15
ENDBRANCH   3   5
BRANCH   1  19
ATOM     19  C   UNL     1       3.316   3.564  18.170  0.00  0.00    +0.000 C 
BRANCH  19  20
ATOM     20  C   UNL     1       3.781   3.910  19.580  0.00  0.00    +0.000 C 
BRANCH  20  21
ATOM     21  C   UNL     1       2.619   4.146  20.540  0.00  0.00    +0.000 C 
BRANCH  21  22
ATOM     22  C   UNL     1       1.704   5.255  20.022  0.00  0.00    +0.000 C 
BRANCH  22  23
ATOM     23  C   UNL     1       2.182   6.623  20.495  0.00  0.00    +0.000 C 
BRANCH  23  24
ATOM     24  C   UNL     1       1.014   7.487  20.965  0.00  0.00    +0.000 C 
BRANCH  24  25
ATOM     25  C   UNL     1       1.160   8.914  20.445  0.00  0.00    +0.000 C 
BRANCH  25  26
ATOM     26  C   UNL     1       0.336   9.891  21.277  0.00  0.00    +0.000 C 
BRANCH  26  27
ATOM     27  C   UNL     1       0.040  11.158  20.482  0.00  0.00    +0.000 C 
BRANCH  27  28
ATOM     28  C   UNL     1      -1.269  11.795  20.939  0.00  0.00    +0.000 C 
BRANCH  28  29
ATOM     29  C   UNL     1      -2.080  12.280  19.741  0.00  0.00    +0.000 C 
BRANCH  29  30
ATOM     30  C   UNL     1      -1.599  11.619  18.452  0.00  0.00    +0.000 C 
BRANCH  30  31
ATOM     31  C   UNL     1      -2.617  10.594  17.957  0.00  0.00    +0.000 C 
BRANCH  31  33
ATOM     32  C   UNL     1      -3.012   9.855  15.588  0.00  0.00    +0.000 C 
ATOM     33  C   UNL     1      -2.066   9.800  16.776  0.00  0.00    +0.000 C 
ENDBRANCH  31  33
ENDBRANCH  30  31
ENDBRANCH  29  30
ENDBRANCH  28  29
ENDBRANCH  27  28
ENDBRANCH  26  27
ENDBRANCH  25  26
ENDBRANCH  24  25
ENDBRANCH  23  24
ENDBRANCH  22  23
ENDBRANCH  21  22
ENDBRANCH  20  21
ENDBRANCH  19  20
ENDBRANCH   1  19
TORSDOF 22
ENDMDL
MODEL 3
REMARK VINA RESULT:      -5.5      6.614      9.177
REMARK  Name = 
REMARK  25 active torsions:
REMARK  status: ('A' for Active; 'I' for Inactive)
REMARK    1  A    between atoms: C_1  and  C_2
REMARK    2  A    between atoms: C_2  and  C_3
REMARK    3  A    between atoms: C_3  and  C_4
REMARK    4  A    between atoms: C_4  and  C_5
REMARK    5  A    between atoms: C_5  and  C_6
REMARK    6  A    between atoms: C_6  and  C_7
REMARK    7  A    between atoms: C_7  and  C_8
REMARK    8  A    between atoms: C_8  and  C_9
REMARK    9  A    between atoms: C_9  and  C_10
REMARK   10  A    between atoms: C_10  and  C_11
REMARK   11  A    between atoms: C_11  and  C_12
REMARK   12  A    between atoms: C_12  and  C_13
REMARK   13  A    between atoms: C_13  and  C_14
REMARK   14  A    between atoms: C_14  and  C_15
REMARK   15  A    between atoms: C_15  and  C_16
REMARK   16  A    between atoms: N_18  and  C_19
REMARK   17  A    between atoms: C_19  and  C_20
REMARK   18  A    between atoms: C_19  and  C_24
REMARK   19  A    between atoms: C_20  and  C_21
REMARK   20  A    between atoms: C_21  and  C_22
REMARK   21  A    between atoms: C_21  and  C_23
REMARK   22  A    between atoms: C_24  and  C_26
REMARK   23  A    between atoms: C_26  and  P_27
REMARK   24  A    between atoms: P_27  and  O_29
REMARK   25  A    between atoms: P_27  and  O_30
REMARK                            x       y       z     vdW  Elec       q    Type
REMARK                         _______ _______ _______ _____ _____    ______ ____
ROOT
ATOM      1  C   UNL     1       6.692   6.224  18.288  0.00  0.00    +0.000 C 
ATOM      2  O   UNL     1       6.789   5.635  19.358  0.00  0.00    +0.000 OA
ATOM      3  N   UNL     1       5.537   6.322  17.530  0.00  0.00    +0.000 N 
ATOM      4  H   UNL     1       5.608   6.995  16.774  0.00  0.00    +0.000 HD
ENDROOT
BRANCH   3   5
ATOM      5  C   UNL     1       4.192   5.794  17.881  0.00  0.00    +0.000 C 
BRANCH   5   6
ATOM      6  C   UNL     1       3.973   4.351  17.318  0.00  0.00    +0.000 C 
ATOM      7  O   UNL     1       4.500   3.968  16.269  0.00  0.00    +0.000 OA
BRANCH   6   8
ATOM      8  C   UNL     1       3.053   3.414  18.041  0.00  0.00    +0.000 C 
BRANCH   8   9
ATOM      9  P   UNL     1       3.797   2.336  19.243  0.00  0.00    +0.000 P 
ATOM     10  O   UNL     1       3.770   0.889  18.879  0.00  0.00    +0.000 OA
BRANCH   9  11
ATOM     11  O   UNL     1       3.161   2.707  20.670  0.00  0.00    +0.000 OA
ATOM     12  H   UNL     1       2.193   2.792  20.813  0.00  0.00    +0.000 HD
ENDBRANCH   9  11
BRANCH   9  13
ATOM     13  O   UNL     1       5.306   2.893  19.320  0.00  0.00    +0.000 OA
ATOM     14  H   UNL     1       5.598   3.348  18.505  0.00  0.00    +0.000 HD
ENDBRANCH   9  13
ENDBRANCH   8   9
ENDBRANCH   6   8
ENDBRANCH   5   6
BRANCH   5  15
ATOM     15  C   UNL     1       3.042   6.760  17.477  0.00  0.00    +0.000 C 
BRANCH  15  16
ATOM     16  C   UNL     1       2.737   7.945  18.425  0.00  0.00    +0.000 C 
ATOM     17  C   UNL     1       1.805   8.970  17.767  0.00  0.00    +0.000 C 
ATOM     18  C   UNL     1       2.084   7.525  19.736  0.00  0.00    +0.000 C 
ENDBRANCH  15  16
ENDBRANCH   5  15
ENDBRANCH   3   5
BRANCH   1  19
ATOM     19  C   UNL     1       7.860   6.963  17.655  0.00  0.00    +0.000 C 
BRANCH  19  20
ATOM     20  C   UNL     1       8.222   8.225  18.429  0.00  0.00    +0.000 C 
BRANCH  20  21
ATOM     21  C   UNL     1       8.158   9.482  17.567  0.00  0.00    +0.000 C 
BRANCH  21  22
ATOM     22  C   UNL     1       9.036  10.587  18.153  0.00  0.00    +0.000 C 
BRANCH  22  23
ATOM     23  C   UNL     1       9.138  10.457  19.669  0.00  0.00    +0.000 C 
BRANCH  23  24
ATOM     24  C   UNL     1      10.245  11.347  20.229  0.00  0.00    +0.000 C 
BRANCH  24  25
ATOM     25  C   UNL     1      11.281  11.655  19.152  0.00  0.00    +0.000 C 
BRANCH  25  26
ATOM     26  C   UNL     1      12.315  12.659  19.652  0.00  0.00    +0.000 C 
BRANCH  26  27
ATOM     27  C   UNL     1      12.050  14.041  19.065  0.00  0.00    +0.000 C 
BRANCH  27  28
ATOM     28  C   UNL     1      11.126  13.953  17.854  0.00  0.00    +0.000 C 
BRANCH  28  29
ATOM     29  C   UNL     1       9.945  14.907  18.006  0.00  0.00    +0.000 C 
BRANCH  29  30
ATOM     30  C   UNL     1       8.798  14.241  18.761  0.00  0.00    +0.000 C 
BRANCH  30  31
ATOM     31  C   UNL     1       7.699  13.801  17.796  0.00  0.00    +0.000 C 
BRANCH  31  33
ATOM     32  C   UNL     1       6.173  15.170  19.249  0.00  0.00    +0.000 C 
ATOM     33  C   UNL     1       6.523  14.773  17.824  0.00  0.00    +0.000 C 
ENDBRANCH  31  33
ENDBRANCH  30  31
ENDBRANCH  29  30
ENDBRANCH  28  29
ENDBRANCH  27  28
ENDBRANCH  26  27
ENDBRANCH  25  26
ENDBRANCH  24  25
ENDBRANCH  23  24
ENDBRANCH  22  23
ENDBRANCH  21  22
ENDBRANCH  20  21
ENDBRANCH  19  20
ENDBRANCH   1  19
TORSDOF 22
ENDMDL
MODEL 4
REMARK VINA RESULT:      -5.5      7.133     10.262
REMARK  Name = 
REMARK  25 active torsions:
REMARK  status: ('A' for Active; 'I' for Inactive)
REMARK    1  A    between atoms: C_1  and  C_2
REMARK    2  A    between atoms: C_2  and  C_3
REMARK    3  A    between atoms: C_3  and  C_4
REMARK    4  A    between atoms: C_4  and  C_5
REMARK    5  A    between atoms: C_5  and  C_6
REMARK    6  A    between atoms: C_6  and  C_7
REMARK    7  A    between atoms: C_7  and  C_8
REMARK    8  A    between atoms: C_8  and  C_9
REMARK    9  A    between atoms: C_9  and  C_10
REMARK   10  A    between atoms: C_10  and  C_11
REMARK   11  A    between atoms: C_11  and  C_12
REMARK   12  A    between atoms: C_12  and  C_13
REMARK   13  A    between atoms: C_13  and  C_14
REMARK   14  A    between atoms: C_14  and  C_15
REMARK   15  A    between atoms: C_15  and  C_16
REMARK   16  A    between atoms: N_18  and  C_19
REMARK   17  A    between atoms: C_19  and  C_20
REMARK   18  A    between atoms: C_19  and  C_24
REMARK   19  A    between atoms: C_20  and  C_21
REMARK   20  A    between atoms: C_21  and  C_22
REMARK   21  A    between atoms: C_21  and  C_23
REMARK   22  A    between atoms: C_24  and  C_26
REMARK   23  A    between atoms: C_26  and  P_27
REMARK   24  A    between atoms: P_27  and  O_29
REMARK   25  A    between atoms: P_27  and  O_30
REMARK                            x       y       z     vdW  Elec       q    Type
REMARK                         _______ _______ _______ _____ _____    ______ ____
ROOT
ATOM      1  C   UNL     1       7.233   6.300  18.409  0.00  0.00    +0.000 C 
ATOM      2  O   UNL     1       7.893   5.801  19.313  0.00  0.00    +0.000 OA
ATOM      3  N   UNL     1       6.016   5.825  17.950  0.00  0.00    +0.000 N 
ATOM      4  H   UNL     1       5.542   6.469  17.326  0.00  0.00    +0.000 HD
ENDROOT
BRANCH   3   5
ATOM      5  C   UNL     1       5.249   4.669  18.487  0.00  0.00    +0.000 C 
BRANCH   5   6
ATOM      6  C   UNL     1       4.579   3.840  17.343  0.00  0.00    +0.000 C 
ATOM      7  O   UNL     1       4.100   2.718  17.538  0.00  0.00    +0.000 OA
BRANCH   6   8
ATOM      8  C   UNL     1       4.559   4.394  15.950  0.00  0.00    +0.000 C 
BRANCH   8   9
ATOM      9  P   UNL     1       6.074   4.285  15.027  0.00  0.00    +0.000 P 
ATOM     10  O   UNL     1       5.955   3.569  13.724  0.00  0.00    +0.000 OA
BRANCH   9  11
ATOM     11  O   UNL     1       7.200   3.730  16.028  0.00  0.00    +0.000 OA
ATOM     12  H   UNL     1       7.316   4.077  16.940  0.00  0.00    +0.000 HD
ENDBRANCH   9  11
BRANCH   9  13
ATOM     13  O   UNL     1       6.459   5.834  14.811  0.00  0.00    +0.000 OA
ATOM     14  H   UNL     1       5.762   6.352  14.362  0.00  0.00    +0.000 HD
ENDBRANCH   9  13
ENDBRANCH   8   9
ENDBRANCH   6   8
ENDBRANCH   5   6
BRANCH   5  15
ATOM     15  C   UNL     1       4.229   5.083  19.585  0.00  0.00    +0.000 C 
BRANCH  15  16
ATOM     16  C   UNL     1       2.818   5.522  19.120  0.00  0.00    +0.000 C 
ATOM     17  C   UNL     1       1.719   4.672  19.770  0.00  0.00    +0.000 C 
ATOM     18  C   UNL     1       2.499   6.979  19.433  0.00  0.00    +0.000 C 
ENDBRANCH  15  16
ENDBRANCH   5  15
ENDBRANCH   3   5
BRANCH   1  19
ATOM     19  C   UNL     1       7.673   7.558  17.677  0.00  0.00    +0.000 C 
BRANCH  19  20
ATOM     20  C   UNL     1       8.549   8.448  18.550  0.00  0.00    +0.000 C 
BRANCH  20  21
ATOM     21  C   UNL     1       8.530   9.907  18.107  0.00  0.00    +0.000 C 
BRANCH  21  22
ATOM     22  C   UNL     1       9.431  10.757  19.002  0.00  0.00    +0.000 C 
BRANCH  22  23
ATOM     23  C   UNL     1      10.531  11.430  18.188  0.00  0.00    +0.000 C 
BRANCH  23  24
ATOM     24  C   UNL     1      11.804  11.605  19.012  0.00  0.00    +0.000 C 
BRANCH  24  25
ATOM     25  C   UNL     1      11.568  12.575  20.165  0.00  0.00    +0.000 C 
BRANCH  25  26
ATOM     26  C   UNL     1      11.124  13.942  19.653  0.00  0.00    +0.000 C 
BRANCH  26  27
ATOM     27  C   UNL     1       9.912  14.441  20.431  0.00  0.00    +0.000 C 
BRANCH  27  28
ATOM     28  C   UNL     1       9.746  13.670  21.737  0.00  0.00    +0.000 C 
BRANCH  28  29
ATOM     29  C   UNL     1       8.305  13.198  21.906  0.00  0.00    +0.000 C 
BRANCH  29  30
ATOM     30  C   UNL     1       8.256  11.736  22.342  0.00  0.00    +0.000 C 
BRANCH  30  31
ATOM     31  C   UNL     1       8.333  11.623  23.864  0.00  0.00    +0.000 C 
BRANCH  31  33
ATOM     32  C   UNL     1       7.655  12.706  26.027  0.00  0.00    +0.000 C 
ATOM     33  C   UNL     1       7.382  12.610  24.535  0.00  0.00    +0.000 C 
ENDBRANCH  31  33
ENDBRANCH  30  31
ENDBRANCH  29  30
ENDBRANCH  28  29
ENDBRANCH  27  28
ENDBRANCH  26  27
ENDBRANCH  25  26
ENDBRANCH  24  25
ENDBRANCH  23  24
ENDBRANCH  22  23
ENDBRANCH  21  22
ENDBRANCH  20  21
ENDBRANCH  19  20
ENDBRANCH   1  19
TORSDOF 22
ENDMDL
MODEL 5
REMARK VINA RESULT:      -5.4      3.137      8.715
REMARK  Name = 
REMARK  25 active torsions:
REMARK  status: ('A' for Active; 'I' for Inactive)
REMARK    1  A    between atoms: C_1  and  C_2
REMARK    2  A    between atoms: C_2  and  C_3
REMARK    3  A    between atoms: C_3  and  C_4
REMARK    4  A    between atoms: C_4  and  C_5
REMARK    5  A    between atoms: C_5  and  C_6
REMARK    6  A    between atoms: C_6  and  C_7
REMARK    7  A    between atoms: C_7  and  C_8
REMARK    8  A    between atoms: C_8  and  C_9
REMARK    9  A    between atoms: C_9  and  C_10
REMARK   10  A    between atoms: C_10  and  C_11
REMARK   11  A    between atoms: C_11  and  C_12
REMARK   12  A    between atoms: C_12  and  C_13
REMARK   13  A    between atoms: C_13  and  C_14
REMARK   14  A    between atoms: C_14  and  C_15
REMARK   15  A    between atoms: C_15  and  C_16
REMARK   16  A    between atoms: N_18  and  C_19
REMARK   17  A    between atoms: C_19  and  C_20
REMARK   18  A    between atoms: C_19  and  C_24
REMARK   19  A    between atoms: C_20  and  C_21
REMARK   20  A    between atoms: C_21  and  C_22
REMARK   21  A    between atoms: C_21  and  C_23
REMARK   22  A    between atoms: C_24  and  C_26
REMARK   23  A    between atoms: C_26  and  P_27
REMARK   24  A    between atoms: P_27  and  O_29
REMARK   25  A    between atoms: P_27  and  O_30
REMARK                            x       y       z     vdW  Elec       q    Type
REMARK                         _______ _______ _______ _____ _____    ______ ____
ROOT
ATOM      1  C   UNL     1       3.011   7.174  18.362  0.00  0.00    +0.000 C 
ATOM      2  O   UNL     1       2.809   6.909  19.541  0.00  0.00    +0.000 OA
ATOM      3  N   UNL     1       3.534   6.299  17.423  0.00  0.00    +0.000 N 
ATOM      4  H   UNL     1       3.459   6.640  16.470  0.00  0.00    +0.000 HD
ENDROOT
BRANCH   3   5
ATOM      5  C   UNL     1       3.893   4.872  17.637  0.00  0.00    +0.000 C 
BRANCH   5   6
ATOM      6  C   UNL     1       2.664   4.034  18.122  0.00  0.00    +0.000 C 
ATOM      7  O   UNL     1       1.573   4.073  17.545  0.00  0.00    +0.000 OA
BRANCH   6   8
ATOM      8  C   UNL     1       2.791   3.196  19.358  0.00  0.00    +0.000 C 
BRANCH   8   9
ATOM      9  P   UNL     1       1.635   3.525  20.667  0.00  0.00    +0.000 P 
ATOM     10  O   UNL     1       1.493   4.968  21.020  0.00  0.00    +0.000 OA
BRANCH   9  11
ATOM     11  O   UNL     1       2.002   2.542  21.882  0.00  0.00    +0.000 OA
ATOM     12  H   UNL     1       2.174   2.868  22.793  0.00  0.00    +0.000 HD
ENDBRANCH   9  11
BRANCH   9  13
ATOM     13  O   UNL     1       0.261   2.929  20.073  0.00  0.00    +0.000 OA
ATOM     14  H   UNL     1       0.380   2.423  19.245  0.00  0.00    +0.000 HD
ENDBRANCH   9  13
ENDBRANCH   8   9
ENDBRANCH   6   8
ENDBRANCH   5   6
BRANCH   5  15
ATOM     15  C   UNL     1       5.125   4.695  18.569  0.00  0.00    +0.000 C 
BRANCH  15  16
ATOM     16  C   UNL     1       6.451   5.369  18.136  0.00  0.00    +0.000 C 
ATOM     17  C   UNL     1       7.361   5.649  19.340  0.00  0.00    +0.000 C 
ATOM     18  C   UNL     1       7.262   4.541  17.147  0.00  0.00    +0.000 C 
ENDBRANCH  15  16
ENDBRANCH   5  15
ENDBRANCH   3   5
BRANCH   1  19
ATOM     19  C   UNL     1       2.679   8.531  17.761  0.00  0.00    +0.000 C 
BRANCH  19  20
ATOM     20  C   UNL     1       1.191   8.846  17.856  0.00  0.00    +0.000 C 
BRANCH  20  21
ATOM     21  C   UNL     1       0.886   9.935  18.880  0.00  0.00    +0.000 C 
BRANCH  21  22
ATOM     22  C   UNL     1      -0.151   9.451  19.893  0.00  0.00    +0.000 C 
BRANCH  22  23
ATOM     23  C   UNL     1       0.524   8.862  21.126  0.00  0.00    +0.000 C 
BRANCH  23  24
ATOM     24  C   UNL     1       0.509   9.848  22.292  0.00  0.00    +0.000 C 
BRANCH  24  25
ATOM     25  C   UNL     1      -0.830  10.577  22.360  0.00  0.00    +0.000 C 
BRANCH  25  26
ATOM     26  C   UNL     1      -0.634  12.089  22.365  0.00  0.00    +0.000 C 
BRANCH  26  27
ATOM     27  C   UNL     1      -1.246  12.715  21.117  0.00  0.00    +0.000 C 
BRANCH  27  28
ATOM     28  C   UNL     1      -2.757  12.865  21.265  0.00  0.00    +0.000 C 
BRANCH  28  29
ATOM     29  C   UNL     1      -3.467  12.494  19.967  0.00  0.00    +0.000 C 
BRANCH  29  30
ATOM     30  C   UNL     1      -2.495  11.862  18.974  0.00  0.00    +0.000 C 
BRANCH  30  31
ATOM     31  C   UNL     1      -3.251  11.082  17.900  0.00  0.00    +0.000 C 
BRANCH  31  33
ATOM     32  C   UNL     1      -2.803  10.497  15.498  0.00  0.00    +0.000 C 
ATOM     33  C   UNL     1      -2.285  10.415  16.925  0.00  0.00    +0.000 C 
ENDBRANCH  31  33
ENDBRANCH  30  31
ENDBRANCH  29  30
ENDBRANCH  28  29
ENDBRANCH  27  28
ENDBRANCH  26  27
ENDBRANCH  25  26
ENDBRANCH  24  25
ENDBRANCH  23  24
ENDBRANCH  22  23
ENDBRANCH  21  22
ENDBRANCH  20  21
ENDBRANCH  19  20
ENDBRANCH   1  19
TORSDOF 22
ENDMDL
MODEL 6
REMARK VINA RESULT:      -5.4      2.503      4.122
REMARK  Name = 
REMARK  25 active torsions:
REMARK  status: ('A' for Active; 'I' for Inactive)
REMARK    1  A    between atoms: C_1  and  C_2
REMARK    2  A    between atoms: C_2  and  C_3
REMARK    3  A    between atoms: C_3  and  C_4
REMARK    4  A    between atoms: C_4  and  C_5
REMARK    5  A    between atoms: C_5  and  C_6
REMARK    6  A    between atoms: C_6  and  C_7
REMARK    7  A    between atoms: C_7  and  C_8
REMARK    8  A    between atoms: C_8  and  C_9
REMARK    9  A    between atoms: C_9  and  C_10
REMARK   10  A    between atoms: C_10  and  C_11
REMARK   11  A    between atoms: C_11  and  C_12
REMARK   12  A    between atoms: C_12  and  C_13
REMARK   13  A    between atoms: C_13  and  C_14
REMARK   14  A    between atoms: C_14  and  C_15
REMARK   15  A    between atoms: C_15  and  C_16
REMARK   16  A    between atoms: N_18  and  C_19
REMARK   17  A    between atoms: C_19  and  C_20
REMARK   18  A    between atoms: C_19  and  C_24
REMARK   19  A    between atoms: C_20  and  C_21
REMARK   20  A    between atoms: C_21  and  C_22
REMARK   21  A    between atoms: C_21  and  C_23
REMARK   22  A    between atoms: C_24  and  C_26
REMARK   23  A    between atoms: C_26  and  P_27
REMARK   24  A    between atoms: P_27  and  O_29
REMARK   25  A    between atoms: P_27  and  O_30
REMARK                            x       y       z     vdW  Elec       q    Type
REMARK                         _______ _______ _______ _____ _____    ______ ____
ROOT
ATOM      1  C   UNL     1       0.512   9.570  20.884  0.00  0.00    +0.000 C 
ATOM      2  O   UNL     1      -0.328   9.182  21.686  0.00  0.00    +0.000 OA
ATOM      3  N   UNL     1       0.725  10.891  20.524  0.00  0.00    +0.000 N 
ATOM      4  H   UNL     1       1.576  11.030  19.989  0.00  0.00    +0.000 HD
ENDROOT
BRANCH   3   5
ATOM      5  C   UNL     1       0.032  12.087  21.072  0.00  0.00    +0.000 C 
BRANCH   5   6
ATOM      6  C   UNL     1      -1.336  12.339  20.356  0.00  0.00    +0.000 C 
ATOM      7  O   UNL     1      -2.411  12.309  20.963  0.00  0.00    +0.000 OA
BRANCH   6   8
ATOM      8  C   UNL     1      -1.356  12.574  18.876  0.00  0.00    +0.000 C 
BRANCH   8   9
ATOM      9  P   UNL     1      -2.022  11.268  17.870  0.00  0.00    +0.000 P 
ATOM     10  O   UNL     1      -1.362   9.943  18.060  0.00  0.00    +0.000 OA
BRANCH   9  11
ATOM     11  O   UNL     1      -2.074  11.812  16.361  0.00  0.00    +0.000 OA
ATOM     12  H   UNL     1      -2.918  12.001  15.895  0.00  0.00    +0.000 HD
ENDBRANCH   9  11
BRANCH   9  13
ATOM     13  O   UNL     1      -3.564  11.227  18.334  0.00  0.00    +0.000 OA
ATOM     14  H   UNL     1      -3.848  12.025  18.821  0.00  0.00    +0.000 HD
ENDBRANCH   9  13
ENDBRANCH   8   9
ENDBRANCH   6   8
ENDBRANCH   5   6
BRANCH   5  15
ATOM     15  C   UNL     1       0.932  13.355  21.075  0.00  0.00    +0.000 C 
BRANCH  15  16
ATOM     16  C   UNL     1       2.324  13.245  20.406  0.00  0.00    +0.000 C 
ATOM     17  C   UNL     1       2.289  13.719  18.947  0.00  0.00    +0.000 C 
ATOM     18  C   UNL     1       3.407  14.052  21.111  0.00  0.00    +0.000 C 
ENDBRANCH  15  16
ENDBRANCH   5  15
ENDBRANCH   3   5
BRANCH   1  19
ATOM     19  C   UNL     1       1.470   8.621  20.181  0.00  0.00    +0.000 C 
BRANCH  19  20
ATOM     20  C   UNL     1       1.610   7.299  20.927  0.00  0.00    +0.000 C 
BRANCH  20  21
ATOM     21  C   UNL     1       1.963   6.138  20.003  0.00  0.00    +0.000 C 
BRANCH  21  22
ATOM     22  C   UNL     1       1.924   4.811  20.761  0.00  0.00    +0.000 C 
BRANCH  22  23
ATOM     23  C   UNL     1       0.919   3.853  20.133  0.00  0.00    +0.000 C 
BRANCH  23  24
ATOM     24  C   UNL     1       1.545   2.486  19.869  0.00  0.00    +0.000 C 
BRANCH  24  25
ATOM     25  C   UNL     1       3.026   2.631  19.532  0.00  0.00    +0.000 C 
BRANCH  25  26
ATOM     26  C   UNL     1       3.274   2.440  18.040  0.00  0.00    +0.000 C 
BRANCH  26  27
ATOM     27  C   UNL     1       3.894   3.693  17.433  0.00  0.00    +0.000 C 
BRANCH  27  28
ATOM     28  C   UNL     1       4.839   4.368  18.422  0.00  0.00    +0.000 C 
BRANCH  28  29
ATOM     29  C   UNL     1       4.997   5.850  18.092  0.00  0.00    +0.000 C 
BRANCH  29  30
ATOM     30  C   UNL     1       5.472   6.042  16.654  0.00  0.00    +0.000 C 
BRANCH  30  31
ATOM     31  C   UNL     1       6.993   6.169  16.599  0.00  0.00    +0.000 C 
BRANCH  31  33
ATOM     32  C   UNL     1       7.847   8.276  17.668  0.00  0.00    +0.000 C 
ATOM     33  C   UNL     1       7.537   6.804  17.877  0.00  0.00    +0.000 C 
ENDBRANCH  31  33
ENDBRANCH  30  31
ENDBRANCH  29  30
ENDBRANCH  28  29
ENDBRANCH  27  28
ENDBRANCH  26  27
ENDBRANCH  25  26
ENDBRANCH  24  25
ENDBRANCH  23  24
ENDBRANCH  22  23
ENDBRANCH  21  22
ENDBRANCH  20  21
ENDBRANCH  19  20
ENDBRANCH   1  19
TORSDOF 22
ENDMDL
MODEL 7
REMARK VINA RESULT:      -5.4      3.971      9.151
REMARK  Name = 
REMARK  25 active torsions:
REMARK  status: ('A' for Active; 'I' for Inactive)
REMARK    1  A    between atoms: C_1  and  C_2
REMARK    2  A    between atoms: C_2  and  C_3
REMARK    3  A    between atoms: C_3  and  C_4
REMARK    4  A    between atoms: C_4  and  C_5
REMARK    5  A    between atoms: C_5  and  C_6
REMARK    6  A    between atoms: C_6  and  C_7
REMARK    7  A    between atoms: C_7  and  C_8
REMARK    8  A    between atoms: C_8  and  C_9
REMARK    9  A    between atoms: C_9  and  C_10
REMARK   10  A    between atoms: C_10  and  C_11
REMARK   11  A    between atoms: C_11  and  C_12
REMARK   12  A    between atoms: C_12  and  C_13
REMARK   13  A    between atoms: C_13  and  C_14
REMARK   14  A    between atoms: C_14  and  C_15
REMARK   15  A    between atoms: C_15  and  C_16
REMARK   16  A    between atoms: N_18  and  C_19
REMARK   17  A    between atoms: C_19  and  C_20
REMARK   18  A    between atoms: C_19  and  C_24
REMARK   19  A    between atoms: C_20  and  C_21
REMARK   20  A    between atoms: C_21  and  C_22
REMARK   21  A    between atoms: C_21  and  C_23
REMARK   22  A    between atoms: C_24  and  C_26
REMARK   23  A    between atoms: C_26  and  P_27
REMARK   24  A    between atoms: P_27  and  O_29
REMARK   25  A    between atoms: P_27  and  O_30
REMARK                            x       y       z     vdW  Elec       q    Type
REMARK                         _______ _______ _______ _____ _____    ______ ____
ROOT
ATOM      1  C   UNL     1       2.141   5.511  20.686  0.00  0.00    +0.000 C 
ATOM      2  O   UNL     1       1.836   4.458  21.231  0.00  0.00    +0.000 OA
ATOM      3  N   UNL     1       3.210   5.685  19.822  0.00  0.00    +0.000 N 
ATOM      4  H   UNL     1       3.194   6.575  19.336  0.00  0.00    +0.000 HD
ENDROOT
BRANCH   3   5
ATOM      5  C   UNL     1       4.150   4.636  19.344  0.00  0.00    +0.000 C 
BRANCH   5   6
ATOM      6  C   UNL     1       5.535   5.242  18.945  0.00  0.00    +0.000 C 
ATOM      7  O   UNL     1       6.466   5.344  19.751  0.00  0.00    +0.000 OA
BRANCH   6   8
ATOM      8  C   UNL     1       5.732   5.768  17.555  0.00  0.00    +0.000 C 
BRANCH   8   9
ATOM      9  P   UNL     1       6.794   4.824  16.487  0.00  0.00    +0.000 P 
ATOM     10  O   UNL     1       6.083   3.845  15.614  0.00  0.00    +0.000 OA
BRANCH   9  11
ATOM     11  O   UNL     1       7.968   4.219  17.401  0.00  0.00    +0.000 OA
ATOM     12  H   UNL     1       8.015   3.268  17.642  0.00  0.00    +0.000 HD
ENDBRANCH   9  11
BRANCH   9  13
ATOM     13  O   UNL     1       7.516   5.971  15.616  0.00  0.00    +0.000 OA
ATOM     14  H   UNL     1       6.944   6.743  15.435  0.00  0.00    +0.000 HD
ENDBRANCH   9  13
ENDBRANCH   8   9
ENDBRANCH   6   8
ENDBRANCH   5   6
BRANCH   5  15
ATOM     15  C   UNL     1       3.547   3.759  18.211  0.00  0.00    +0.000 C 
BRANCH  15  16
ATOM     16  C   UNL     1       3.538   2.225  18.422  0.00  0.00    +0.000 C 
ATOM     17  C   UNL     1       4.102   1.841  19.796  0.00  0.00    +0.000 C 
ATOM     18  C   UNL     1       2.151   1.603  18.319  0.00  0.00    +0.000 C 
ENDBRANCH  15  16
ENDBRANCH   5  15
ENDBRANCH   3   5
BRANCH   1  19
ATOM     19  C   UNL     1       1.343   6.791  20.878  0.00  0.00    +0.000 C 
BRANCH  19  20
ATOM     20  C   UNL     1       1.910   7.944  20.058  0.00  0.00    +0.000 C 
BRANCH  20  21
ATOM     21  C   UNL     1       1.013   9.177  20.079  0.00  0.00    +0.000 C 
BRANCH  21  22
ATOM     22  C   UNL     1      -0.015   9.080  21.205  0.00  0.00    +0.000 C 
BRANCH  22  23
ATOM     23  C   UNL     1       0.390   9.947  22.392  0.00  0.00    +0.000 C 
BRANCH  23  24
ATOM     24  C   UNL     1      -0.545  11.143  22.551  0.00  0.00    +0.000 C 
BRANCH  24  25
ATOM     25  C   UNL     1      -1.435  11.294  21.321  0.00  0.00    +0.000 C 
BRANCH  25  26
ATOM     26  C   UNL     1      -1.257  12.665  20.676  0.00  0.00    +0.000 C 
BRANCH  26  27
ATOM     27  C   UNL     1       0.107  12.769  20.003  0.00  0.00    +0.000 C 
BRANCH  27  28
ATOM     28  C   UNL     1      -0.020  12.638  18.488  0.00  0.00    +0.000 C 
BRANCH  28  29
ATOM     29  C   UNL     1      -1.393  12.092  18.107  0.00  0.00    +0.000 C 
BRANCH  29  30
ATOM     30  C   UNL     1      -1.301  10.629  17.681  0.00  0.00    +0.000 C 
BRANCH  30  31
ATOM     31  C   UNL     1      -2.521  10.229  16.854  0.00  0.00    +0.000 C 
BRANCH  31  33
ATOM     32  C   UNL     1      -4.717  11.447  16.778  0.00  0.00    +0.000 C 
ATOM     33  C   UNL     1      -3.815  10.541  17.600  0.00  0.00    +0.000 C 
ENDBRANCH  31  33
ENDBRANCH  30  31
ENDBRANCH  29  30
ENDBRANCH  28  29
ENDBRANCH  27  28
ENDBRANCH  26  27
ENDBRANCH  25  26
ENDBRANCH  24  25
ENDBRANCH  23  24
ENDBRANCH  22  23
ENDBRANCH  21  22
ENDBRANCH  20  21
ENDBRANCH  19  20
ENDBRANCH   1  19
TORSDOF 22
ENDMDL
MODEL 8
REMARK VINA RESULT:      -5.3      2.840      3.982
REMARK  Name = 
REMARK  25 active torsions:
REMARK  status: ('A' for Active; 'I' for Inactive)
REMARK    1  A    between atoms: C_1  and  C_2
REMARK    2  A    between atoms: C_2  and  C_3
REMARK    3  A    between atoms: C_3  and  C_4
REMARK    4  A    between atoms: C_4  and  C_5
REMARK    5  A    between atoms: C_5  and  C_6
REMARK    6  A    between atoms: C_6  and  C_7
REMARK    7  A    between atoms: C_7  and  C_8
REMARK    8  A    between atoms: C_8  and  C_9
REMARK    9  A    between atoms: C_9  and  C_10
REMARK   10  A    between atoms: C_10  and  C_11
REMARK   11  A    between atoms: C_11  and  C_12
REMARK   12  A    between atoms: C_12  and  C_13
REMARK   13  A    between atoms: C_13  and  C_14
REMARK   14  A    between atoms: C_14  and  C_15
REMARK   15  A    between atoms: C_15  and  C_16
REMARK   16  A    between atoms: N_18  and  C_19
REMARK   17  A    between atoms: C_19  and  C_20
REMARK   18  A    between atoms: C_19  and  C_24
REMARK   19  A    between atoms: C_20  and  C_21
REMARK   20  A    between atoms: C_21  and  C_22
REMARK   21  A    between atoms: C_21  and  C_23
REMARK   22  A    between atoms: C_24  and  C_26
REMARK   23  A    between atoms: C_26  and  P_27
REMARK   24  A    between atoms: P_27  and  O_29
REMARK   25  A    between atoms: P_27  and  O_30
REMARK                            x       y       z     vdW  Elec       q    Type
REMARK                         _______ _______ _______ _____ _____    ______ ____
ROOT
ATOM      1  C   UNL     1       1.439   8.661  20.011  0.00  0.00    +0.000 C 
ATOM      2  O   UNL     1       1.711   8.693  18.817  0.00  0.00    +0.000 OA
ATOM      3  N   UNL     1       0.754   9.647  20.702  0.00  0.00    +0.000 N 
ATOM      4  H   UNL     1       0.469   9.361  21.633  0.00  0.00    +0.000 HD
ENDROOT
BRANCH   3   5
ATOM      5  C   UNL     1       0.170  10.892  20.136  0.00  0.00    +0.000 C 
BRANCH   5   6
ATOM      6  C   UNL     1       1.220  12.050  20.085  0.00  0.00    +0.000 C 
ATOM      7  O   UNL     1       2.014  12.259  21.007  0.00  0.00    +0.000 OA
BRANCH   6   8
ATOM      8  C   UNL     1       1.234  12.975  18.905  0.00  0.00    +0.000 C 
BRANCH   8   9
ATOM      9  P   UNL     1       0.829  14.677  19.220  0.00  0.00    +0.000 P 
ATOM     10  O   UNL     1       1.802  15.659  18.660  0.00  0.00    +0.000 OA
BRANCH   9  11
ATOM     11  O   UNL     1       0.531  14.809  20.792  0.00  0.00    +0.000 OA
ATOM     12  H   UNL     1      -0.316  14.519  21.197  0.00  0.00    +0.000 HD
ENDBRANCH   9  11
BRANCH   9  13
ATOM     13  O   UNL     1      -0.617  14.822  18.525  0.00  0.00    +0.000 OA
ATOM     14  H   UNL     1      -0.793  14.144  17.843  0.00  0.00    +0.000 HD
ENDBRANCH   9  13
ENDBRANCH   8   9
ENDBRANCH   6   8
ENDBRANCH   5   6
BRANCH   5  15
ATOM     15  C   UNL     1      -1.141  11.322  20.854  0.00  0.00    +0.000 C 
BRANCH  15  16
ATOM     16  C   UNL     1      -1.080  11.531  22.387  0.00  0.00    +0.000 C 
ATOM     17  C   UNL     1      -2.365  12.176  22.921  0.00  0.00    +0.000 C 
ATOM     18  C   UNL     1      -0.870  10.242  23.171  0.00  0.00    +0.000 C 
ENDBRANCH  15  16
ENDBRANCH   5  15
ENDBRANCH   3   5
BRANCH   1  19
ATOM     19  C   UNL     1       1.810   7.486  20.901  0.00  0.00    +0.000 C 
BRANCH  19  20
ATOM     20  C   UNL     1       1.783   6.165  20.141  0.00  0.00    +0.000 C 
BRANCH  20  21
ATOM     21  C   UNL     1       2.668   5.101  20.780  0.00  0.00    +0.000 C 
BRANCH  21  22
ATOM     22  C   UNL     1       1.872   3.826  21.055  0.00  0.00    +0.000 C 
BRANCH  22  23
ATOM     23  C   UNL     1       0.706   3.690  20.082  0.00  0.00    +0.000 C 
BRANCH  23  24
ATOM     24  C   UNL     1       0.932   2.543  19.101  0.00  0.00    +0.000 C 
BRANCH  24  25
ATOM     25  C   UNL     1       1.777   3.008  17.919  0.00  0.00    +0.000 C 
BRANCH  25  26
ATOM     26  C   UNL     1       3.153   2.351  17.931  0.00  0.00    +0.000 C 
BRANCH  26  27
ATOM     27  C   UNL     1       4.212   3.310  17.400  0.00  0.00    +0.000 C 
BRANCH  27  28
ATOM     28  C   UNL     1       3.665   4.731  17.307  0.00  0.00    +0.000 C 
BRANCH  28  29
ATOM     29  C   UNL     1       4.802   5.748  17.298  0.00  0.00    +0.000 C 
BRANCH  29  30
ATOM     30  C   UNL     1       5.715   5.558  18.506  0.00  0.00    +0.000 C 
BRANCH  30  31
ATOM     31  C   UNL     1       7.179   5.499  18.073  0.00  0.00    +0.000 C 
BRANCH  31  33
ATOM     32  C   UNL     1       7.760   7.900  17.614  0.00  0.00    +0.000 C 
ATOM     33  C   UNL     1       7.944   6.726  18.561  0.00  0.00    +0.000 C 
ENDBRANCH  31  33
ENDBRANCH  30  31
ENDBRANCH  29  30
ENDBRANCH  28  29
ENDBRANCH  27  28
ENDBRANCH  26  27
ENDBRANCH  25  26
ENDBRANCH  24  25
ENDBRANCH  23  24
ENDBRANCH  22  23
ENDBRANCH  21  22
ENDBRANCH  20  21
ENDBRANCH  19  20
ENDBRANCH   1  19
TORSDOF 22
ENDMDL
MODEL 9
REMARK VINA RESULT:      -5.3      6.837     10.110
REMARK  Name = 
REMARK  25 active torsions:
REMARK  status: ('A' for Active; 'I' for Inactive)
REMARK    1  A    between atoms: C_1  and  C_2
REMARK    2  A    between atoms: C_2  and  C_3
REMARK    3  A    between atoms: C_3  and  C_4
REMARK    4  A    between atoms: C_4  and  C_5
REMARK    5  A    between atoms: C_5  and  C_6
REMARK    6  A    between atoms: C_6  and  C_7
REMARK    7  A    between atoms: C_7  and  C_8
REMARK    8  A    between atoms: C_8  and  C_9
REMARK    9  A    between atoms: C_9  and  C_10
REMARK   10  A    between atoms: C_10  and  C_11
REMARK   11  A    between atoms: C_11  and  C_12
REMARK   12  A    between atoms: C_12  and  C_13
REMARK   13  A    between atoms: C_13  and  C_14
REMARK   14  A    between atoms: C_14  and  C_15
REMARK   15  A    between atoms: C_15  and  C_16
REMARK   16  A    between atoms: N_18  and  C_19
REMARK   17  A    between atoms: C_19  and  C_20
REMARK   18  A    between atoms: C_19  and  C_24
REMARK   19  A    between atoms: C_20  and  C_21
REMARK   20  A    between atoms: C_21  and  C_22
REMARK   21  A    between atoms: C_21  and  C_23
REMARK   22  A    between atoms: C_24  and  C_26
REMARK   23  A    between atoms: C_26  and  P_27
REMARK   24  A    between atoms: P_27  and  O_29
REMARK   25  A    between atoms: P_27  and  O_30
REMARK                            x       y       z     vdW  Elec       q    Type
REMARK                         _______ _______ _______ _____ _____    ______ ____
ROOT
ATOM      1  C   UNL     1       7.632   7.511  17.780  0.00  0.00    +0.000 C 
ATOM      2  O   UNL     1       7.925   6.633  18.583  0.00  0.00    +0.000 OA
ATOM      3  N   UNL     1       6.735   7.374  16.735  0.00  0.00    +0.000 N 
ATOM      4  H   UNL     1       6.491   8.255  16.295  0.00  0.00    +0.000 HD
ENDROOT
BRANCH   3   5
ATOM      5  C   UNL     1       5.916   6.175  16.414  0.00  0.00    +0.000 C 
BRANCH   5   6
ATOM      6  C   UNL     1       4.814   5.922  17.495  0.00  0.00    +0.000 C 
ATOM      7  O   UNL     1       3.974   6.777  17.791  0.00  0.00    +0.000 OA
BRANCH   6   8
ATOM      8  C   UNL     1       4.804   4.621  18.241  0.00  0.00    +0.000 C 
BRANCH   8   9
ATOM      9  P   UNL     1       3.370   4.284  19.236  0.00  0.00    +0.000 P 
ATOM     10  O   UNL     1       2.128   4.006  18.458  0.00  0.00    +0.000 OA
BRANCH   9  11
ATOM     11  O   UNL     1       3.263   5.457  20.327  0.00  0.00    +0.000 OA
ATOM     12  H   UNL     1       2.462   5.597  20.878  0.00  0.00    +0.000 HD
ENDBRANCH   9  11
BRANCH   9  13
ATOM     13  O   UNL     1       3.833   2.993  20.081  0.00  0.00    +0.000 OA
ATOM     14  H   UNL     1       4.296   3.214  20.913  0.00  0.00    +0.000 HD
ENDBRANCH   9  13
ENDBRANCH   8   9
ENDBRANCH   6   8
ENDBRANCH   5   6
BRANCH   5  15
ATOM     15  C   UNL     1       6.780   4.908  16.153  0.00  0.00    +0.000 C 
BRANCH  15  16
ATOM     16  C   UNL     1       6.725   4.285  14.737  0.00  0.00    +0.000 C 
ATOM     17  C   UNL     1       5.284   4.182  14.220  0.00  0.00    +0.000 C 
ATOM     18  C   UNL     1       7.517   5.066  13.695  0.00  0.00    +0.000 C 
ENDBRANCH  15  16
ENDBRANCH   5  15
ENDBRANCH   3   5
BRANCH   1  19
ATOM     19  C   UNL     1       8.219   8.912  17.854  0.00  0.00    +0.000 C 
BRANCH  19  20
ATOM     20  C   UNL     1       8.915   9.168  19.186  0.00  0.00    +0.000 C 
BRANCH  20  21
ATOM     21  C   UNL     1       9.505  10.571  19.280  0.00  0.00    +0.000 C 
BRANCH  21  22
ATOM     22  C   UNL     1       9.617  11.206  17.895  0.00  0.00    +0.000 C 
BRANCH  22  23
ATOM     23  C   UNL     1       8.682  12.404  17.766  0.00  0.00    +0.000 C 
BRANCH  23  24
ATOM     24  C   UNL     1       9.446  13.664  17.369  0.00  0.00    +0.000 C 
BRANCH  24  25
ATOM     25  C   UNL     1      10.947  13.392  17.332  0.00  0.00    +0.000 C 
BRANCH  25  26
ATOM     26  C   UNL     1      11.744  14.648  17.670  0.00  0.00    +0.000 C 
BRANCH  26  27
ATOM     27  C   UNL     1      11.835  14.837  19.180  0.00  0.00    +0.000 C 
BRANCH  27  28
ATOM     28  C   UNL     1      11.677  13.505  19.907  0.00  0.00    +0.000 C 
BRANCH  28  29
ATOM     29  C   UNL     1      10.586  13.596  20.970  0.00  0.00    +0.000 C 
BRANCH  29  30
ATOM     30  C   UNL     1      10.341  15.046  21.379  0.00  0.00    +0.000 C 
BRANCH  30  31
ATOM     31  C   UNL     1       8.852  15.300  21.604  0.00  0.00    +0.000 C 
BRANCH  31  33
ATOM     32  C   UNL     1       7.001  14.932  19.944  0.00  0.00    +0.000 C 
ATOM     33  C   UNL     1       8.002  14.264  20.872  0.00  0.00    +0.000 C 
ENDBRANCH  31  33
ENDBRANCH  30  31
ENDBRANCH  29  30
ENDBRANCH  28  29
ENDBRANCH  27  28
ENDBRANCH  26  27
ENDBRANCH  25  26
ENDBRANCH  24  25
ENDBRANCH  23  24
ENDBRANCH  22  23
ENDBRANCH  21  22
ENDBRANCH  20  21
ENDBRANCH  19  20
ENDBRANCH   1  19
TORSDOF 22
ENDMDL
