MODEL 1
REMARK VINA RESULT:      -6.9      0.000      0.000
REMARK  Name = 
REMARK  9 active torsions:
REMARK  status: ('A' for Active; 'I' for Inactive)
REMARK    1  A    between atoms: C_1  and  C_2
REMARK    2  A    between atoms: C_2  and  N_3
REMARK    3  A    between atoms: N_3  and  C_9
REMARK    4  A    between atoms: C_4  and  C_6
REMARK    5  A    between atoms: C_6  and  C_7
REMARK    6  A    between atoms: C_7  and  N_8
REMARK    7  A    between atoms: C_9  and  C_10
REMARK    8  A    between atoms: C_9  and  C_11
REMARK    9  A    between atoms: C_15  and  C_16
REMARK                            x       y       z     vdW  Elec       q    Type
REMARK                         _______ _______ _______ _____ _____    ______ ____
ROOT
ATOM      1  C   UNL     1       5.422   4.586  17.829  0.00  0.00    +0.000 C 
ATOM      2  C   UNL     1       6.387   4.809  19.005  0.00  0.00    +0.000 C 
ENDROOT
BRANCH   1   3
ATOM      3  C   UNL     1       4.051   4.012  18.205  0.00  0.00    +0.000 A 
ATOM      4  C   UNL     1       3.136   3.583  17.234  0.00  0.00    +0.000 A 
ATOM      5  C   UNL     1       1.907   3.022  17.602  0.00  0.00    +0.000 A 
ATOM      6  C   UNL     1       1.577   2.872  18.948  0.00  0.00    +0.000 A 
ATOM      7  C   UNL     1       2.453   3.311  19.944  0.00  0.00    +0.000 A 
ATOM      8  C   UNL     1       3.657   3.912  19.557  0.00  0.00    +0.000 A 
BRANCH   7   9
ATOM      9  C   UNL     1       2.155   3.119  21.408  0.00  0.00    +0.000 C 
ATOM     10  F   UNL     1       2.921   2.163  22.001  0.00  0.00    +0.000 F 
ATOM     11  F   UNL     1       2.359   4.258  22.130  0.00  0.00    +0.000 F 
ATOM     12  F   UNL     1       0.860   2.760  21.640  0.00  0.00    +0.000 F 
ENDBRANCH   7   9
ENDBRANCH   1   3
BRANCH   1  13
ATOM     13  N   UNL     1       5.289   5.836  17.034  0.00  0.00    +0.000 N 
ATOM     14  C   UNL     1       5.267   5.853  15.630  0.00  0.00    +0.000 C 
ATOM     15  O   UNL     1       5.021   6.876  14.991  0.00  0.00    +0.000 OA
BRANCH  13  17
ATOM     16  C   UNL     1       3.333   7.237  17.752  0.00  0.00    +0.000 C 
ATOM     17  C   UNL     1       4.839   7.047  17.742  0.00  0.00    +0.000 C 
ENDBRANCH  13  17
BRANCH  14  18
ATOM     18  C   UNL     1       5.568   4.535  14.928  0.00  0.00    +0.000 C 
BRANCH  18  19
ATOM     19  C   UNL     1       6.855   4.556  14.113  0.00  0.00    +0.000 C 
BRANCH  19  20
ATOM     20  N   UNL     1       7.773   5.551  14.677  0.00  0.00    +0.000 NA
ATOM     21  H   UNL     1       7.711   5.535  15.696  0.00  0.00    +0.000 HD
ATOM     22  H   UNL     1       7.476   6.483  14.392  0.00  0.00    +0.000 HD
ENDBRANCH  19  20
ENDBRANCH  18  19
ENDBRANCH  14  18
ENDBRANCH   1  13
TORSDOF 7
ENDMDL
MODEL 2
REMARK VINA RESULT:      -6.8      1.801      2.921
REMARK  Name = 
REMARK  9 active torsions:
REMARK  status: ('A' for Active; 'I' for Inactive)
REMARK    1  A    between atoms: C_1  and  C_2
REMARK    2  A    between atoms: C_2  and  N_3
REMARK    3  A    between atoms: N_3  and  C_9
REMARK    4  A    between atoms: C_4  and  C_6
REMARK    5  A    between atoms: C_6  and  C_7
REMARK    6  A    between atoms: C_7  and  N_8
REMARK    7  A    between atoms: C_9  and  C_10
REMARK    8  A    between atoms: C_9  and  C_11
REMARK    9  A    between atoms: C_15  and  C_16
REMARK                            x       y       z     vdW  Elec       q    Type
REMARK                         _______ _______ _______ _____ _____    ______ ____
ROOT
ATOM      1  C   UNL     1       4.880   5.591  17.341  0.00  0.00    +0.000 C 
ATOM      2  C   UNL     1       4.466   6.625  16.281  0.00  0.00    +0.000 C 
ENDROOT
BRANCH   1   3
ATOM      3  C   UNL     1       3.778   4.617  17.775  0.00  0.00    +0.000 A 
ATOM      4  C   UNL     1       3.436   3.496  17.006  0.00  0.00    +0.000 A 
ATOM      5  C   UNL     1       2.457   2.596  17.443  0.00  0.00    +0.000 A 
ATOM      6  C   UNL     1       1.810   2.797  18.662  0.00  0.00    +0.000 A 
ATOM      7  C   UNL     1       2.108   3.916  19.443  0.00  0.00    +0.000 A 
ATOM      8  C   UNL     1       3.056   4.830  18.969  0.00  0.00    +0.000 A 
BRANCH   7   9
ATOM      9  C   UNL     1       1.469   4.140  20.789  0.00  0.00    +0.000 C 
ATOM     10  F   UNL     1       0.844   3.037  21.287  0.00  0.00    +0.000 F 
ATOM     11  F   UNL     1       2.377   4.509  21.737  0.00  0.00    +0.000 F 
ATOM     12  F   UNL     1       0.529   5.127  20.770  0.00  0.00    +0.000 F 
ENDBRANCH   7   9
ENDBRANCH   1   3
BRANCH   1  13
ATOM     13  N   UNL     1       6.102   4.868  16.899  0.00  0.00    +0.000 N 
ATOM     14  C   UNL     1       7.307   4.886  17.619  0.00  0.00    +0.000 C 
ATOM     15  O   UNL     1       8.265   4.176  17.312  0.00  0.00    +0.000 OA
BRANCH  13  17
ATOM     16  C   UNL     1       6.364   4.297  14.468  0.00  0.00    +0.000 C 
ATOM     17  C   UNL     1       5.943   3.842  15.852  0.00  0.00    +0.000 C 
ENDBRANCH  13  17
BRANCH  14  18
ATOM     18  C   UNL     1       7.377   5.837  18.807  0.00  0.00    +0.000 C 
BRANCH  18  19
ATOM     19  C   UNL     1       8.173   7.106  18.528  0.00  0.00    +0.000 C 
BRANCH  19  20
ATOM     20  N   UNL     1       7.699   7.715  17.280  0.00  0.00    +0.000 NA
ATOM     21  H   UNL     1       8.429   7.652  16.570  0.00  0.00    +0.000 HD
ATOM     22  H   UNL     1       7.538   8.710  17.431  0.00  0.00    +0.000 HD
ENDBRANCH  19  20
ENDBRANCH  18  19
ENDBRANCH  14  18
ENDBRANCH   1  13
TORSDOF 7
ENDMDL
MODEL 3
REMARK VINA RESULT:      -6.8      1.846      3.053
REMARK  Name = 
REMARK  9 active torsions:
REMARK  status: ('A' for Active; 'I' for Inactive)
REMARK    1  A    between atoms: C_1  and  C_2
REMARK    2  A    between atoms: C_2  and  N_3
REMARK    3  A    between atoms: N_3  and  C_9
REMARK    4  A    between atoms: C_4  and  C_6
REMARK    5  A    between atoms: C_6  and  C_7
REMARK    6  A    between atoms: C_7  and  N_8
REMARK    7  A    between atoms: C_9  and  C_10
REMARK    8  A    between atoms: C_9  and  C_11
REMARK    9  A    between atoms: C_15  and  C_16
REMARK                            x       y       z     vdW  Elec       q    Type
REMARK                         _______ _______ _______ _____ _____    ______ ____
ROOT
ATOM      1  C   UNL     1       4.835   5.475  18.139  0.00  0.00    +0.000 C 
ATOM      2  C   UNL     1       3.796   6.386  17.467  0.00  0.00    +0.000 C 
ENDROOT
BRANCH   1   3
ATOM      3  C   UNL     1       4.260   4.315  18.960  0.00  0.00    +0.000 A 
ATOM      4  C   UNL     1       5.065   3.272  19.435  0.00  0.00    +0.000 A 
ATOM      5  C   UNL     1       4.526   2.247  20.220  0.00  0.00    +0.000 A 
ATOM      6  C   UNL     1       3.171   2.252  20.551  0.00  0.00    +0.000 A 
ATOM      7  C   UNL     1       2.332   3.262  20.075  0.00  0.00    +0.000 A 
ATOM      8  C   UNL     1       2.880   4.255  19.253  0.00  0.00    +0.000 A 
BRANCH   7   9
ATOM      9  C   UNL     1       0.875   3.331  20.453  0.00  0.00    +0.000 C 
ATOM     10  F   UNL     1       0.405   4.602  20.584  0.00  0.00    +0.000 F 
ATOM     11  F   UNL     1       0.072   2.733  19.527  0.00  0.00    +0.000 F 
ATOM     12  F   UNL     1       0.607   2.708  21.635  0.00  0.00    +0.000 F 
ENDBRANCH   7   9
ENDBRANCH   1   3
BRANCH   1  13
ATOM     13  N   UNL     1       5.818   4.993  17.132  0.00  0.00    +0.000 N 
ATOM     14  C   UNL     1       7.207   5.041  17.332  0.00  0.00    +0.000 C 
ATOM     15  O   UNL     1       8.000   4.516  16.550  0.00  0.00    +0.000 OA
BRANCH  13  17
ATOM     16  C   UNL     1       5.496   4.736  14.655  0.00  0.00    +0.000 C 
ATOM     17  C   UNL     1       5.311   4.143  16.040  0.00  0.00    +0.000 C 
ENDBRANCH  13  17
BRANCH  14  18
ATOM     18  C   UNL     1       7.692   5.783  18.571  0.00  0.00    +0.000 C 
BRANCH  18  19
ATOM     19  C   UNL     1       8.021   7.248  18.316  0.00  0.00    +0.000 C 
BRANCH  19  20
ATOM     20  N   UNL     1       7.631   7.605  16.947  0.00  0.00    +0.000 NA
ATOM     21  H   UNL     1       6.621   7.740  16.904  0.00  0.00    +0.000 HD
ATOM     22  H   UNL     1       7.839   6.826  16.324  0.00  0.00    +0.000 HD
ENDBRANCH  19  20
ENDBRANCH  18  19
ENDBRANCH  14  18
ENDBRANCH   1  13
TORSDOF 7
ENDMDL
MODEL 4
REMARK VINA RESULT:      -6.7      0.813      1.167
REMARK  Name = 
REMARK  9 active torsions:
REMARK  status: ('A' for Active; 'I' for Inactive)
REMARK    1  A    between atoms: C_1  and  C_2
REMARK    2  A    between atoms: C_2  and  N_3
REMARK    3  A    between atoms: N_3  and  C_9
REMARK    4  A    between atoms: C_4  and  C_6
REMARK    5  A    between atoms: C_6  and  C_7
REMARK    6  A    between atoms: C_7  and  N_8
REMARK    7  A    between atoms: C_9  and  C_10
REMARK    8  A    between atoms: C_9  and  C_11
REMARK    9  A    between atoms: C_15  and  C_16
REMARK                            x       y       z     vdW  Elec       q    Type
REMARK                         _______ _______ _______ _____ _____    ______ ____
ROOT
ATOM      1  C   UNL     1       5.621   4.683  18.058  0.00  0.00    +0.000 C 
ATOM      2  C   UNL     1       6.364   5.181  19.308  0.00  0.00    +0.000 C 
ENDROOT
BRANCH   1   3
ATOM      3  C   UNL     1       4.324   3.913  18.328  0.00  0.00    +0.000 A 
ATOM      4  C   UNL     1       3.657   3.208  17.317  0.00  0.00    +0.000 A 
ATOM      5  C   UNL     1       2.497   2.476  17.596  0.00  0.00    +0.000 A 
ATOM      6  C   UNL     1       1.989   2.429  18.894  0.00  0.00    +0.000 A 
ATOM      7  C   UNL     1       2.613   3.139  19.922  0.00  0.00    +0.000 A 
ATOM      8  C   UNL     1       3.746   3.903  19.616  0.00  0.00    +0.000 A 
BRANCH   7   9
ATOM      9  C   UNL     1       2.125   3.071  21.346  0.00  0.00    +0.000 C 
ATOM     10  F   UNL     1       2.280   4.237  22.032  0.00  0.00    +0.000 F 
ATOM     11  F   UNL     1       0.798   2.770  21.424  0.00  0.00    +0.000 F 
ATOM     12  F   UNL     1       2.767   2.117  22.078  0.00  0.00    +0.000 F 
ENDBRANCH   7   9
ENDBRANCH   1   3
BRANCH   1  13
ATOM     13  N   UNL     1       5.398   5.811  17.114  0.00  0.00    +0.000 N 
ATOM     14  C   UNL     1       5.557   5.691  15.725  0.00  0.00    +0.000 C 
ATOM     15  O   UNL     1       5.239   6.592  14.948  0.00  0.00    +0.000 OA
BRANCH  13  17
ATOM     16  C   UNL     1       3.165   6.841  17.618  0.00  0.00    +0.000 C 
ATOM     17  C   UNL     1       4.675   6.990  17.624  0.00  0.00    +0.000 C 
ENDBRANCH  13  17
BRANCH  14  18
ATOM     18  C   UNL     1       6.150   4.382  15.217  0.00  0.00    +0.000 C 
BRANCH  18  19
ATOM     19  C   UNL     1       6.701   4.471  13.799  0.00  0.00    +0.000 C 
BRANCH  19  20
ATOM     20  N   UNL     1       6.232   3.319  13.021  0.00  0.00    +0.000 NA
ATOM     21  H   UNL     1       7.033   2.768  12.709  0.00  0.00    +0.000 HD
ATOM     22  H   UNL     1       5.771   3.649  12.175  0.00  0.00    +0.000 HD
ENDBRANCH  19  20
ENDBRANCH  18  19
ENDBRANCH  14  18
ENDBRANCH   1  13
TORSDOF 7
ENDMDL
MODEL 5
REMARK VINA RESULT:      -6.7      1.984      3.236
REMARK  Name = 
REMARK  9 active torsions:
REMARK  status: ('A' for Active; 'I' for Inactive)
REMARK    1  A    between atoms: C_1  and  C_2
REMARK    2  A    between atoms: C_2  and  N_3
REMARK    3  A    between atoms: N_3  and  C_9
REMARK    4  A    between atoms: C_4  and  C_6
REMARK    5  A    between atoms: C_6  and  C_7
REMARK    6  A    between atoms: C_7  and  N_8
REMARK    7  A    between atoms: C_9  and  C_10
REMARK    8  A    between atoms: C_9  and  C_11
REMARK    9  A    between atoms: C_15  and  C_16
REMARK                            x       y       z     vdW  Elec       q    Type
REMARK                         _______ _______ _______ _____ _____    ______ ____
ROOT
ATOM      1  C   UNL     1       5.124   5.824  17.008  0.00  0.00    +0.000 C 
ATOM      2  C   UNL     1       4.865   6.666  15.748  0.00  0.00    +0.000 C 
ENDROOT
BRANCH   1   3
ATOM      3  C   UNL     1       3.930   5.002  17.506  0.00  0.00    +0.000 A 
ATOM      4  C   UNL     1       3.450   3.889  16.802  0.00  0.00    +0.000 A 
ATOM      5  C   UNL     1       2.387   3.127  17.299  0.00  0.00    +0.000 A 
ATOM      6  C   UNL     1       1.789   3.461  18.514  0.00  0.00    +0.000 A 
ATOM      7  C   UNL     1       2.223   4.578  19.231  0.00  0.00    +0.000 A 
ATOM      8  C   UNL     1       3.258   5.355  18.697  0.00  0.00    +0.000 A 
BRANCH   7   9
ATOM      9  C   UNL     1       1.639   4.940  20.572  0.00  0.00    +0.000 C 
ATOM     10  F   UNL     1       1.407   6.273  20.725  0.00  0.00    +0.000 F 
ATOM     11  F   UNL     1       0.441   4.328  20.795  0.00  0.00    +0.000 F 
ATOM     12  F   UNL     1       2.441   4.577  21.613  0.00  0.00    +0.000 F 
ENDBRANCH   7   9
ENDBRANCH   1   3
BRANCH   1  13
ATOM     13  N   UNL     1       6.327   4.972  16.813  0.00  0.00    +0.000 N 
ATOM     14  C   UNL     1       7.401   4.942  17.717  0.00  0.00    +0.000 C 
ATOM     15  O   UNL     1       8.325   4.135  17.612  0.00  0.00    +0.000 OA
BRANCH  13  17
ATOM     16  C   UNL     1       6.712   4.281  14.430  0.00  0.00    +0.000 C 
ATOM     17  C   UNL     1       6.238   3.888  15.817  0.00  0.00    +0.000 C 
ENDBRANCH  13  17
BRANCH  14  18
ATOM     18  C   UNL     1       7.372   5.969  18.842  0.00  0.00    +0.000 C 
BRANCH  18  19
ATOM     19  C   UNL     1       8.266   7.177  18.590  0.00  0.00    +0.000 C 
BRANCH  19  20
ATOM     20  N   UNL     1       7.760   7.925  17.434  0.00  0.00    +0.000 NA
ATOM     21  H   UNL     1       8.089   8.890  17.481  0.00  0.00    +0.000 HD
ATOM     22  H   UNL     1       6.743   7.972  17.482  0.00  0.00    +0.000 HD
ENDBRANCH  19  20
ENDBRANCH  18  19
ENDBRANCH  14  18
ENDBRANCH   1  13
TORSDOF 7
ENDMDL
MODEL 6
REMARK VINA RESULT:      -6.6      4.314      6.357
REMARK  Name = 
REMARK  9 active torsions:
REMARK  status: ('A' for Active; 'I' for Inactive)
REMARK    1  A    between atoms: C_1  and  C_2
REMARK    2  A    between atoms: C_2  and  N_3
REMARK    3  A    between atoms: N_3  and  C_9
REMARK    4  A    between atoms: C_4  and  C_6
REMARK    5  A    between atoms: C_6  and  C_7
REMARK    6  A    between atoms: C_7  and  N_8
REMARK    7  A    between atoms: C_9  and  C_10
REMARK    8  A    between atoms: C_9  and  C_11
REMARK    9  A    between atoms: C_15  and  C_16
REMARK                            x       y       z     vdW  Elec       q    Type
REMARK                         _______ _______ _______ _____ _____    ______ ____
ROOT
ATOM      1  C   UNL     1       3.378   3.537  18.449  0.00  0.00    +0.000 C 
ATOM      2  C   UNL     1       2.529   2.595  17.580  0.00  0.00    +0.000 C 
ENDROOT
BRANCH   1   3
ATOM      3  C   UNL     1       4.687   4.018  17.813  0.00  0.00    +0.000 A 
ATOM      4  C   UNL     1       5.778   4.434  18.588  0.00  0.00    +0.000 A 
ATOM      5  C   UNL     1       6.979   4.827  17.986  0.00  0.00    +0.000 A 
ATOM      6  C   UNL     1       7.113   4.801  16.598  0.00  0.00    +0.000 A 
ATOM      7  C   UNL     1       6.039   4.416  15.793  0.00  0.00    +0.000 A 
ATOM      8  C   UNL     1       4.830   4.070  16.409  0.00  0.00    +0.000 A 
BRANCH   7   9
ATOM      9  C   UNL     1       6.160   4.325  14.294  0.00  0.00    +0.000 C 
ATOM     10  F   UNL     1       7.083   5.177  13.768  0.00  0.00    +0.000 F 
ATOM     11  F   UNL     1       6.530   3.079  13.880  0.00  0.00    +0.000 F 
ATOM     12  F   UNL     1       4.989   4.597  13.652  0.00  0.00    +0.000 F 
ENDBRANCH   7   9
ENDBRANCH   1   3
BRANCH   1  13
ATOM     13  N   UNL     1       2.550   4.681  18.920  0.00  0.00    +0.000 N 
ATOM     14  C   UNL     1       2.256   4.909  20.273  0.00  0.00    +0.000 C 
ATOM     15  O   UNL     1       1.686   5.931  20.656  0.00  0.00    +0.000 OA
BRANCH  13  17
ATOM     16  C   UNL     1       3.210   6.987  18.178  0.00  0.00    +0.000 C 
ATOM     17  C   UNL     1       2.311   5.782  17.969  0.00  0.00    +0.000 C 
ENDBRANCH  13  17
BRANCH  14  18
ATOM     18  C   UNL     1       2.675   3.822  21.254  0.00  0.00    +0.000 C 
BRANCH  18  19
ATOM     19  C   UNL     1       1.593   2.780  21.511  0.00  0.00    +0.000 C 
BRANCH  19  20
ATOM     20  N   UNL     1       0.468   3.011  20.599  0.00  0.00    +0.000 NA
ATOM     21  H   UNL     1      -0.409   2.972  21.120  0.00  0.00    +0.000 HD
ATOM     22  H   UNL     1       0.425   2.253  19.919  0.00  0.00    +0.000 HD
ENDBRANCH  19  20
ENDBRANCH  18  19
ENDBRANCH  14  18
ENDBRANCH   1  13
TORSDOF 7
ENDMDL
MODEL 7
REMARK VINA RESULT:      -6.6      2.356      3.759
REMARK  Name = 
REMARK  9 active torsions:
REMARK  status: ('A' for Active; 'I' for Inactive)
REMARK    1  A    between atoms: C_1  and  C_2
REMARK    2  A    between atoms: C_2  and  N_3
REMARK    3  A    between atoms: N_3  and  C_9
REMARK    4  A    between atoms: C_4  and  C_6
REMARK    5  A    between atoms: C_6  and  C_7
REMARK    6  A    between atoms: C_7  and  N_8
REMARK    7  A    between atoms: C_9  and  C_10
REMARK    8  A    between atoms: C_9  and  C_11
REMARK    9  A    between atoms: C_15  and  C_16
REMARK                            x       y       z     vdW  Elec       q    Type
REMARK                         _______ _______ _______ _____ _____    ______ ____
ROOT
ATOM      1  C   UNL     1       5.313   6.184  16.743  0.00  0.00    +0.000 C 
ATOM      2  C   UNL     1       4.937   6.819  15.395  0.00  0.00    +0.000 C 
ENDROOT
BRANCH   1   3
ATOM      3  C   UNL     1       4.140   5.625  17.556  0.00  0.00    +0.000 A 
ATOM      4  C   UNL     1       3.093   6.442  18.005  0.00  0.00    +0.000 A 
ATOM      5  C   UNL     1       2.011   5.902  18.708  0.00  0.00    +0.000 A 
ATOM      6  C   UNL     1       1.952   4.533  18.967  0.00  0.00    +0.000 A 
ATOM      7  C   UNL     1       2.989   3.692  18.558  0.00  0.00    +0.000 A 
ATOM      8  C   UNL     1       4.086   4.255  17.895  0.00  0.00    +0.000 A 
BRANCH   7   9
ATOM      9  C   UNL     1       2.937   2.202  18.773  0.00  0.00    +0.000 C 
ATOM     10  F   UNL     1       1.873   1.794  19.519  0.00  0.00    +0.000 F 
ATOM     11  F   UNL     1       2.850   1.513  17.599  0.00  0.00    +0.000 F 
ATOM     12  F   UNL     1       4.045   1.721  19.405  0.00  0.00    +0.000 F 
ENDBRANCH   7   9
ENDBRANCH   1   3
BRANCH   1  13
ATOM     13  N   UNL     1       6.375   5.160  16.546  0.00  0.00    +0.000 N 
ATOM     14  C   UNL     1       7.491   5.041  17.388  0.00  0.00    +0.000 C 
ATOM     15  O   UNL     1       8.288   4.107  17.293  0.00  0.00    +0.000 OA
BRANCH  13  17
ATOM     16  C   UNL     1       6.592   4.224  14.226  0.00  0.00    +0.000 C 
ATOM     17  C   UNL     1       6.075   4.036  15.640  0.00  0.00    +0.000 C 
ENDBRANCH  13  17
BRANCH  14  18
ATOM     18  C   UNL     1       7.676   6.134  18.433  0.00  0.00    +0.000 C 
BRANCH  18  19
ATOM     19  C   UNL     1       7.345   5.686  19.851  0.00  0.00    +0.000 C 
BRANCH  19  20
ATOM     20  N   UNL     1       8.556   5.163  20.493  0.00  0.00    +0.000 NA
ATOM     21  H   UNL     1       9.327   5.815  20.351  0.00  0.00    +0.000 HD
ATOM     22  H   UNL     1       8.832   4.296  20.034  0.00  0.00    +0.000 HD
ENDBRANCH  19  20
ENDBRANCH  18  19
ENDBRANCH  14  18
ENDBRANCH   1  13
TORSDOF 7
ENDMDL
MODEL 8
REMARK VINA RESULT:      -6.6      3.651      5.766
REMARK  Name = 
REMARK  9 active torsions:
REMARK  status: ('A' for Active; 'I' for Inactive)
REMARK    1  A    between atoms: C_1  and  C_2
REMARK    2  A    between atoms: C_2  and  N_3
REMARK    3  A    between atoms: N_3  and  C_9
REMARK    4  A    between atoms: C_4  and  C_6
REMARK    5  A    between atoms: C_6  and  C_7
REMARK    6  A    between atoms: C_7  and  N_8
REMARK    7  A    between atoms: C_9  and  C_10
REMARK    8  A    between atoms: C_9  and  C_11
REMARK    9  A    between atoms: C_15  and  C_16
REMARK                            x       y       z     vdW  Elec       q    Type
REMARK                         _______ _______ _______ _____ _____    ______ ____
ROOT
ATOM      1  C   UNL     1       3.341   5.442  19.558  0.00  0.00    +0.000 C 
ATOM      2  C   UNL     1       4.868   5.457  19.383  0.00  0.00    +0.000 C 
ENDROOT
BRANCH   1   3
ATOM      3  C   UNL     1       2.647   6.799  19.389  0.00  0.00    +0.000 A 
ATOM      4  C   UNL     1       2.731   7.532  18.198  0.00  0.00    +0.000 A 
ATOM      5  C   UNL     1       2.052   8.747  18.052  0.00  0.00    +0.000 A 
ATOM      6  C   UNL     1       1.271   9.246  19.093  0.00  0.00    +0.000 A 
ATOM      7  C   UNL     1       1.183   8.556  20.304  0.00  0.00    +0.000 A 
ATOM      8  C   UNL     1       1.905   7.365  20.449  0.00  0.00    +0.000 A 
BRANCH   7   9
ATOM      9  C   UNL     1       0.308   9.036  21.433  0.00  0.00    +0.000 C 
ATOM     10  F   UNL     1      -0.738   8.207  21.703  0.00  0.00    +0.000 F 
ATOM     11  F   UNL     1       0.995   9.157  22.604  0.00  0.00    +0.000 F 
ATOM     12  F   UNL     1      -0.238  10.262  21.193  0.00  0.00    +0.000 F 
ENDBRANCH   7   9
ENDBRANCH   1   3
BRANCH   1  13
ATOM     13  N   UNL     1       2.736   4.409  18.674  0.00  0.00    +0.000 N 
ATOM     14  C   UNL     1       1.577   3.694  19.012  0.00  0.00    +0.000 C 
ATOM     15  O   UNL     1       1.014   2.942  18.215  0.00  0.00    +0.000 OA
BRANCH  13  17
ATOM     16  C   UNL     1       4.172   3.267  16.959  0.00  0.00    +0.000 C 
ATOM     17  C   UNL     1       3.180   4.373  17.269  0.00  0.00    +0.000 C 
ENDBRANCH  13  17
BRANCH  14  18
ATOM     18  C   UNL     1       1.044   3.890  20.426  0.00  0.00    +0.000 C 
BRANCH  18  19
ATOM     19  C   UNL     1       1.276   2.691  21.338  0.00  0.00    +0.000 C 
BRANCH  19  20
ATOM     20  N   UNL     1       2.605   2.794  21.949  0.00  0.00    +0.000 NA
ATOM     21  H   UNL     1       3.306   2.940  21.222  0.00  0.00    +0.000 HD
ATOM     22  H   UNL     1       2.841   1.908  22.394  0.00  0.00    +0.000 HD
ENDBRANCH  19  20
ENDBRANCH  18  19
ENDBRANCH  14  18
ENDBRANCH   1  13
TORSDOF 7
ENDMDL
MODEL 9
REMARK VINA RESULT:      -6.6      1.997      3.112
REMARK  Name = 
REMARK  9 active torsions:
REMARK  status: ('A' for Active; 'I' for Inactive)
REMARK    1  A    between atoms: C_1  and  C_2
REMARK    2  A    between atoms: C_2  and  N_3
REMARK    3  A    between atoms: N_3  and  C_9
REMARK    4  A    between atoms: C_4  and  C_6
REMARK    5  A    between atoms: C_6  and  C_7
REMARK    6  A    between atoms: C_7  and  N_8
REMARK    7  A    between atoms: C_9  and  C_10
REMARK    8  A    between atoms: C_9  and  C_11
REMARK    9  A    between atoms: C_15  and  C_16
REMARK                            x       y       z     vdW  Elec       q    Type
REMARK                         _______ _______ _______ _____ _____    ______ ____
ROOT
ATOM      1  C   UNL     1       4.674   6.216  18.073  0.00  0.00    +0.000 C 
ATOM      2  C   UNL     1       3.527   7.170  17.700  0.00  0.00    +0.000 C 
ENDROOT
BRANCH   1   3
ATOM      3  C   UNL     1       4.248   4.916  18.766  0.00  0.00    +0.000 A 
ATOM      4  C   UNL     1       5.173   3.917  19.099  0.00  0.00    +0.000 A 
ATOM      5  C   UNL     1       4.768   2.758  19.771  0.00  0.00    +0.000 A 
ATOM      6  C   UNL     1       3.432   2.583  20.130  0.00  0.00    +0.000 A 
ATOM      7  C   UNL     1       2.478   3.546  19.793  0.00  0.00    +0.000 A 
ATOM      8  C   UNL     1       2.893   4.678  19.081  0.00  0.00    +0.000 A 
BRANCH   7   9
ATOM      9  C   UNL     1       1.036   3.417  20.210  0.00  0.00    +0.000 C 
ATOM     10  F   UNL     1       0.266   2.744  19.311  0.00  0.00    +0.000 F 
ATOM     11  F   UNL     1       0.897   2.749  21.390  0.00  0.00    +0.000 F 
ATOM     12  F   UNL     1       0.430   4.625  20.392  0.00  0.00    +0.000 F 
ENDBRANCH   7   9
ENDBRANCH   1   3
BRANCH   1  13
ATOM     13  N   UNL     1       5.520   5.944  16.880  0.00  0.00    +0.000 N 
ATOM     14  C   UNL     1       6.904   6.174  16.853  0.00  0.00    +0.000 C 
ATOM     15  O   UNL     1       7.610   5.818  15.908  0.00  0.00    +0.000 OA
BRANCH  13  17
ATOM     16  C   UNL     1       5.606   3.750  15.663  0.00  0.00    +0.000 C 
ATOM     17  C   UNL     1       4.942   5.106  15.814  0.00  0.00    +0.000 C 
ENDBRANCH  13  17
BRANCH  14  18
ATOM     18  C   UNL     1       7.499   6.893  18.057  0.00  0.00    +0.000 C 
BRANCH  18  19
ATOM     19  C   UNL     1       7.928   8.325  17.763  0.00  0.00    +0.000 C 
BRANCH  19  20
ATOM     20  N   UNL     1       8.777   8.814  18.855  0.00  0.00    +0.000 NA
ATOM     21  H   UNL     1       9.575   8.190  18.975  0.00  0.00    +0.000 HD
ATOM     22  H   UNL     1       8.255   8.776  19.730  0.00  0.00    +0.000 HD
ENDBRANCH  19  20
ENDBRANCH  18  19
ENDBRANCH  14  18
ENDBRANCH   1  13
TORSDOF 7
ENDMDL
