MODEL 1
REMARK VINA RESULT:      -6.6      0.000      0.000
REMARK  Name = 
REMARK  5 active torsions:
REMARK  status: ('A' for Active; 'I' for Inactive)
REMARK    1  A    between atoms: C_1  and  C_2
REMARK    2  A    between atoms: C_5  and  C_6
REMARK    3  A    between atoms: C_6  and  N_7
REMARK    4  A    between atoms: N_10  and  C_11
REMARK    5  A    between atoms: C_14  and  C_15
REMARK                            x       y       z     vdW  Elec       q    Type
REMARK                         _______ _______ _______ _____ _____    ______ ____
ROOT
ATOM      1  C   UNL     1       7.168   4.953  13.769  0.00  0.00    +0.000 C 
ATOM      2  C   UNL     1       6.595   4.892  15.153  0.00  0.00    +0.000 A 
ATOM      3  C   UNL     1       5.328   4.359  15.378  0.00  0.00    +0.000 A 
ATOM      4  C   UNL     1       4.815   4.304  16.674  0.00  0.00    +0.000 A 
ATOM      5  C   UNL     1       5.541   4.791  17.782  0.00  0.00    +0.000 A 
ATOM      6  C   UNL     1       6.824   5.330  17.559  0.00  0.00    +0.000 A 
ATOM      7  C   UNL     1       7.707   5.882  18.644  0.00  0.00    +0.000 C 
ATOM      8  C   UNL     1       7.333   5.368  16.242  0.00  0.00    +0.000 A 
ENDROOT
BRANCH   5   9
ATOM      9  C   UNL     1       4.867   4.723  19.142  0.00  0.00    +0.000 C 
BRANCH   9  10
ATOM     10  N   UNL     1       3.504   4.160  19.124  0.00  0.00    +0.000 NA
ATOM     11  C   UNL     1       2.636   4.908  20.059  0.00  0.00    +0.000 C 
ATOM     12  C   UNL     1       1.198   4.337  20.134  0.00  0.00    +0.000 C 
ATOM     13  N   UNL     1       1.107   2.895  20.435  0.00  0.00    +0.000 NA
ATOM     14  C   UNL     1       1.375   2.609  21.842  0.00  0.00    +0.000 C 
ATOM     15  C   UNL     1       2.029   2.163  19.546  0.00  0.00    +0.000 C 
ATOM     16  C   UNL     1       3.468   2.728  19.483  0.00  0.00    +0.000 C 
ENDBRANCH   9  10
ENDBRANCH   5   9
TORSDOF 2
ENDMDL
MODEL 2
REMARK VINA RESULT:      -6.3      1.660      3.149
REMARK  Name = 
REMARK  5 active torsions:
REMARK  status: ('A' for Active; 'I' for Inactive)
REMARK    1  A    between atoms: C_1  and  C_2
REMARK    2  A    between atoms: C_5  and  C_6
REMARK    3  A    between atoms: C_6  and  N_7
REMARK    4  A    between atoms: N_10  and  C_11
REMARK    5  A    between atoms: C_14  and  C_15
REMARK                            x       y       z     vdW  Elec       q    Type
REMARK                         _______ _______ _______ _____ _____    ______ ____
ROOT
ATOM      1  C   UNL     1       8.731   9.065  18.165  0.00  0.00    +0.000 C 
ATOM      2  C   UNL     1       7.883   7.831  18.096  0.00  0.00    +0.000 A 
ATOM      3  C   UNL     1       8.092   6.770  18.974  0.00  0.00    +0.000 A 
ATOM      4  C   UNL     1       7.286   5.634  18.900  0.00  0.00    +0.000 A 
ATOM      5  C   UNL     1       6.260   5.513  17.939  0.00  0.00    +0.000 A 
ATOM      6  C   UNL     1       6.044   6.583  17.049  0.00  0.00    +0.000 A 
ATOM      7  C   UNL     1       4.987   6.591  15.979  0.00  0.00    +0.000 C 
ATOM      8  C   UNL     1       6.860   7.732  17.145  0.00  0.00    +0.000 A 
ENDROOT
BRANCH   5   9
ATOM      9  C   UNL     1       5.475   4.212  17.917  0.00  0.00    +0.000 C 
BRANCH   9  10
ATOM     10  N   UNL     1       4.333   4.169  18.851  0.00  0.00    +0.000 NA
ATOM     11  C   UNL     1       4.183   2.805  19.403  0.00  0.00    +0.000 C 
ATOM     12  C   UNL     1       2.966   2.671  20.353  0.00  0.00    +0.000 C 
ATOM     13  N   UNL     1       1.676   3.113  19.791  0.00  0.00    +0.000 NA
ATOM     14  C   UNL     1       1.132   2.149  18.838  0.00  0.00    +0.000 C 
ATOM     15  C   UNL     1       1.852   4.444  19.180  0.00  0.00    +0.000 C 
ATOM     16  C   UNL     1       3.059   4.571  18.221  0.00  0.00    +0.000 C 
ENDBRANCH   9  10
ENDBRANCH   5   9
TORSDOF 2
ENDMDL
MODEL 3
REMARK VINA RESULT:      -6.2      2.125      5.950
REMARK  Name = 
REMARK  5 active torsions:
REMARK  status: ('A' for Active; 'I' for Inactive)
REMARK    1  A    between atoms: C_1  and  C_2
REMARK    2  A    between atoms: C_5  and  C_6
REMARK    3  A    between atoms: C_6  and  N_7
REMARK    4  A    between atoms: N_10  and  C_11
REMARK    5  A    between atoms: C_14  and  C_15
REMARK                            x       y       z     vdW  Elec       q    Type
REMARK                         _______ _______ _______ _____ _____    ______ ____
ROOT
ATOM      1  C   UNL     1       1.390   7.949  21.040  0.00  0.00    +0.000 C 
ATOM      2  C   UNL     1       1.937   6.906  20.113  0.00  0.00    +0.000 A 
ATOM      3  C   UNL     1       2.456   7.258  18.869  0.00  0.00    +0.000 A 
ATOM      4  C   UNL     1       2.968   6.273  18.023  0.00  0.00    +0.000 A 
ATOM      5  C   UNL     1       2.963   4.909  18.383  0.00  0.00    +0.000 A 
ATOM      6  C   UNL     1       2.440   4.548  19.641  0.00  0.00    +0.000 A 
ATOM      7  C   UNL     1       2.374   3.136  20.154  0.00  0.00    +0.000 C 
ATOM      8  C   UNL     1       1.936   5.558  20.490  0.00  0.00    +0.000 A 
ENDROOT
BRANCH   5   9
ATOM      9  C   UNL     1       3.503   3.917  17.366  0.00  0.00    +0.000 C 
BRANCH   9  10
ATOM     10  N   UNL     1       4.944   4.053  17.081  0.00  0.00    +0.000 NA
ATOM     11  C   UNL     1       5.663   4.470  18.305  0.00  0.00    +0.000 C 
ATOM     12  C   UNL     1       7.179   4.687  18.068  0.00  0.00    +0.000 C 
ATOM     13  N   UNL     1       7.519   5.607  16.966  0.00  0.00    +0.000 NA
ATOM     14  C   UNL     1       7.300   7.005  17.329  0.00  0.00    +0.000 C 
ATOM     15  C   UNL     1       6.744   5.228  15.769  0.00  0.00    +0.000 C 
ATOM     16  C   UNL     1       5.229   5.025  16.006  0.00  0.00    +0.000 C 
ENDBRANCH   9  10
ENDBRANCH   5   9
TORSDOF 2
ENDMDL
MODEL 4
REMARK VINA RESULT:      -6.2      1.564      2.656
REMARK  Name = 
REMARK  5 active torsions:
REMARK  status: ('A' for Active; 'I' for Inactive)
REMARK    1  A    between atoms: C_1  and  C_2
REMARK    2  A    between atoms: C_5  and  C_6
REMARK    3  A    between atoms: C_6  and  N_7
REMARK    4  A    between atoms: N_10  and  C_11
REMARK    5  A    between atoms: C_14  and  C_15
REMARK                            x       y       z     vdW  Elec       q    Type
REMARK                         _______ _______ _______ _____ _____    ______ ____
ROOT
ATOM      1  C   UNL     1       7.857   7.942  17.549  0.00  0.00    +0.000 C 
ATOM      2  C   UNL     1       6.831   6.864  17.363  0.00  0.00    +0.000 A 
ATOM      3  C   UNL     1       7.196   5.604  16.893  0.00  0.00    +0.000 A 
ATOM      4  C   UNL     1       6.229   4.612  16.734  0.00  0.00    +0.000 A 
ATOM      5  C   UNL     1       4.868   4.849  17.022  0.00  0.00    +0.000 A 
ATOM      6  C   UNL     1       4.494   6.121  17.499  0.00  0.00    +0.000 A 
ATOM      7  C   UNL     1       3.083   6.511  17.846  0.00  0.00    +0.000 C 
ATOM      8  C   UNL     1       5.487   7.111  17.665  0.00  0.00    +0.000 A 
ENDROOT
BRANCH   5   9
ATOM      9  C   UNL     1       3.893   3.710  16.768  0.00  0.00    +0.000 C 
BRANCH   9  10
ATOM     10  N   UNL     1       3.567   2.904  17.960  0.00  0.00    +0.000 NA
ATOM     11  C   UNL     1       2.119   2.988  18.246  0.00  0.00    +0.000 C 
ATOM     12  C   UNL     1       1.711   2.208  19.521  0.00  0.00    +0.000 C 
ATOM     13  N   UNL     1       2.467   2.552  20.740  0.00  0.00    +0.000 NA
ATOM     14  C   UNL     1       2.052   3.834  21.301  0.00  0.00    +0.000 C 
ATOM     15  C   UNL     1       3.909   2.536  20.428  0.00  0.00    +0.000 C 
ATOM     16  C   UNL     1       4.315   3.327  19.162  0.00  0.00    +0.000 C 
ENDBRANCH   9  10
ENDBRANCH   5   9
TORSDOF 2
ENDMDL
MODEL 5
REMARK VINA RESULT:      -6.2      1.634      2.791
REMARK  Name = 
REMARK  5 active torsions:
REMARK  status: ('A' for Active; 'I' for Inactive)
REMARK    1  A    between atoms: C_1  and  C_2
REMARK    2  A    between atoms: C_5  and  C_6
REMARK    3  A    between atoms: C_6  and  N_7
REMARK    4  A    between atoms: N_10  and  C_11
REMARK    5  A    between atoms: C_14  and  C_15
REMARK                            x       y       z     vdW  Elec       q    Type
REMARK                         _______ _______ _______ _____ _____    ______ ____
ROOT
ATOM      1  C   UNL     1       8.654   8.779  18.114  0.00  0.00    +0.000 C 
ATOM      2  C   UNL     1       7.758   7.577  18.074  0.00  0.00    +0.000 A 
ATOM      3  C   UNL     1       7.944   6.518  18.960  0.00  0.00    +0.000 A 
ATOM      4  C   UNL     1       7.096   5.412  18.913  0.00  0.00    +0.000 A 
ATOM      5  C   UNL     1       6.049   5.319  17.971  0.00  0.00    +0.000 A 
ATOM      6  C   UNL     1       5.856   6.388  17.073  0.00  0.00    +0.000 A 
ATOM      7  C   UNL     1       4.781   6.424  16.022  0.00  0.00    +0.000 C 
ATOM      8  C   UNL     1       6.716   7.506  17.142  0.00  0.00    +0.000 A 
ENDROOT
BRANCH   5   9
ATOM      9  C   UNL     1       5.215   4.048  17.978  0.00  0.00    +0.000 C 
BRANCH   9  10
ATOM     10  N   UNL     1       3.784   4.255  18.272  0.00  0.00    +0.000 NA
ATOM     11  C   UNL     1       3.621   4.802  19.636  0.00  0.00    +0.000 C 
ATOM     12  C   UNL     1       2.137   4.994  20.035  0.00  0.00    +0.000 C 
ATOM     13  N   UNL     1       1.284   3.799  19.886  0.00  0.00    +0.000 NA
ATOM     14  C   UNL     1       1.520   2.820  20.944  0.00  0.00    +0.000 C 
ATOM     15  C   UNL     1       1.506   3.218  18.548  0.00  0.00    +0.000 C 
ATOM     16  C   UNL     1       2.989   3.015  18.158  0.00  0.00    +0.000 C 
ENDBRANCH   9  10
ENDBRANCH   5   9
TORSDOF 2
ENDMDL
MODEL 6
REMARK VINA RESULT:      -6.1      1.874      6.335
REMARK  Name = 
REMARK  5 active torsions:
REMARK  status: ('A' for Active; 'I' for Inactive)
REMARK    1  A    between atoms: C_1  and  C_2
REMARK    2  A    between atoms: C_5  and  C_6
REMARK    3  A    between atoms: C_6  and  N_7
REMARK    4  A    between atoms: N_10  and  C_11
REMARK    5  A    between atoms: C_14  and  C_15
REMARK                            x       y       z     vdW  Elec       q    Type
REMARK                         _______ _______ _______ _____ _____    ______ ____
ROOT
ATOM      1  C   UNL     1       1.271   2.329  22.271  0.00  0.00    +0.000 C 
ATOM      2  C   UNL     1       1.781   3.099  21.090  0.00  0.00    +0.000 A 
ATOM      3  C   UNL     1       2.130   4.442  21.210  0.00  0.00    +0.000 A 
ATOM      4  C   UNL     1       2.611   5.140  20.102  0.00  0.00    +0.000 A 
ATOM      5  C   UNL     1       2.744   4.526  18.839  0.00  0.00    +0.000 A 
ATOM      6  C   UNL     1       2.394   3.167  18.712  0.00  0.00    +0.000 A 
ATOM      7  C   UNL     1       2.487   2.387  17.430  0.00  0.00    +0.000 C 
ATOM      8  C   UNL     1       1.920   2.472  19.847  0.00  0.00    +0.000 A 
ENDROOT
BRANCH   5   9
ATOM      9  C   UNL     1       3.234   5.392  17.690  0.00  0.00    +0.000 C 
BRANCH   9  10
ATOM     10  N   UNL     1       4.696   5.593  17.653  0.00  0.00    +0.000 NA
ATOM     11  C   UNL     1       5.042   6.596  16.623  0.00  0.00    +0.000 C 
ATOM     12  C   UNL     1       6.569   6.818  16.489  0.00  0.00    +0.000 C 
ATOM     13  N   UNL     1       7.367   5.597  16.267  0.00  0.00    +0.000 NA
ATOM     14  C   UNL     1       7.244   5.101  14.899  0.00  0.00    +0.000 C 
ATOM     15  C   UNL     1       6.965   4.577  17.254  0.00  0.00    +0.000 C 
ATOM     16  C   UNL     1       5.440   4.347  17.376  0.00  0.00    +0.000 C 
ENDBRANCH   9  10
ENDBRANCH   5   9
TORSDOF 2
ENDMDL
MODEL 7
REMARK VINA RESULT:      -6.1      1.229      2.524
REMARK  Name = 
REMARK  5 active torsions:
REMARK  status: ('A' for Active; 'I' for Inactive)
REMARK    1  A    between atoms: C_1  and  C_2
REMARK    2  A    between atoms: C_5  and  C_6
REMARK    3  A    between atoms: C_6  and  N_7
REMARK    4  A    between atoms: N_10  and  C_11
REMARK    5  A    between atoms: C_14  and  C_15
REMARK                            x       y       z     vdW  Elec       q    Type
REMARK                         _______ _______ _______ _____ _____    ______ ____
ROOT
ATOM      1  C   UNL     1       8.143   7.592  18.241  0.00  0.00    +0.000 C 
ATOM      2  C   UNL     1       7.174   6.472  18.008  0.00  0.00    +0.000 A 
ATOM      3  C   UNL     1       6.769   5.648  19.055  0.00  0.00    +0.000 A 
ATOM      4  C   UNL     1       5.860   4.617  18.820  0.00  0.00    +0.000 A 
ATOM      5  C   UNL     1       5.339   4.365  17.533  0.00  0.00    +0.000 A 
ATOM      6  C   UNL     1       5.745   5.197  16.470  0.00  0.00    +0.000 A 
ATOM      7  C   UNL     1       5.270   5.045  15.051  0.00  0.00    +0.000 C 
ATOM      8  C   UNL     1       6.657   6.244  16.727  0.00  0.00    +0.000 A 
ENDROOT
BRANCH   5   9
ATOM      9  C   UNL     1       4.391   3.187  17.381  0.00  0.00    +0.000 C 
BRANCH   9  10
ATOM     10  N   UNL     1       3.017   3.440  17.855  0.00  0.00    +0.000 NA
ATOM     11  C   UNL     1       3.044   4.357  19.015  0.00  0.00    +0.000 C 
ATOM     12  C   UNL     1       1.636   4.626  19.603  0.00  0.00    +0.000 C 
ATOM     13  N   UNL     1       0.858   3.422  19.953  0.00  0.00    +0.000 NA
ATOM     14  C   UNL     1       1.335   2.799  21.185  0.00  0.00    +0.000 C 
ATOM     15  C   UNL     1       0.897   2.481  18.817  0.00  0.00    +0.000 C 
ATOM     16  C   UNL     1       2.306   2.204  18.241  0.00  0.00    +0.000 C 
ENDBRANCH   9  10
ENDBRANCH   5   9
TORSDOF 2
ENDMDL
MODEL 8
REMARK VINA RESULT:      -6.0      1.880      6.245
REMARK  Name = 
REMARK  5 active torsions:
REMARK  status: ('A' for Active; 'I' for Inactive)
REMARK    1  A    between atoms: C_1  and  C_2
REMARK    2  A    between atoms: C_5  and  C_6
REMARK    3  A    between atoms: C_6  and  N_7
REMARK    4  A    between atoms: N_10  and  C_11
REMARK    5  A    between atoms: C_14  and  C_15
REMARK                            x       y       z     vdW  Elec       q    Type
REMARK                         _______ _______ _______ _____ _____    ______ ____
ROOT
ATOM      1  C   UNL     1       1.132   2.409  22.170  0.00  0.00    +0.000 C 
ATOM      2  C   UNL     1       1.633   3.089  20.932  0.00  0.00    +0.000 A 
ATOM      3  C   UNL     1       1.947   2.353  19.791  0.00  0.00    +0.000 A 
ATOM      4  C   UNL     1       2.404   3.005  18.645  0.00  0.00    +0.000 A 
ATOM      5  C   UNL     1       2.577   4.405  18.606  0.00  0.00    +0.000 A 
ATOM      6  C   UNL     1       2.260   5.153  19.757  0.00  0.00    +0.000 A 
ATOM      7  C   UNL     1       2.394   6.648  19.856  0.00  0.00    +0.000 C 
ATOM      8  C   UNL     1       1.788   4.479  20.905  0.00  0.00    +0.000 A 
ENDROOT
BRANCH   5   9
ATOM      9  C   UNL     1       3.125   5.004  17.321  0.00  0.00    +0.000 C 
BRANCH   9  10
ATOM     10  N   UNL     1       4.578   5.258  17.333  0.00  0.00    +0.000 NA
ATOM     11  C   UNL     1       4.905   6.368  16.413  0.00  0.00    +0.000 C 
ATOM     12  C   UNL     1       6.425   6.655  16.331  0.00  0.00    +0.000 C 
ATOM     13  N   UNL     1       7.270   5.491  16.006  0.00  0.00    +0.000 NA
ATOM     14  C   UNL     1       7.187   5.128  14.594  0.00  0.00    +0.000 C 
ATOM     15  C   UNL     1       6.889   4.365  16.881  0.00  0.00    +0.000 C 
ATOM     16  C   UNL     1       5.372   4.072  16.950  0.00  0.00    +0.000 C 
ENDBRANCH   9  10
ENDBRANCH   5   9
TORSDOF 2
ENDMDL
MODEL 9
REMARK VINA RESULT:      -5.9      3.687      5.920
REMARK  Name = 
REMARK  5 active torsions:
REMARK  status: ('A' for Active; 'I' for Inactive)
REMARK    1  A    between atoms: C_1  and  C_2
REMARK    2  A    between atoms: C_5  and  C_6
REMARK    3  A    between atoms: C_6  and  N_7
REMARK    4  A    between atoms: N_10  and  C_11
REMARK    5  A    between atoms: C_14  and  C_15
REMARK                            x       y       z     vdW  Elec       q    Type
REMARK                         _______ _______ _______ _____ _____    ______ ____
ROOT
ATOM      1  C   UNL     1      -0.503  11.266  20.075  0.00  0.00    +0.000 C 
ATOM      2  C   UNL     1       0.325  10.016  20.059  0.00  0.00    +0.000 A 
ATOM      3  C   UNL     1       0.377   9.180  21.172  0.00  0.00    +0.000 A 
ATOM      4  C   UNL     1       1.146   8.017  21.136  0.00  0.00    +0.000 A 
ATOM      5  C   UNL     1       1.899   7.660  19.997  0.00  0.00    +0.000 A 
ATOM      6  C   UNL     1       1.849   8.502  18.868  0.00  0.00    +0.000 A 
ATOM      7  C   UNL     1       2.598   8.244  17.590  0.00  0.00    +0.000 C 
ATOM      8  C   UNL     1       1.056   9.669  18.918  0.00  0.00    +0.000 A 
ENDROOT
BRANCH   5   9
ATOM      9  C   UNL     1       2.738   6.396  20.084  0.00  0.00    +0.000 C 
BRANCH   9  10
ATOM     10  N   UNL     1       2.010   5.153  19.764  0.00  0.00    +0.000 NA
ATOM     11  C   UNL     1       2.421   4.074  20.689  0.00  0.00    +0.000 C 
ATOM     12  C   UNL     1       1.736   2.720  20.377  0.00  0.00    +0.000 C 
ATOM     13  N   UNL     1       1.876   2.248  18.986  0.00  0.00    +0.000 NA
ATOM     14  C   UNL     1       3.211   1.720  18.717  0.00  0.00    +0.000 C 
ATOM     15  C   UNL     1       1.532   3.352  18.070  0.00  0.00    +0.000 C 
ATOM     16  C   UNL     1       2.229   4.700  18.375  0.00  0.00    +0.000 C 
ENDBRANCH   9  10
ENDBRANCH   5   9
TORSDOF 2
ENDMDL
