MODEL 1
REMARK VINA RESULT:      -7.9      0.000      0.000
REMARK  Name = 
REMARK  3 active torsions:
REMARK  status: ('A' for Active; 'I' for Inactive)
REMARK    1  A    between atoms: C_4  and  C_5
REMARK    2  A    between atoms: C_14  and  O_15
REMARK    3  A    between atoms: C_16  and  O_17
REMARK                            x       y       z     vdW  Elec       q    Type
REMARK                         _______ _______ _______ _____ _____    ______ ____
ROOT
ATOM      1  O   UNL     1       2.457   3.128  17.636  0.00  0.00    +0.000 OA
ATOM      2  C   UNL     1       2.943   4.252  17.624  0.00  0.00    +0.000 A 
ATOM      3  C   UNL     1       2.252   5.373  18.303  0.00  0.00    +0.000 A 
ATOM      4  C   UNL     1       2.845   6.575  18.313  0.00  0.00    +0.000 A 
ATOM      5  N   UNL     1       4.088   6.834  17.769  0.00  0.00    +0.000 N 
ATOM      6  C   UNL     1       4.739   5.851  16.996  0.00  0.00    +0.000 A 
ATOM      7  C   UNL     1       5.967   6.093  16.375  0.00  0.00    +0.000 A 
ATOM      8  C   UNL     1       6.592   5.102  15.616  0.00  0.00    +0.000 A 
ATOM      9  C   UNL     1       6.038   3.835  15.498  0.00  0.00    +0.000 A 
ATOM     10  C   UNL     1       4.847   3.548  16.167  0.00  0.00    +0.000 A 
ATOM     11  C   UNL     1       4.212   4.550  16.917  0.00  0.00    +0.000 A 
ATOM     12  H   UNL     1       4.238   7.800  17.495  0.00  0.00    +0.000 HD
ENDROOT
BRANCH   4  13
ATOM     13  C   UNL     1       2.135   7.714  18.912  0.00  0.00    +0.000 A 
ATOM     14  C   UNL     1       1.768   8.817  18.126  0.00  0.00    +0.000 A 
ATOM     15  C   UNL     1       1.052   9.872  18.693  0.00  0.00    +0.000 A 
ATOM     16  C   UNL     1       0.708   9.826  20.040  0.00  0.00    +0.000 A 
ATOM     17  F   UNL     1       0.003  10.829  20.576  0.00  0.00    +0.000 F 
ATOM     18  C   UNL     1       1.082   8.750  20.838  0.00  0.00    +0.000 A 
ATOM     19  C   UNL     1       1.798   7.692  20.274  0.00  0.00    +0.000 A 
ENDBRANCH   4  13
BRANCH   7  20
ATOM     20  O   UNL     1       6.619   7.292  16.505  0.00  0.00    +0.000 OA
ATOM     21  H   UNL     1       7.253   7.182  17.237  0.00  0.00    +0.000 HD
ENDBRANCH   7  20
BRANCH   8  22
ATOM     22  O   UNL     1       7.779   5.362  14.992  0.00  0.00    +0.000 OA
ATOM     23  H   UNL     1       7.581   5.304  14.035  0.00  0.00    +0.000 HD
ENDBRANCH   8  22
TORSDOF 3
ENDMDL
MODEL 2
REMARK VINA RESULT:      -7.8      0.161      1.095
REMARK  Name = 
REMARK  3 active torsions:
REMARK  status: ('A' for Active; 'I' for Inactive)
REMARK    1  A    between atoms: C_4  and  C_5
REMARK    2  A    between atoms: C_14  and  O_15
REMARK    3  A    between atoms: C_16  and  O_17
REMARK                            x       y       z     vdW  Elec       q    Type
REMARK                         _______ _______ _______ _____ _____    ______ ____
ROOT
ATOM      1  O   UNL     1       2.474   3.064  17.408  0.00  0.00    +0.000 OA
ATOM      2  C   UNL     1       2.959   4.188  17.451  0.00  0.00    +0.000 A 
ATOM      3  C   UNL     1       2.263   5.276  18.176  0.00  0.00    +0.000 A 
ATOM      4  C   UNL     1       2.856   6.477  18.245  0.00  0.00    +0.000 A 
ATOM      5  N   UNL     1       4.101   6.761  17.722  0.00  0.00    +0.000 N 
ATOM      6  C   UNL     1       4.758   5.815  16.908  0.00  0.00    +0.000 A 
ATOM      7  C   UNL     1       5.990   6.085  16.307  0.00  0.00    +0.000 A 
ATOM      8  C   UNL     1       6.620   5.131  15.507  0.00  0.00    +0.000 A 
ATOM      9  C   UNL     1       6.067   3.870  15.327  0.00  0.00    +0.000 A 
ATOM     10  C   UNL     1       4.873   3.552  15.975  0.00  0.00    +0.000 A 
ATOM     11  C   UNL     1       4.232   4.518  16.766  0.00  0.00    +0.000 A 
ATOM     12  H   UNL     1       4.253   7.739  17.494  0.00  0.00    +0.000 HD
ENDROOT
BRANCH   4  13
ATOM     13  C   UNL     1       2.141   7.587  18.892  0.00  0.00    +0.000 A 
ATOM     14  C   UNL     1       1.833   7.534  20.259  0.00  0.00    +0.000 A 
ATOM     15  C   UNL     1       1.197   8.613  20.875  0.00  0.00    +0.000 A 
ATOM     16  C   UNL     1       0.867   9.737  20.125  0.00  0.00    +0.000 A 
ATOM     17  F   UNL     1       0.276  10.779  20.723  0.00  0.00    +0.000 F 
ATOM     18  C   UNL     1       1.147   9.797  18.764  0.00  0.00    +0.000 A 
ATOM     19  C   UNL     1       1.783   8.720  18.145  0.00  0.00    +0.000 A 
ENDBRANCH   4  13
BRANCH   7  20
ATOM     20  O   UNL     1       6.641   7.277  16.496  0.00  0.00    +0.000 OA
ATOM     21  H   UNL     1       5.986   7.889  16.878  0.00  0.00    +0.000 HD
ENDBRANCH   7  20
BRANCH   8  22
ATOM     22  O   UNL     1       7.811   5.419  14.903  0.00  0.00    +0.000 OA
ATOM     23  H   UNL     1       8.475   5.383  15.620  0.00  0.00    +0.000 HD
ENDBRANCH   8  22
TORSDOF 3
ENDMDL
MODEL 3
REMARK VINA RESULT:      -7.5      4.092      6.803
REMARK  Name = 
REMARK  3 active torsions:
REMARK  status: ('A' for Active; 'I' for Inactive)
REMARK    1  A    between atoms: C_4  and  C_5
REMARK    2  A    between atoms: C_14  and  O_15
REMARK    3  A    between atoms: C_16  and  O_17
REMARK                            x       y       z     vdW  Elec       q    Type
REMARK                         _______ _______ _______ _____ _____    ______ ____
ROOT
ATOM      1  O   UNL     1       2.653   7.416  18.450  0.00  0.00    +0.000 OA
ATOM      2  C   UNL     1       3.262   6.370  18.269  0.00  0.00    +0.000 A 
ATOM      3  C   UNL     1       4.088   6.185  17.053  0.00  0.00    +0.000 A 
ATOM      4  C   UNL     1       4.782   5.046  16.922  0.00  0.00    +0.000 A 
ATOM      5  N   UNL     1       4.817   4.042  17.869  0.00  0.00    +0.000 N 
ATOM      6  C   UNL     1       3.955   4.092  18.983  0.00  0.00    +0.000 A 
ATOM      7  C   UNL     1       3.912   3.067  19.932  0.00  0.00    +0.000 A 
ATOM      8  C   UNL     1       3.050   3.141  21.026  0.00  0.00    +0.000 A 
ATOM      9  C   UNL     1       2.249   4.256  21.232  0.00  0.00    +0.000 A 
ATOM     10  C   UNL     1       2.326   5.324  20.337  0.00  0.00    +0.000 A 
ATOM     11  C   UNL     1       3.182   5.241  19.227  0.00  0.00    +0.000 A 
ATOM     12  H   UNL     1       5.031   3.120  17.502  0.00  0.00    +0.000 HD
ENDROOT
BRANCH   4  13
ATOM     13  C   UNL     1       5.543   4.815  15.685  0.00  0.00    +0.000 A 
ATOM     14  C   UNL     1       4.989   4.062  14.639  0.00  0.00    +0.000 A 
ATOM     15  C   UNL     1       5.699   3.888  13.450  0.00  0.00    +0.000 A 
ATOM     16  C   UNL     1       6.958   4.463  13.310  0.00  0.00    +0.000 A 
ATOM     17  F   UNL     1       7.627   4.312  12.161  0.00  0.00    +0.000 F 
ATOM     18  C   UNL     1       7.530   5.196  14.344  0.00  0.00    +0.000 A 
ATOM     19  C   UNL     1       6.823   5.371  15.535  0.00  0.00    +0.000 A 
ENDBRANCH   4  13
BRANCH   7  20
ATOM     20  O   UNL     1       4.726   1.967  19.844  0.00  0.00    +0.000 OA
ATOM     21  H   UNL     1       4.707   1.541  20.720  0.00  0.00    +0.000 HD
ENDBRANCH   7  20
BRANCH   8  22
ATOM     22  O   UNL     1       2.999   2.118  21.931  0.00  0.00    +0.000 OA
ATOM     23  H   UNL     1       3.920   1.799  22.006  0.00  0.00    +0.000 HD
ENDBRANCH   8  22
TORSDOF 3
ENDMDL
MODEL 4
REMARK VINA RESULT:      -7.5      4.158      7.080
REMARK  Name = 
REMARK  3 active torsions:
REMARK  status: ('A' for Active; 'I' for Inactive)
REMARK    1  A    between atoms: C_4  and  C_5
REMARK    2  A    between atoms: C_14  and  O_15
REMARK    3  A    between atoms: C_16  and  O_17
REMARK                            x       y       z     vdW  Elec       q    Type
REMARK                         _______ _______ _______ _____ _____    ______ ____
ROOT
ATOM      1  O   UNL     1       3.886   7.772  17.823  0.00  0.00    +0.000 OA
ATOM      2  C   UNL     1       4.176   6.609  17.572  0.00  0.00    +0.000 A 
ATOM      3  C   UNL     1       4.887   6.270  16.316  0.00  0.00    +0.000 A 
ATOM      4  C   UNL     1       5.235   4.993  16.106  0.00  0.00    +0.000 A 
ATOM      5  N   UNL     1       5.016   3.969  17.006  0.00  0.00    +0.000 N 
ATOM      6  C   UNL     1       4.232   4.194  18.155  0.00  0.00    +0.000 A 
ATOM      7  C   UNL     1       3.934   3.171  19.059  0.00  0.00    +0.000 A 
ATOM      8  C   UNL     1       3.156   3.420  20.191  0.00  0.00    +0.000 A 
ATOM      9  C   UNL     1       2.700   4.700  20.478  0.00  0.00    +0.000 A 
ATOM     10  C   UNL     1       3.045   5.751  19.628  0.00  0.00    +0.000 A 
ATOM     11  C   UNL     1       3.814   5.496  18.482  0.00  0.00    +0.000 A 
ATOM     12  H   UNL     1       4.957   3.044  16.590  0.00  0.00    +0.000 HD
ENDROOT
BRANCH   4  13
ATOM     13  C   UNL     1       5.868   4.629  14.830  0.00  0.00    +0.000 A 
ATOM     14  C   UNL     1       5.239   3.732  13.954  0.00  0.00    +0.000 A 
ATOM     15  C   UNL     1       5.824   3.429  12.724  0.00  0.00    +0.000 A 
ATOM     16  C   UNL     1       7.034   4.018  12.374  0.00  0.00    +0.000 A 
ATOM     17  F   UNL     1       7.583   3.742  11.185  0.00  0.00    +0.000 F 
ATOM     18  C   UNL     1       7.681   4.894  13.239  0.00  0.00    +0.000 A 
ATOM     19  C   UNL     1       7.099   5.199  14.471  0.00  0.00    +0.000 A 
ENDBRANCH   4  13
BRANCH   7  20
ATOM     20  O   UNL     1       4.409   1.896  18.890  0.00  0.00    +0.000 OA
ATOM     21  H   UNL     1       4.169   1.404  19.696  0.00  0.00    +0.000 HD
ENDBRANCH   7  20
BRANCH   8  22
ATOM     22  O   UNL     1       2.849   2.404  21.050  0.00  0.00    +0.000 OA
ATOM     23  H   UNL     1       3.598   1.779  20.983  0.00  0.00    +0.000 HD
ENDBRANCH   8  22
TORSDOF 3
ENDMDL
MODEL 5
REMARK VINA RESULT:      -7.5      3.590      6.598
REMARK  Name = 
REMARK  3 active torsions:
REMARK  status: ('A' for Active; 'I' for Inactive)
REMARK    1  A    between atoms: C_4  and  C_5
REMARK    2  A    between atoms: C_14  and  O_15
REMARK    3  A    between atoms: C_16  and  O_17
REMARK                            x       y       z     vdW  Elec       q    Type
REMARK                         _______ _______ _______ _____ _____    ______ ____
ROOT
ATOM      1  O   UNL     1       2.069   5.212  21.165  0.00  0.00    +0.000 OA
ATOM      2  C   UNL     1       2.364   5.856  20.167  0.00  0.00    +0.000 A 
ATOM      3  C   UNL     1       3.227   5.260  19.119  0.00  0.00    +0.000 A 
ATOM      4  C   UNL     1       3.480   5.980  18.017  0.00  0.00    +0.000 A 
ATOM      5  N   UNL     1       2.953   7.231  17.766  0.00  0.00    +0.000 N 
ATOM      6  C   UNL     1       2.237   7.910  18.772  0.00  0.00    +0.000 A 
ATOM      7  C   UNL     1       1.740   9.203  18.582  0.00  0.00    +0.000 A 
ATOM      8  C   UNL     1       1.033   9.853  19.594  0.00  0.00    +0.000 A 
ATOM      9  C   UNL     1       0.757   9.216  20.797  0.00  0.00    +0.000 A 
ATOM     10  C   UNL     1       1.180   7.900  20.983  0.00  0.00    +0.000 A 
ATOM     11  C   UNL     1       1.906   7.253  19.971  0.00  0.00    +0.000 A 
ATOM     12  H   UNL     1       3.505   7.805  17.136  0.00  0.00    +0.000 HD
ENDROOT
BRANCH   4  13
ATOM     13  C   UNL     1       4.398   5.434  17.007  0.00  0.00    +0.000 A 
ATOM     14  C   UNL     1       4.632   4.053  16.931  0.00  0.00    +0.000 A 
ATOM     15  C   UNL     1       5.468   3.539  15.938  0.00  0.00    +0.000 A 
ATOM     16  C   UNL     1       6.069   4.403  15.029  0.00  0.00    +0.000 A 
ATOM     17  F   UNL     1       6.854   3.905  14.065  0.00  0.00    +0.000 F 
ATOM     18  C   UNL     1       5.864   5.776  15.103  0.00  0.00    +0.000 A 
ATOM     19  C   UNL     1       5.029   6.294  16.095  0.00  0.00    +0.000 A 
ENDBRANCH   4  13
BRANCH   7  20
ATOM     20  O   UNL     1       1.903   9.872  17.397  0.00  0.00    +0.000 OA
ATOM     21  H   UNL     1       2.456  10.649  17.594  0.00  0.00    +0.000 HD
ENDBRANCH   7  20
BRANCH   8  22
ATOM     22  O   UNL     1       0.578  11.127  19.405  0.00  0.00    +0.000 OA
ATOM     23  H   UNL     1       1.384  11.678  19.341  0.00  0.00    +0.000 HD
ENDBRANCH   8  22
TORSDOF 3
ENDMDL
MODEL 6
REMARK VINA RESULT:      -7.5      4.130      7.036
REMARK  Name = 
REMARK  3 active torsions:
REMARK  status: ('A' for Active; 'I' for Inactive)
REMARK    1  A    between atoms: C_4  and  C_5
REMARK    2  A    between atoms: C_14  and  O_15
REMARK    3  A    between atoms: C_16  and  O_17
REMARK                            x       y       z     vdW  Elec       q    Type
REMARK                         _______ _______ _______ _____ _____    ______ ____
ROOT
ATOM      1  O   UNL     1       3.699   7.874  17.795  0.00  0.00    +0.000 OA
ATOM      2  C   UNL     1       4.024   6.718  17.555  0.00  0.00    +0.000 A 
ATOM      3  C   UNL     1       4.743   6.387  16.302  0.00  0.00    +0.000 A 
ATOM      4  C   UNL     1       5.129   5.119  16.105  0.00  0.00    +0.000 A 
ATOM      5  N   UNL     1       4.942   4.098  17.015  0.00  0.00    +0.000 N 
ATOM      6  C   UNL     1       4.151   4.311  18.163  0.00  0.00    +0.000 A 
ATOM      7  C   UNL     1       3.884   3.288  19.077  0.00  0.00    +0.000 A 
ATOM      8  C   UNL     1       3.099   3.526  20.206  0.00  0.00    +0.000 A 
ATOM      9  C   UNL     1       2.606   4.795  20.481  0.00  0.00    +0.000 A 
ATOM     10  C   UNL     1       2.919   5.847  19.621  0.00  0.00    +0.000 A 
ATOM     11  C   UNL     1       3.695   5.603  18.476  0.00  0.00    +0.000 A 
ATOM     12  H   UNL     1       4.910   3.168  16.608  0.00  0.00    +0.000 HD
ENDROOT
BRANCH   4  13
ATOM     13  C   UNL     1       5.772   4.761  14.832  0.00  0.00    +0.000 A 
ATOM     14  C   UNL     1       7.034   5.276  14.503  0.00  0.00    +0.000 A 
ATOM     15  C   UNL     1       7.658   4.893  13.315  0.00  0.00    +0.000 A 
ATOM     16  C   UNL     1       7.019   4.002  12.458  0.00  0.00    +0.000 A 
ATOM     17  F   UNL     1       7.629   3.621  11.329  0.00  0.00    +0.000 F 
ATOM     18  C   UNL     1       5.759   3.498  12.759  0.00  0.00    +0.000 A 
ATOM     19  C   UNL     1       5.132   3.879  13.947  0.00  0.00    +0.000 A 
ENDBRANCH   4  13
BRANCH   7  20
ATOM     20  O   UNL     1       4.397   2.027  18.920  0.00  0.00    +0.000 OA
ATOM     21  H   UNL     1       3.686   1.409  19.169  0.00  0.00    +0.000 HD
ENDBRANCH   7  20
BRANCH   8  22
ATOM     22  O   UNL     1       2.823   2.510  21.076  0.00  0.00    +0.000 OA
ATOM     23  H   UNL     1       2.577   2.952  21.914  0.00  0.00    +0.000 HD
ENDBRANCH   8  22
TORSDOF 3
ENDMDL
MODEL 7
REMARK VINA RESULT:      -7.4      4.485      7.118
REMARK  Name = 
REMARK  3 active torsions:
REMARK  status: ('A' for Active; 'I' for Inactive)
REMARK    1  A    between atoms: C_4  and  C_5
REMARK    2  A    between atoms: C_14  and  O_15
REMARK    3  A    between atoms: C_16  and  O_17
REMARK                            x       y       z     vdW  Elec       q    Type
REMARK                         _______ _______ _______ _____ _____    ______ ____
ROOT
ATOM      1  O   UNL     1       6.492   5.261  19.816  0.00  0.00    +0.000 OA
ATOM      2  C   UNL     1       5.779   4.882  18.895  0.00  0.00    +0.000 A 
ATOM      3  C   UNL     1       6.311   4.822  17.513  0.00  0.00    +0.000 A 
ATOM      4  C   UNL     1       5.514   4.350  16.544  0.00  0.00    +0.000 A 
ATOM      5  N   UNL     1       4.236   3.869  16.752  0.00  0.00    +0.000 N 
ATOM      6  C   UNL     1       3.622   4.019  18.012  0.00  0.00    +0.000 A 
ATOM      7  C   UNL     1       2.309   3.604  18.249  0.00  0.00    +0.000 A 
ATOM      8  C   UNL     1       1.724   3.763  19.506  0.00  0.00    +0.000 A 
ATOM      9  C   UNL     1       2.445   4.289  20.570  0.00  0.00    +0.000 A 
ATOM     10  C   UNL     1       3.780   4.644  20.377  0.00  0.00    +0.000 A 
ATOM     11  C   UNL     1       4.362   4.499  19.107  0.00  0.00    +0.000 A 
ATOM     12  H   UNL     1       3.627   3.919  15.942  0.00  0.00    +0.000 HD
ENDROOT
BRANCH   4  13
ATOM     13  C   UNL     1       5.999   4.359  15.157  0.00  0.00    +0.000 A 
ATOM     14  C   UNL     1       7.160   5.067  14.814  0.00  0.00    +0.000 A 
ATOM     15  C   UNL     1       7.641   5.031  13.504  0.00  0.00    +0.000 A 
ATOM     16  C   UNL     1       6.960   4.293  12.542  0.00  0.00    +0.000 A 
ATOM     17  F   UNL     1       7.434   4.243  11.291  0.00  0.00    +0.000 F 
ATOM     18  C   UNL     1       5.796   3.601  12.860  0.00  0.00    +0.000 A 
ATOM     19  C   UNL     1       5.313   3.635  14.169  0.00  0.00    +0.000 A 
ENDBRANCH   4  13
BRANCH   7  20
ATOM     20  O   UNL     1       1.554   3.005  17.274  0.00  0.00    +0.000 OA
ATOM     21  H   UNL     1       2.034   2.200  17.010  0.00  0.00    +0.000 HD
ENDBRANCH   7  20
BRANCH   8  22
ATOM     22  O   UNL     1       0.430   3.379  19.715  0.00  0.00    +0.000 OA
ATOM     23  H   UNL     1       0.071   4.030  20.350  0.00  0.00    +0.000 HD
ENDBRANCH   8  22
TORSDOF 3
ENDMDL
MODEL 8
REMARK VINA RESULT:      -7.4      4.449      7.118
REMARK  Name = 
REMARK  3 active torsions:
REMARK  status: ('A' for Active; 'I' for Inactive)
REMARK    1  A    between atoms: C_4  and  C_5
REMARK    2  A    between atoms: C_14  and  O_15
REMARK    3  A    between atoms: C_16  and  O_17
REMARK                            x       y       z     vdW  Elec       q    Type
REMARK                         _______ _______ _______ _____ _____    ______ ____
ROOT
ATOM      1  O   UNL     1       6.534   5.283  19.791  0.00  0.00    +0.000 OA
ATOM      2  C   UNL     1       5.826   4.901  18.868  0.00  0.00    +0.000 A 
ATOM      3  C   UNL     1       6.372   4.814  17.493  0.00  0.00    +0.000 A 
ATOM      4  C   UNL     1       5.579   4.339  16.522  0.00  0.00    +0.000 A 
ATOM      5  N   UNL     1       4.293   3.878  16.722  0.00  0.00    +0.000 N 
ATOM      6  C   UNL     1       3.667   4.053  17.974  0.00  0.00    +0.000 A 
ATOM      7  C   UNL     1       2.347   3.659  18.201  0.00  0.00    +0.000 A 
ATOM      8  C   UNL     1       1.750   3.843  19.450  0.00  0.00    +0.000 A 
ATOM      9  C   UNL     1       2.467   4.374  20.514  0.00  0.00    +0.000 A 
ATOM     10  C   UNL     1       3.809   4.710  20.330  0.00  0.00    +0.000 A 
ATOM     11  C   UNL     1       4.402   4.539  19.070  0.00  0.00    +0.000 A 
ATOM     12  H   UNL     1       3.693   3.924  15.905  0.00  0.00    +0.000 HD
ENDROOT
BRANCH   4  13
ATOM     13  C   UNL     1       6.080   4.322  15.139  0.00  0.00    +0.000 A 
ATOM     14  C   UNL     1       5.417   3.579  14.152  0.00  0.00    +0.000 A 
ATOM     15  C   UNL     1       5.871   3.608  12.832  0.00  0.00    +0.000 A 
ATOM     16  C   UNL     1       6.985   4.373  12.504  0.00  0.00    +0.000 A 
ATOM     17  F   UNL     1       7.406   4.415  11.235  0.00  0.00    +0.000 F 
ATOM     18  C   UNL     1       7.666   5.099  13.475  0.00  0.00    +0.000 A 
ATOM     19  C   UNL     1       7.215   5.073  14.796  0.00  0.00    +0.000 A 
ENDBRANCH   4  13
BRANCH   7  20
ATOM     20  O   UNL     1       1.594   3.056  17.227  0.00  0.00    +0.000 OA
ATOM     21  H   UNL     1       0.662   3.209  17.466  0.00  0.00    +0.000 HD
ENDBRANCH   7  20
BRANCH   8  22
ATOM     22  O   UNL     1       0.449   3.478  19.650  0.00  0.00    +0.000 OA
ATOM     23  H   UNL     1       0.355   3.393  20.620  0.00  0.00    +0.000 HD
ENDBRANCH   8  22
TORSDOF 3
ENDMDL
MODEL 9
REMARK VINA RESULT:      -7.4      3.593      6.540
REMARK  Name = 
REMARK  3 active torsions:
REMARK  status: ('A' for Active; 'I' for Inactive)
REMARK    1  A    between atoms: C_4  and  C_5
REMARK    2  A    between atoms: C_14  and  O_15
REMARK    3  A    between atoms: C_16  and  O_17
REMARK                            x       y       z     vdW  Elec       q    Type
REMARK                         _______ _______ _______ _____ _____    ______ ____
ROOT
ATOM      1  O   UNL     1       2.015   5.262  21.177  0.00  0.00    +0.000 OA
ATOM      2  C   UNL     1       2.313   5.907  20.180  0.00  0.00    +0.000 A 
ATOM      3  C   UNL     1       3.161   5.304  19.125  0.00  0.00    +0.000 A 
ATOM      4  C   UNL     1       3.418   6.026  18.024  0.00  0.00    +0.000 A 
ATOM      5  N   UNL     1       2.906   7.285  17.782  0.00  0.00    +0.000 N 
ATOM      6  C   UNL     1       2.205   7.969  18.796  0.00  0.00    +0.000 A 
ATOM      7  C   UNL     1       1.725   9.269  18.615  0.00  0.00    +0.000 A 
ATOM      8  C   UNL     1       1.032   9.924  19.635  0.00  0.00    +0.000 A 
ATOM      9  C   UNL     1       0.754   9.285  20.836  0.00  0.00    +0.000 A 
ATOM     10  C   UNL     1       1.161   7.962  21.013  0.00  0.00    +0.000 A 
ATOM     11  C   UNL     1       1.872   7.310  19.993  0.00  0.00    +0.000 A 
ATOM     12  H   UNL     1       3.462   7.854  17.151  0.00  0.00    +0.000 HD
ENDROOT
BRANCH   4  13
ATOM     13  C   UNL     1       4.322   5.472  17.006  0.00  0.00    +0.000 A 
ATOM     14  C   UNL     1       4.985   6.320  16.106  0.00  0.00    +0.000 A 
ATOM     15  C   UNL     1       5.878   5.790  15.174  0.00  0.00    +0.000 A 
ATOM     16  C   UNL     1       6.104   4.418  15.140  0.00  0.00    +0.000 A 
ATOM     17  F   UNL     1       6.977   3.915  14.260  0.00  0.00    +0.000 F 
ATOM     18  C   UNL     1       5.440   3.561  16.012  0.00  0.00    +0.000 A 
ATOM     19  C   UNL     1       4.546   4.088  16.945  0.00  0.00    +0.000 A 
ENDBRANCH   4  13
BRANCH   7  20
ATOM     20  O   UNL     1       1.889   9.942  17.432  0.00  0.00    +0.000 OA
ATOM     21  H   UNL     1       1.182  10.612  17.397  0.00  0.00    +0.000 HD
ENDBRANCH   7  20
BRANCH   8  22
ATOM     22  O   UNL     1       0.593  11.204  19.454  0.00  0.00    +0.000 OA
ATOM     23  H   UNL     1       0.114  11.428  20.277  0.00  0.00    +0.000 HD
ENDBRANCH   8  22
TORSDOF 3
ENDMDL
