MODEL 1
REMARK VINA RESULT:      -7.8      0.000      0.000
REMARK  Name = 
REMARK  6 active torsions:
REMARK  status: ('A' for Active; 'I' for Inactive)
REMARK    1  A    between atoms: N_3  and  C_4
REMARK    2  A    between atoms: C_6  and  C_7
REMARK    3  A    between atoms: C_13  and  C_14
REMARK    4  A    between atoms: N_20  and  C_21
REMARK    5  A    between atoms: C_21  and  C_22
REMARK    6  A    between atoms: C_22  and  O_24
REMARK                            x       y       z     vdW  Elec       q    Type
REMARK                         _______ _______ _______ _____ _____    ______ ____
ROOT
ATOM      1  C   UNL     1       5.323   5.550  15.392  0.00  0.00    +0.000 A 
ATOM      2  C   UNL     1       4.805   4.936  14.236  0.00  0.00    +0.000 A 
ATOM      3  C   UNL     1       5.603   4.129  13.419  0.00  0.00    +0.000 A 
ATOM      4  C   UNL     1       6.959   4.013  13.726  0.00  0.00    +0.000 A 
ATOM      5  C   UNL     1       7.478   4.621  14.875  0.00  0.00    +0.000 A 
ATOM      6  C   UNL     1       6.669   5.352  15.776  0.00  0.00    +0.000 A 
ENDROOT
BRANCH   1   9
ATOM      7  O   UNL     1       3.066   6.646  17.955  0.00  0.00    +0.000 OA
ATOM      8  C   UNL     1       3.747   5.857  17.309  0.00  0.00    +0.000 C 
ATOM      9  N   UNL     1       4.428   6.284  16.195  0.00  0.00    +0.000 N 
ATOM     10  N   UNL     1       3.812   4.525  17.574  0.00  0.00    +0.000 N 
ATOM     11  H   UNL     1       4.073   7.160  15.830  0.00  0.00    +0.000 HD
ATOM     12  H   UNL     1       4.174   3.937  16.829  0.00  0.00    +0.000 HD
BRANCH  10  13
ATOM     13  C   UNL     1       3.149   3.787  18.663  0.00  0.00    +0.000 C 
ATOM     14  C   UNL     1       3.168   4.558  19.981  0.00  0.00    +0.000 C 
ATOM     15  C   UNL     1       1.952   4.084  20.768  0.00  0.00    +0.000 C 
ATOM     16  C   UNL     1       0.985   3.467  19.760  0.00  0.00    +0.000 C 
ATOM     17  C   UNL     1       1.665   3.510  18.391  0.00  0.00    +0.000 C 
BRANCH  13  18
ATOM     18  C   UNL     1       3.964   2.464  18.737  0.00  0.00    +0.000 C 
ATOM     19  O   UNL     1       3.598   1.428  18.182  0.00  0.00    +0.000 OA
BRANCH  18  20
ATOM     20  O   UNL     1       5.098   2.474  19.463  0.00  0.00    +0.000 OA
ATOM     21  H   UNL     1       5.279   3.279  19.979  0.00  0.00    +0.000 HD
ENDBRANCH  18  20
ENDBRANCH  13  18
ENDBRANCH  10  13
ENDBRANCH   1   9
BRANCH   6  22
ATOM     22  C   UNL     1       7.277   5.864  17.039  0.00  0.00    +0.000 A 
ATOM     23  C   UNL     1       7.661   7.205  17.216  0.00  0.00    +0.000 A 
ATOM     24  C   UNL     1       8.160   7.672  18.438  0.00  0.00    +0.000 A 
ATOM     25  C   UNL     1       8.341   6.794  19.501  0.00  0.00    +0.000 A 
ATOM     26  C   UNL     1       8.022   5.452  19.343  0.00  0.00    +0.000 A 
ATOM     27  C   UNL     1       7.485   4.999  18.134  0.00  0.00    +0.000 A 
ENDBRANCH   6  22
BRANCH   3  28
ATOM     28  C   UNL     1       5.012   3.359  12.264  0.00  0.00    +0.000 C 
ATOM     29  F   UNL     1       5.611   2.154  12.046  0.00  0.00    +0.000 F 
ATOM     30  F   UNL     1       3.686   3.100  12.421  0.00  0.00    +0.000 F 
ATOM     31  F   UNL     1       5.121   4.041  11.088  0.00  0.00    +0.000 F 
ENDBRANCH   3  28
TORSDOF 6
ENDMDL
MODEL 2
REMARK VINA RESULT:      -7.8      0.089      1.161
REMARK  Name = 
REMARK  6 active torsions:
REMARK  status: ('A' for Active; 'I' for Inactive)
REMARK    1  A    between atoms: N_3  and  C_4
REMARK    2  A    between atoms: C_6  and  C_7
REMARK    3  A    between atoms: C_13  and  C_14
REMARK    4  A    between atoms: N_20  and  C_21
REMARK    5  A    between atoms: C_21  and  C_22
REMARK    6  A    between atoms: C_22  and  O_24
REMARK                            x       y       z     vdW  Elec       q    Type
REMARK                         _______ _______ _______ _____ _____    ______ ____
ROOT
ATOM      1  C   UNL     1       5.293   5.580  15.419  0.00  0.00    +0.000 A 
ATOM      2  C   UNL     1       4.803   4.963  14.253  0.00  0.00    +0.000 A 
ATOM      3  C   UNL     1       5.624   4.167  13.449  0.00  0.00    +0.000 A 
ATOM      4  C   UNL     1       6.977   4.066  13.780  0.00  0.00    +0.000 A 
ATOM      5  C   UNL     1       7.467   4.677  14.939  0.00  0.00    +0.000 A 
ATOM      6  C   UNL     1       6.634   5.397  15.827  0.00  0.00    +0.000 A 
ENDROOT
BRANCH   1   9
ATOM      7  O   UNL     1       2.996   6.653  17.956  0.00  0.00    +0.000 OA
ATOM      8  C   UNL     1       3.701   5.874  17.325  0.00  0.00    +0.000 C 
ATOM      9  N   UNL     1       4.376   6.303  16.208  0.00  0.00    +0.000 N 
ATOM     10  N   UNL     1       3.798   4.547  17.608  0.00  0.00    +0.000 N 
ATOM     11  H   UNL     1       4.000   7.164  15.829  0.00  0.00    +0.000 HD
ATOM     12  H   UNL     1       4.178   3.958  16.873  0.00  0.00    +0.000 HD
BRANCH  10  13
ATOM     13  C   UNL     1       3.148   3.807  18.703  0.00  0.00    +0.000 C 
ATOM     14  C   UNL     1       3.193   4.571  20.025  0.00  0.00    +0.000 C 
ATOM     15  C   UNL     1       1.986   4.100  20.829  0.00  0.00    +0.000 C 
ATOM     16  C   UNL     1       1.000   3.494  19.833  0.00  0.00    +0.000 C 
ATOM     17  C   UNL     1       1.658   3.540  18.454  0.00  0.00    +0.000 C 
BRANCH  13  18
ATOM     18  C   UNL     1       3.957   2.480  18.758  0.00  0.00    +0.000 C 
ATOM     19  O   UNL     1       3.610   1.467  18.149  0.00  0.00    +0.000 OA
BRANCH  18  20
ATOM     20  O   UNL     1       5.061   2.457  19.528  0.00  0.00    +0.000 OA
ATOM     21  H   UNL     1       5.913   2.573  19.073  0.00  0.00    +0.000 HD
ENDBRANCH  18  20
ENDBRANCH  13  18
ENDBRANCH  10  13
ENDBRANCH   1   9
BRANCH   6  22
ATOM     22  C   UNL     1       7.214   5.913  17.101  0.00  0.00    +0.000 A 
ATOM     23  C   UNL     1       7.397   5.111  18.241  0.00  0.00    +0.000 A 
ATOM     24  C   UNL     1       8.013   5.606  19.397  0.00  0.00    +0.000 A 
ATOM     25  C   UNL     1       8.410   6.937  19.464  0.00  0.00    +0.000 A 
ATOM     26  C   UNL     1       8.195   7.771  18.374  0.00  0.00    +0.000 A 
ATOM     27  C   UNL     1       7.618   7.261  17.207  0.00  0.00    +0.000 A 
ENDBRANCH   6  22
BRANCH   3  28
ATOM     28  C   UNL     1       5.063   3.392  12.282  0.00  0.00    +0.000 C 
ATOM     29  F   UNL     1       3.728   3.139  12.384  0.00  0.00    +0.000 F 
ATOM     30  F   UNL     1       5.238   4.025  11.091  0.00  0.00    +0.000 F 
ATOM     31  F   UNL     1       5.659   2.173  12.146  0.00  0.00    +0.000 F 
ENDBRANCH   3  28
TORSDOF 6
ENDMDL
MODEL 3
REMARK VINA RESULT:      -7.7      1.562      2.554
REMARK  Name = 
REMARK  6 active torsions:
REMARK  status: ('A' for Active; 'I' for Inactive)
REMARK    1  A    between atoms: N_3  and  C_4
REMARK    2  A    between atoms: C_6  and  C_7
REMARK    3  A    between atoms: C_13  and  C_14
REMARK    4  A    between atoms: N_20  and  C_21
REMARK    5  A    between atoms: C_21  and  C_22
REMARK    6  A    between atoms: C_22  and  O_24
REMARK                            x       y       z     vdW  Elec       q    Type
REMARK                         _______ _______ _______ _____ _____    ______ ____
ROOT
ATOM      1  C   UNL     1       5.894   3.827  15.658  0.00  0.00    +0.000 A 
ATOM      2  C   UNL     1       5.560   3.232  14.427  0.00  0.00    +0.000 A 
ATOM      3  C   UNL     1       6.057   3.730  13.218  0.00  0.00    +0.000 A 
ATOM      4  C   UNL     1       6.829   4.892  13.248  0.00  0.00    +0.000 A 
ATOM      5  C   UNL     1       7.164   5.486  14.471  0.00  0.00    +0.000 A 
ATOM      6  C   UNL     1       6.764   4.940  15.713  0.00  0.00    +0.000 A 
ENDROOT
BRANCH   1   9
ATOM      7  O   UNL     1       4.015   2.940  18.581  0.00  0.00    +0.000 OA
ATOM      8  C   UNL     1       4.378   3.633  17.637  0.00  0.00    +0.000 C 
ATOM      9  N   UNL     1       5.407   3.213  16.830  0.00  0.00    +0.000 N 
ATOM     10  N   UNL     1       3.879   4.870  17.374  0.00  0.00    +0.000 N 
ATOM     11  H   UNL     1       5.978   2.495  17.261  0.00  0.00    +0.000 HD
ATOM     12  H   UNL     1       4.432   5.454  16.754  0.00  0.00    +0.000 HD
BRANCH  10  13
ATOM     13  C   UNL     1       2.818   5.589  18.100  0.00  0.00    +0.000 C 
ATOM     14  C   UNL     1       3.218   5.916  19.537  0.00  0.00    +0.000 C 
ATOM     15  C   UNL     1       2.429   7.162  19.924  0.00  0.00    +0.000 C 
ATOM     16  C   UNL     1       1.996   7.833  18.624  0.00  0.00    +0.000 C 
ATOM     17  C   UNL     1       2.465   6.943  17.473  0.00  0.00    +0.000 C 
BRANCH  13  18
ATOM     18  C   UNL     1       1.616   4.604  18.028  0.00  0.00    +0.000 C 
ATOM     19  O   UNL     1       0.988   4.400  16.989  0.00  0.00    +0.000 OA
BRANCH  18  20
ATOM     20  O   UNL     1       1.254   3.983  19.167  0.00  0.00    +0.000 OA
ATOM     21  H   UNL     1       0.720   3.175  19.072  0.00  0.00    +0.000 HD
ENDBRANCH  18  20
ENDBRANCH  13  18
ENDBRANCH  10  13
ENDBRANCH   1   9
BRANCH   6  22
ATOM     22  C   UNL     1       7.265   5.566  16.971  0.00  0.00    +0.000 A 
ATOM     23  C   UNL     1       7.647   4.819  18.100  0.00  0.00    +0.000 A 
ATOM     24  C   UNL     1       8.185   5.432  19.239  0.00  0.00    +0.000 A 
ATOM     25  C   UNL     1       8.300   6.816  19.300  0.00  0.00    +0.000 A 
ATOM     26  C   UNL     1       7.882   7.587  18.224  0.00  0.00    +0.000 A 
ATOM     27  C   UNL     1       7.385   6.968  17.072  0.00  0.00    +0.000 A 
ENDBRANCH   6  22
BRANCH   3  28
ATOM     28  C   UNL     1       5.815   3.007  11.916  0.00  0.00    +0.000 C 
ATOM     29  F   UNL     1       4.814   3.549  11.167  0.00  0.00    +0.000 F 
ATOM     30  F   UNL     1       6.913   2.976  11.114  0.00  0.00    +0.000 F 
ATOM     31  F   UNL     1       5.462   1.705  12.114  0.00  0.00    +0.000 F 
ENDBRANCH   3  28
TORSDOF 6
ENDMDL
MODEL 4
REMARK VINA RESULT:      -7.6      1.561      2.271
REMARK  Name = 
REMARK  6 active torsions:
REMARK  status: ('A' for Active; 'I' for Inactive)
REMARK    1  A    between atoms: N_3  and  C_4
REMARK    2  A    between atoms: C_6  and  C_7
REMARK    3  A    between atoms: C_13  and  C_14
REMARK    4  A    between atoms: N_20  and  C_21
REMARK    5  A    between atoms: C_21  and  C_22
REMARK    6  A    between atoms: C_22  and  O_24
REMARK                            x       y       z     vdW  Elec       q    Type
REMARK                         _______ _______ _______ _____ _____    ______ ____
ROOT
ATOM      1  C   UNL     1       5.902   3.830  15.649  0.00  0.00    +0.000 A 
ATOM      2  C   UNL     1       5.540   3.240  14.424  0.00  0.00    +0.000 A 
ATOM      3  C   UNL     1       6.024   3.731  13.207  0.00  0.00    +0.000 A 
ATOM      4  C   UNL     1       6.810   4.884  13.224  0.00  0.00    +0.000 A 
ATOM      5  C   UNL     1       7.172   5.473  14.441  0.00  0.00    +0.000 A 
ATOM      6  C   UNL     1       6.786   4.933  15.690  0.00  0.00    +0.000 A 
ENDROOT
BRANCH   1   9
ATOM      7  O   UNL     1       4.046   2.955  18.591  0.00  0.00    +0.000 OA
ATOM      8  C   UNL     1       4.399   3.642  17.640  0.00  0.00    +0.000 C 
ATOM      9  N   UNL     1       5.426   3.223  16.829  0.00  0.00    +0.000 N 
ATOM     10  N   UNL     1       3.890   4.875  17.370  0.00  0.00    +0.000 N 
ATOM     11  H   UNL     1       6.004   2.513  17.262  0.00  0.00    +0.000 HD
ATOM     12  H   UNL     1       4.436   5.457  16.741  0.00  0.00    +0.000 HD
BRANCH  10  13
ATOM     13  C   UNL     1       2.829   5.592  18.096  0.00  0.00    +0.000 C 
ATOM     14  C   UNL     1       3.233   5.925  19.532  0.00  0.00    +0.000 C 
ATOM     15  C   UNL     1       2.441   7.169  19.917  0.00  0.00    +0.000 C 
ATOM     16  C   UNL     1       2.001   7.835  18.616  0.00  0.00    +0.000 C 
ATOM     17  C   UNL     1       2.470   6.943  17.466  0.00  0.00    +0.000 C 
BRANCH  13  18
ATOM     18  C   UNL     1       1.630   4.603  18.031  0.00  0.00    +0.000 C 
ATOM     19  O   UNL     1       0.994   4.400  16.996  0.00  0.00    +0.000 OA
BRANCH  18  20
ATOM     20  O   UNL     1       1.279   3.978  19.170  0.00  0.00    +0.000 OA
ATOM     21  H   UNL     1       1.992   3.800  19.808  0.00  0.00    +0.000 HD
ENDBRANCH  18  20
ENDBRANCH  13  18
ENDBRANCH  10  13
ENDBRANCH   1   9
BRANCH   6  22
ATOM     22  C   UNL     1       7.315   5.553  16.939  0.00  0.00    +0.000 A 
ATOM     23  C   UNL     1       7.459   6.942  17.105  0.00  0.00    +0.000 A 
ATOM     24  C   UNL     1       7.888   7.497  18.317  0.00  0.00    +0.000 A 
ATOM     25  C   UNL     1       8.241   6.672  19.378  0.00  0.00    +0.000 A 
ATOM     26  C   UNL     1       8.162   5.294  19.230  0.00  0.00    +0.000 A 
ATOM     27  C   UNL     1       7.693   4.745  18.033  0.00  0.00    +0.000 A 
ENDBRANCH   6  22
BRANCH   3  28
ATOM     28  C   UNL     1       5.751   3.011  11.909  0.00  0.00    +0.000 C 
ATOM     29  F   UNL     1       5.471   1.687  12.066  0.00  0.00    +0.000 F 
ATOM     30  F   UNL     1       4.707   3.540  11.218  0.00  0.00    +0.000 F 
ATOM     31  F   UNL     1       6.820   3.063  11.064  0.00  0.00    +0.000 F 
ENDBRANCH   3  28
TORSDOF 6
ENDMDL
MODEL 5
REMARK VINA RESULT:      -7.6      0.371      1.343
REMARK  Name = 
REMARK  6 active torsions:
REMARK  status: ('A' for Active; 'I' for Inactive)
REMARK    1  A    between atoms: N_3  and  C_4
REMARK    2  A    between atoms: C_6  and  C_7
REMARK    3  A    between atoms: C_13  and  C_14
REMARK    4  A    between atoms: N_20  and  C_21
REMARK    5  A    between atoms: C_21  and  C_22
REMARK    6  A    between atoms: C_22  and  O_24
REMARK                            x       y       z     vdW  Elec       q    Type
REMARK                         _______ _______ _______ _____ _____    ______ ____
ROOT
ATOM      1  C   UNL     1       5.287   5.507  15.468  0.00  0.00    +0.000 A 
ATOM      2  C   UNL     1       4.802   4.893  14.298  0.00  0.00    +0.000 A 
ATOM      3  C   UNL     1       5.641   4.146  13.465  0.00  0.00    +0.000 A 
ATOM      4  C   UNL     1       7.001   4.093  13.772  0.00  0.00    +0.000 A 
ATOM      5  C   UNL     1       7.487   4.701  14.935  0.00  0.00    +0.000 A 
ATOM      6  C   UNL     1       6.641   5.370  15.850  0.00  0.00    +0.000 A 
ENDROOT
BRANCH   1   9
ATOM      7  O   UNL     1       2.936   6.410  18.022  0.00  0.00    +0.000 OA
ATOM      8  C   UNL     1       3.652   5.673  17.352  0.00  0.00    +0.000 C 
ATOM      9  N   UNL     1       4.355   6.177  16.285  0.00  0.00    +0.000 N 
ATOM     10  N   UNL     1       3.735   4.329  17.541  0.00  0.00    +0.000 N 
ATOM     11  H   UNL     1       3.994   7.067  15.961  0.00  0.00    +0.000 HD
ATOM     12  H   UNL     1       4.129   3.792  16.774  0.00  0.00    +0.000 HD
BRANCH  10  13
ATOM     13  C   UNL     1       3.055   3.517  18.564  0.00  0.00    +0.000 C 
ATOM     14  C   UNL     1       2.530   4.364  19.722  0.00  0.00    +0.000 C 
ATOM     15  C   UNL     1       1.338   3.606  20.296  0.00  0.00    +0.000 C 
ATOM     16  C   UNL     1       0.865   2.639  19.213  0.00  0.00    +0.000 C 
ATOM     17  C   UNL     1       1.824   2.775  18.030  0.00  0.00    +0.000 C 
BRANCH  13  18
ATOM     18  C   UNL     1       4.162   2.520  19.013  0.00  0.00    +0.000 C 
ATOM     19  O   UNL     1       5.072   2.842  19.777  0.00  0.00    +0.000 OA
BRANCH  18  20
ATOM     20  O   UNL     1       4.114   1.272  18.512  0.00  0.00    +0.000 OA
ATOM     21  H   UNL     1       4.104   0.543  19.156  0.00  0.00    +0.000 HD
ENDBRANCH  18  20
ENDBRANCH  13  18
ENDBRANCH  10  13
ENDBRANCH   1   9
BRANCH   6  22
ATOM     22  C   UNL     1       7.222   5.886  17.124  0.00  0.00    +0.000 A 
ATOM     23  C   UNL     1       7.413   5.081  18.261  0.00  0.00    +0.000 A 
ATOM     24  C   UNL     1       8.029   5.576  19.417  0.00  0.00    +0.000 A 
ATOM     25  C   UNL     1       8.419   6.908  19.487  0.00  0.00    +0.000 A 
ATOM     26  C   UNL     1       8.196   7.745  18.401  0.00  0.00    +0.000 A 
ATOM     27  C   UNL     1       7.618   7.236  17.234  0.00  0.00    +0.000 A 
ENDBRANCH   6  22
BRANCH   3  28
ATOM     28  C   UNL     1       5.091   3.371  12.293  0.00  0.00    +0.000 C 
ATOM     29  F   UNL     1       5.238   4.009  11.098  0.00  0.00    +0.000 F 
ATOM     30  F   UNL     1       5.672   2.150  12.144  0.00  0.00    +0.000 F 
ATOM     31  F   UNL     1       3.754   3.134  12.421  0.00  0.00    +0.000 F 
ENDBRANCH   3  28
TORSDOF 6
ENDMDL
MODEL 6
REMARK VINA RESULT:      -7.3      0.540      1.225
REMARK  Name = 
REMARK  6 active torsions:
REMARK  status: ('A' for Active; 'I' for Inactive)
REMARK    1  A    between atoms: N_3  and  C_4
REMARK    2  A    between atoms: C_6  and  C_7
REMARK    3  A    between atoms: C_13  and  C_14
REMARK    4  A    between atoms: N_20  and  C_21
REMARK    5  A    between atoms: C_21  and  C_22
REMARK    6  A    between atoms: C_22  and  O_24
REMARK                            x       y       z     vdW  Elec       q    Type
REMARK                         _______ _______ _______ _____ _____    ______ ____
ROOT
ATOM      1  C   UNL     1       5.243   5.507  15.497  0.00  0.00    +0.000 A 
ATOM      2  C   UNL     1       4.738   4.902  14.330  0.00  0.00    +0.000 A 
ATOM      3  C   UNL     1       5.553   4.124  13.502  0.00  0.00    +0.000 A 
ATOM      4  C   UNL     1       6.911   4.031  13.809  0.00  0.00    +0.000 A 
ATOM      5  C   UNL     1       7.416   4.630  14.968  0.00  0.00    +0.000 A 
ATOM      6  C   UNL     1       6.592   5.330  15.880  0.00  0.00    +0.000 A 
ENDROOT
BRANCH   1   9
ATOM      7  O   UNL     1       2.921   6.498  18.045  0.00  0.00    +0.000 OA
ATOM      8  C   UNL     1       3.613   5.735  17.380  0.00  0.00    +0.000 C 
ATOM      9  N   UNL     1       4.332   6.211  16.310  0.00  0.00    +0.000 N 
ATOM     10  N   UNL     1       3.654   4.389  17.576  0.00  0.00    +0.000 N 
ATOM     11  H   UNL     1       3.999   7.109  15.981  0.00  0.00    +0.000 HD
ATOM     12  H   UNL     1       4.032   3.837  16.812  0.00  0.00    +0.000 HD
BRANCH  10  13
ATOM     13  C   UNL     1       2.950   3.605  18.604  0.00  0.00    +0.000 C 
ATOM     14  C   UNL     1       3.592   3.746  19.983  0.00  0.00    +0.000 C 
ATOM     15  C   UNL     1       2.478   3.508  20.996  0.00  0.00    +0.000 C 
ATOM     16  C   UNL     1       1.157   3.738  20.265  0.00  0.00    +0.000 C 
ATOM     17  C   UNL     1       1.492   4.037  18.803  0.00  0.00    +0.000 C 
BRANCH  13  18
ATOM     18  C   UNL     1       3.036   2.152  18.055  0.00  0.00    +0.000 C 
ATOM     19  O   UNL     1       3.864   1.337  18.464  0.00  0.00    +0.000 OA
BRANCH  18  20
ATOM     20  O   UNL     1       2.177   1.805  17.078  0.00  0.00    +0.000 OA
ATOM     21  H   UNL     1       2.073   2.435  16.344  0.00  0.00    +0.000 HD
ENDBRANCH  18  20
ENDBRANCH  13  18
ENDBRANCH  10  13
ENDBRANCH   1   9
BRANCH   6  22
ATOM     22  C   UNL     1       7.188   5.835  17.151  0.00  0.00    +0.000 A 
ATOM     23  C   UNL     1       7.384   5.022  18.282  0.00  0.00    +0.000 A 
ATOM     24  C   UNL     1       8.015   5.506  19.435  0.00  0.00    +0.000 A 
ATOM     25  C   UNL     1       8.415   6.835  19.508  0.00  0.00    +0.000 A 
ATOM     26  C   UNL     1       8.188   7.679  18.429  0.00  0.00    +0.000 A 
ATOM     27  C   UNL     1       7.596   7.181  17.264  0.00  0.00    +0.000 A 
ENDBRANCH   6  22
BRANCH   3  28
ATOM     28  C   UNL     1       4.979   3.361  12.334  0.00  0.00    +0.000 C 
ATOM     29  F   UNL     1       5.629   2.192  12.072  0.00  0.00    +0.000 F 
ATOM     30  F   UNL     1       3.670   3.036  12.504  0.00  0.00    +0.000 F 
ATOM     31  F   UNL     1       5.037   4.080  11.177  0.00  0.00    +0.000 F 
ENDBRANCH   3  28
TORSDOF 6
ENDMDL
MODEL 7
REMARK VINA RESULT:      -7.2      0.812      1.402
REMARK  Name = 
REMARK  6 active torsions:
REMARK  status: ('A' for Active; 'I' for Inactive)
REMARK    1  A    between atoms: N_3  and  C_4
REMARK    2  A    between atoms: C_6  and  C_7
REMARK    3  A    between atoms: C_13  and  C_14
REMARK    4  A    between atoms: N_20  and  C_21
REMARK    5  A    between atoms: C_21  and  C_22
REMARK    6  A    between atoms: C_22  and  O_24
REMARK                            x       y       z     vdW  Elec       q    Type
REMARK                         _______ _______ _______ _____ _____    ______ ____
ROOT
ATOM      1  C   UNL     1       5.344   5.525  15.327  0.00  0.00    +0.000 A 
ATOM      2  C   UNL     1       4.833   4.916  14.165  0.00  0.00    +0.000 A 
ATOM      3  C   UNL     1       5.646   4.146  13.328  0.00  0.00    +0.000 A 
ATOM      4  C   UNL     1       7.008   4.063  13.622  0.00  0.00    +0.000 A 
ATOM      5  C   UNL     1       7.519   4.667  14.776  0.00  0.00    +0.000 A 
ATOM      6  C   UNL     1       6.698   5.359  15.696  0.00  0.00    +0.000 A 
ENDROOT
BRANCH   1   9
ATOM      7  O   UNL     1       3.023   6.487  17.886  0.00  0.00    +0.000 OA
ATOM      8  C   UNL     1       3.711   5.731  17.210  0.00  0.00    +0.000 C 
ATOM      9  N   UNL     1       4.435   6.220  16.150  0.00  0.00    +0.000 N 
ATOM     10  N   UNL     1       3.745   4.383  17.385  0.00  0.00    +0.000 N 
ATOM     11  H   UNL     1       4.107   7.126  15.834  0.00  0.00    +0.000 HD
ATOM     12  H   UNL     1       4.121   3.840  16.613  0.00  0.00    +0.000 HD
BRANCH  10  13
ATOM     13  C   UNL     1       3.033   3.585  18.398  0.00  0.00    +0.000 C 
ATOM     14  C   UNL     1       1.573   4.007  18.547  0.00  0.00    +0.000 C 
ATOM     15  C   UNL     1       0.823   2.773  19.037  0.00  0.00    +0.000 C 
ATOM     16  C   UNL     1       1.687   1.563  18.690  0.00  0.00    +0.000 C 
ATOM     17  C   UNL     1       2.979   2.090  18.065  0.00  0.00    +0.000 C 
BRANCH  13  18
ATOM     18  C   UNL     1       3.860   3.845  19.691  0.00  0.00    +0.000 C 
ATOM     19  O   UNL     1       4.861   3.189  19.979  0.00  0.00    +0.000 OA
BRANCH  18  20
ATOM     20  O   UNL     1       3.427   4.813  20.520  0.00  0.00    +0.000 OA
ATOM     21  H   UNL     1       2.643   4.608  21.058  0.00  0.00    +0.000 HD
ENDBRANCH  18  20
ENDBRANCH  13  18
ENDBRANCH  10  13
ENDBRANCH   1   9
BRANCH   6  22
ATOM     22  C   UNL     1       7.303   5.868  16.962  0.00  0.00    +0.000 A 
ATOM     23  C   UNL     1       7.660   7.214  17.154  0.00  0.00    +0.000 A 
ATOM     24  C   UNL     1       8.156   7.676  18.380  0.00  0.00    +0.000 A 
ATOM     25  C   UNL     1       8.362   6.788  19.430  0.00  0.00    +0.000 A 
ATOM     26  C   UNL     1       8.070   5.442  19.256  0.00  0.00    +0.000 A 
ATOM     27  C   UNL     1       7.536   4.993  18.044  0.00  0.00    +0.000 A 
ENDBRANCH   6  22
BRANCH   3  28
ATOM     28  C   UNL     1       5.067   3.378  12.165  0.00  0.00    +0.000 C 
ATOM     29  F   UNL     1       3.733   3.128  12.285  0.00  0.00    +0.000 F 
ATOM     30  F   UNL     1       5.228   4.015  10.975  0.00  0.00    +0.000 F 
ATOM     31  F   UNL     1       5.658   2.157  12.016  0.00  0.00    +0.000 F 
ENDBRANCH   3  28
TORSDOF 6
ENDMDL
MODEL 8
REMARK VINA RESULT:      -7.2     10.606     13.160
REMARK  Name = 
REMARK  6 active torsions:
REMARK  status: ('A' for Active; 'I' for Inactive)
REMARK    1  A    between atoms: N_3  and  C_4
REMARK    2  A    between atoms: C_6  and  C_7
REMARK    3  A    between atoms: C_13  and  C_14
REMARK    4  A    between atoms: N_20  and  C_21
REMARK    5  A    between atoms: C_21  and  C_22
REMARK    6  A    between atoms: C_22  and  O_24
REMARK                            x       y       z     vdW  Elec       q    Type
REMARK                         _______ _______ _______ _____ _____    ______ ____
ROOT
ATOM      1  C   UNL     1      -4.395  12.656  19.827  0.00  0.00    +0.000 A 
ATOM      2  C   UNL     1      -5.128  13.009  20.976  0.00  0.00    +0.000 A 
ATOM      3  C   UNL     1      -6.325  12.365  21.302  0.00  0.00    +0.000 A 
ATOM      4  C   UNL     1      -6.831  11.417  20.412  0.00  0.00    +0.000 A 
ATOM      5  C   UNL     1      -6.105  11.063  19.269  0.00  0.00    +0.000 A 
ATOM      6  C   UNL     1      -4.839  11.620  18.973  0.00  0.00    +0.000 A 
ENDROOT
BRANCH   1   9
ATOM      7  O   UNL     1      -0.931  13.587  19.782  0.00  0.00    +0.000 OA
ATOM      8  C   UNL     1      -1.932  12.970  20.128  0.00  0.00    +0.000 C 
ATOM      9  N   UNL     1      -3.162  13.306  19.617  0.00  0.00    +0.000 N 
ATOM     10  N   UNL     1      -1.927  11.999  21.082  0.00  0.00    +0.000 N 
ATOM     11  H   UNL     1      -3.179  14.235  19.212  0.00  0.00    +0.000 HD
ATOM     12  H   UNL     1      -2.830  11.756  21.479  0.00  0.00    +0.000 HD
BRANCH  10  13
ATOM     13  C   UNL     1      -0.772  11.476  21.832  0.00  0.00    +0.000 C 
ATOM     14  C   UNL     1      -1.194  10.563  22.981  0.00  0.00    +0.000 C 
ATOM     15  C   UNL     1      -0.031   9.602  23.207  0.00  0.00    +0.000 C 
ATOM     16  C   UNL     1       0.800   9.604  21.927  0.00  0.00    +0.000 C 
ATOM     17  C   UNL     1       0.170  10.622  20.976  0.00  0.00    +0.000 C 
BRANCH  13  18
ATOM     18  C   UNL     1      -0.065  12.769  22.330  0.00  0.00    +0.000 C 
ATOM     19  O   UNL     1      -0.467  13.413  23.300  0.00  0.00    +0.000 OA
BRANCH  18  20
ATOM     20  O   UNL     1       1.012  13.192  21.641  0.00  0.00    +0.000 OA
ATOM     21  H   UNL     1       1.201  12.734  20.804  0.00  0.00    +0.000 HD
ENDBRANCH  18  20
ENDBRANCH  13  18
ENDBRANCH  10  13
ENDBRANCH   1   9
BRANCH   6  22
ATOM     22  C   UNL     1      -4.078  11.100  17.800  0.00  0.00    +0.000 A 
ATOM     23  C   UNL     1      -2.982  10.227  17.924  0.00  0.00    +0.000 A 
ATOM     24  C   UNL     1      -2.335   9.696  16.800  0.00  0.00    +0.000 A 
ATOM     25  C   UNL     1      -2.732  10.071  15.522  0.00  0.00    +0.000 A 
ATOM     26  C   UNL     1      -3.777  10.973  15.366  0.00  0.00    +0.000 A 
ATOM     27  C   UNL     1      -4.447  11.468  16.489  0.00  0.00    +0.000 A 
ENDBRANCH   6  22
BRANCH   3  28
ATOM     28  C   UNL     1      -7.033  12.644  22.606  0.00  0.00    +0.000 C 
ATOM     29  F   UNL     1      -7.903  11.663  22.977  0.00  0.00    +0.000 F 
ATOM     30  F   UNL     1      -6.178  12.806  23.650  0.00  0.00    +0.000 F 
ATOM     31  F   UNL     1      -7.773  13.788  22.549  0.00  0.00    +0.000 F 
ENDBRANCH   3  28
TORSDOF 6
ENDMDL
MODEL 9
REMARK VINA RESULT:      -7.1     10.483     13.022
REMARK  Name = 
REMARK  6 active torsions:
REMARK  status: ('A' for Active; 'I' for Inactive)
REMARK    1  A    between atoms: N_3  and  C_4
REMARK    2  A    between atoms: C_6  and  C_7
REMARK    3  A    between atoms: C_13  and  C_14
REMARK    4  A    between atoms: N_20  and  C_21
REMARK    5  A    between atoms: C_21  and  C_22
REMARK    6  A    between atoms: C_22  and  O_24
REMARK                            x       y       z     vdW  Elec       q    Type
REMARK                         _______ _______ _______ _____ _____    ______ ____
ROOT
ATOM      1  C   UNL     1      -4.365  12.556  19.721  0.00  0.00    +0.000 A 
ATOM      2  C   UNL     1      -5.078  12.907  20.883  0.00  0.00    +0.000 A 
ATOM      3  C   UNL     1      -6.282  12.279  21.217  0.00  0.00    +0.000 A 
ATOM      4  C   UNL     1      -6.813  11.348  20.323  0.00  0.00    +0.000 A 
ATOM      5  C   UNL     1      -6.107  10.995  19.168  0.00  0.00    +0.000 A 
ATOM      6  C   UNL     1      -4.836  11.536  18.862  0.00  0.00    +0.000 A 
ENDROOT
BRANCH   1   9
ATOM      7  O   UNL     1      -0.891  13.443  19.655  0.00  0.00    +0.000 OA
ATOM      8  C   UNL     1      -1.897  12.839  20.009  0.00  0.00    +0.000 C 
ATOM      9  N   UNL     1      -3.125  13.189  19.502  0.00  0.00    +0.000 N 
ATOM     10  N   UNL     1      -1.900  11.872  20.965  0.00  0.00    +0.000 N 
ATOM     11  H   UNL     1      -3.133  14.117  19.095  0.00  0.00    +0.000 HD
ATOM     12  H   UNL     1      -2.803  11.642  21.368  0.00  0.00    +0.000 HD
BRANCH  10  13
ATOM     13  C   UNL     1      -0.748  11.337  21.711  0.00  0.00    +0.000 C 
ATOM     14  C   UNL     1      -1.173  10.576  22.966  0.00  0.00    +0.000 C 
ATOM     15  C   UNL     1      -0.074   9.555  23.235  0.00  0.00    +0.000 C 
ATOM     16  C   UNL     1       0.687   9.366  21.925  0.00  0.00    +0.000 C 
ATOM     17  C   UNL     1       0.083  10.332  20.905  0.00  0.00    +0.000 C 
BRANCH  13  18
ATOM     18  C   UNL     1       0.078  12.613  22.042  0.00  0.00    +0.000 C 
ATOM     19  O   UNL     1      -0.283  13.435  22.886  0.00  0.00    +0.000 OA
BRANCH  18  20
ATOM     20  O   UNL     1       1.213  12.815  21.348  0.00  0.00    +0.000 OA
ATOM     21  H   UNL     1       1.914  13.321  21.795  0.00  0.00    +0.000 HD
ENDBRANCH  18  20
ENDBRANCH  13  18
ENDBRANCH  10  13
ENDBRANCH   1   9
BRANCH   6  22
ATOM     22  C   UNL     1      -4.098  11.017  17.674  0.00  0.00    +0.000 A 
ATOM     23  C   UNL     1      -4.450  11.338  16.351  0.00  0.00    +0.000 A 
ATOM     24  C   UNL     1      -3.692  10.895  15.260  0.00  0.00    +0.000 A 
ATOM     25  C   UNL     1      -2.592  10.069  15.462  0.00  0.00    +0.000 A 
ATOM     26  C   UNL     1      -2.248   9.689  16.752  0.00  0.00    +0.000 A 
ATOM     27  C   UNL     1      -2.983  10.168  17.841  0.00  0.00    +0.000 A 
ENDBRANCH   6  22
BRANCH   3  28
ATOM     28  C   UNL     1      -6.969  12.554  22.532  0.00  0.00    +0.000 C 
ATOM     29  F   UNL     1      -7.593  13.764  22.581  0.00  0.00    +0.000 F 
ATOM     30  F   UNL     1      -7.915  11.627  22.840  0.00  0.00    +0.000 F 
ATOM     31  F   UNL     1      -6.091  12.551  23.576  0.00  0.00    +0.000 F 
ENDBRANCH   3  28
TORSDOF 6
ENDMDL
