MODEL 1
REMARK VINA RESULT:      -8.1      0.000      0.000
REMARK  Name = 
REMARK  6 active torsions:
REMARK  status: ('A' for Active; 'I' for Inactive)
REMARK    1  A    between atoms: C_1  and  C_2
REMARK    2  A    between atoms: N_4  and  C_5
REMARK    3  A    between atoms: N_11  and  C_12
REMARK    4  A    between atoms: C_12  and  C_13
REMARK    5  A    between atoms: C_13  and  C_14
REMARK    6  A    between atoms: C_14  and  N_15
REMARK                            x       y       z     vdW  Elec       q    Type
REMARK                         _______ _______ _______ _____ _____    ______ ____
ROOT
ATOM      1  C   UNL     1       2.053   7.928  19.036  0.00  0.00    +0.000 A 
ATOM      2  C   UNL     1       2.097   8.642  17.848  0.00  0.00    +0.000 A 
ATOM      3  C   UNL     1       2.062  10.017  17.916  0.00  0.00    +0.000 A 
ATOM      4  C   UNL     1       1.497  10.633  19.032  0.00  0.00    +0.000 A 
ATOM      5  C   UNL     1       1.352  12.040  19.096  0.00  0.00    +0.000 A 
ATOM      6  C   UNL     1       0.371  12.658  19.792  0.00  0.00    +0.000 A 
ATOM      7  N   UNL     1      -0.432  11.910  20.670  0.00  0.00    +0.000 N 
ATOM      8  C   UNL     1      -0.068  10.524  20.943  0.00  0.00    +0.000 A 
ATOM      9  O   UNL     1      -0.653   9.803  21.748  0.00  0.00    +0.000 OA
ATOM     10  C   UNL     1       1.030   9.878  20.094  0.00  0.00    +0.000 A 
ATOM     11  C   UNL     1       1.498   8.543  20.183  0.00  0.00    +0.000 A 
ATOM     12  C   UNL     1       0.453  14.128  19.456  0.00  0.00    +0.000 A 
ATOM     13  C   UNL     1      -0.329  15.284  19.536  0.00  0.00    +0.000 A 
ATOM     14  C   UNL     1       0.200  16.466  18.975  0.00  0.00    +0.000 A 
ATOM     15  C   UNL     1       1.466  16.541  18.417  0.00  0.00    +0.000 A 
ATOM     16  C   UNL     1       2.263  15.450  18.306  0.00  0.00    +0.000 A 
ATOM     17  C   UNL     1       1.692  14.290  18.792  0.00  0.00    +0.000 A 
ATOM     18  C   UNL     1       2.232  13.004  18.488  0.00  0.00    +0.000 C 
ATOM     19  O   UNL     1       3.228  12.798  17.832  0.00  0.00    +0.000 OA
ATOM     20  O   UNL     1       1.785  17.758  17.917  0.00  0.00    +0.000 OA
ATOM     21  C   UNL     1       0.495  18.380  17.971  0.00  0.00    +0.000 C 
ATOM     22  O   UNL     1      -0.441  17.668  18.825  0.00  0.00    +0.000 OA
ENDROOT
BRANCH   1  26
ATOM     23  C   UNL     1       2.951   4.380  19.865  0.00  0.00    +0.000 C 
ATOM     24  C   UNL     1       2.136   5.660  19.982  0.00  0.00    +0.000 C 
ATOM     25  O   UNL     1       1.366   5.850  20.916  0.00  0.00    +0.000 OA
ATOM     26  N   UNL     1       2.440   6.562  18.951  0.00  0.00    +0.000 N 
ATOM     27  H   UNL     1       3.435   6.472  18.769  0.00  0.00    +0.000 HD
ENDBRANCH   1  26
BRANCH   7  28
ATOM     28  C   UNL     1      -1.716  12.471  21.166  0.00  0.00    +0.000 C 
BRANCH  28  29
ATOM     29  C   UNL     1      -2.792  13.009  20.206  0.00  0.00    +0.000 C 
BRANCH  29  30
ATOM     30  C   UNL     1      -3.623  11.941  19.488  0.00  0.00    +0.000 C 
BRANCH  30  31
ATOM     31  N   UNL     1      -3.077  11.503  18.191  0.00  0.00    +0.000 NA
ATOM     32  C   UNL     1      -2.394  10.200  18.254  0.00  0.00    +0.000 C 
ATOM     33  C   UNL     1      -1.758   9.865  16.901  0.00  0.00    +0.000 C 
ATOM     34  C   UNL     1      -2.794   9.863  15.784  0.00  0.00    +0.000 C 
ATOM     35  C   UNL     1      -3.599  11.157  15.801  0.00  0.00    +0.000 C 
ATOM     36  C   UNL     1      -4.159  11.454  17.191  0.00  0.00    +0.000 C 
ENDBRANCH  30  31
ENDBRANCH  29  30
ENDBRANCH  28  29
ENDBRANCH   7  28
TORSDOF 5
ENDMDL
MODEL 2
REMARK VINA RESULT:      -7.8      2.968      5.477
REMARK  Name = 
REMARK  6 active torsions:
REMARK  status: ('A' for Active; 'I' for Inactive)
REMARK    1  A    between atoms: C_1  and  C_2
REMARK    2  A    between atoms: N_4  and  C_5
REMARK    3  A    between atoms: N_11  and  C_12
REMARK    4  A    between atoms: C_12  and  C_13
REMARK    5  A    between atoms: C_13  and  C_14
REMARK    6  A    between atoms: C_14  and  N_15
REMARK                            x       y       z     vdW  Elec       q    Type
REMARK                         _______ _______ _______ _____ _____    ______ ____
ROOT
ATOM      1  C   UNL     1       2.436   6.329  19.044  0.00  0.00    +0.000 A 
ATOM      2  C   UNL     1       2.437   6.514  20.419  0.00  0.00    +0.000 A 
ATOM      3  C   UNL     1       1.673   7.536  20.936  0.00  0.00    +0.000 A 
ATOM      4  C   UNL     1       1.347   8.624  20.127  0.00  0.00    +0.000 A 
ATOM      5  C   UNL     1       0.648   9.740  20.649  0.00  0.00    +0.000 A 
ATOM      6  C   UNL     1       0.783  10.996  20.168  0.00  0.00    +0.000 A 
ATOM      7  N   UNL     1       1.480  11.206  18.966  0.00  0.00    +0.000 N 
ATOM      8  C   UNL     1       1.881  10.046  18.177  0.00  0.00    +0.000 A 
ATOM      9  O   UNL     1       2.426  10.115  17.077  0.00  0.00    +0.000 OA
ATOM     10  C   UNL     1       1.730   8.654  18.797  0.00  0.00    +0.000 A 
ATOM     11  C   UNL     1       2.091   7.418  18.208  0.00  0.00    +0.000 A 
ATOM     12  C   UNL     1       0.026  11.909  21.102  0.00  0.00    +0.000 A 
ATOM     13  C   UNL     1      -0.063  13.266  21.427  0.00  0.00    +0.000 A 
ATOM     14  C   UNL     1      -0.912  13.623  22.495  0.00  0.00    +0.000 A 
ATOM     15  C   UNL     1      -1.696  12.710  23.181  0.00  0.00    +0.000 A 
ATOM     16  C   UNL     1      -1.644  11.383  22.914  0.00  0.00    +0.000 A 
ATOM     17  C   UNL     1      -0.749  11.048  21.918  0.00  0.00    +0.000 A 
ATOM     18  C   UNL     1      -0.325   9.701  21.709  0.00  0.00    +0.000 C 
ATOM     19  O   UNL     1      -0.715   8.739  22.332  0.00  0.00    +0.000 OA
ATOM     20  O   UNL     1      -2.430  13.246  24.184  0.00  0.00    +0.000 OA
ATOM     21  C   UNL     1      -1.833  14.547  24.244  0.00  0.00    +0.000 C 
ATOM     22  O   UNL     1      -1.048  14.864  23.062  0.00  0.00    +0.000 OA
ENDROOT
BRANCH   1  26
ATOM     23  C   UNL     1       2.724   2.803  17.791  0.00  0.00    +0.000 C 
ATOM     24  C   UNL     1       2.130   4.203  17.846  0.00  0.00    +0.000 C 
ATOM     25  O   UNL     1       1.046   4.463  17.338  0.00  0.00    +0.000 OA
ATOM     26  N   UNL     1       2.938   5.079  18.588  0.00  0.00    +0.000 N 
ATOM     27  H   UNL     1       3.328   4.538  19.353  0.00  0.00    +0.000 HD
ENDBRANCH   1  26
BRANCH   7  28
ATOM     28  C   UNL     1       1.946  12.570  18.603  0.00  0.00    +0.000 C 
BRANCH  28  29
ATOM     29  C   UNL     1       2.792  13.423  19.567  0.00  0.00    +0.000 C 
BRANCH  29  30
ATOM     30  C   UNL     1       3.416  14.679  18.954  0.00  0.00    +0.000 C 
BRANCH  30  31
ATOM     31  N   UNL     1       2.465  15.568  18.265  0.00  0.00    +0.000 NA
ATOM     32  C   UNL     1       1.447  16.143  19.160  0.00  0.00    +0.000 C 
ATOM     33  C   UNL     1       0.431  16.962  18.358  0.00  0.00    +0.000 C 
ATOM     34  C   UNL     1       1.113  18.066  17.559  0.00  0.00    +0.000 C 
ATOM     35  C   UNL     1       2.259  17.496  16.733  0.00  0.00    +0.000 C 
ATOM     36  C   UNL     1       3.202  16.649  17.586  0.00  0.00    +0.000 C 
ENDBRANCH  30  31
ENDBRANCH  29  30
ENDBRANCH  28  29
ENDBRANCH   7  28
TORSDOF 5
ENDMDL
MODEL 3
REMARK VINA RESULT:      -7.8      2.959      5.442
REMARK  Name = 
REMARK  6 active torsions:
REMARK  status: ('A' for Active; 'I' for Inactive)
REMARK    1  A    between atoms: C_1  and  C_2
REMARK    2  A    between atoms: N_4  and  C_5
REMARK    3  A    between atoms: N_11  and  C_12
REMARK    4  A    between atoms: C_12  and  C_13
REMARK    5  A    between atoms: C_13  and  C_14
REMARK    6  A    between atoms: C_14  and  N_15
REMARK                            x       y       z     vdW  Elec       q    Type
REMARK                         _______ _______ _______ _____ _____    ______ ____
ROOT
ATOM      1  C   UNL     1       2.340   6.713  18.911  0.00  0.00    +0.000 A 
ATOM      2  C   UNL     1       2.325   6.830  20.293  0.00  0.00    +0.000 A 
ATOM      3  C   UNL     1       1.567   7.836  20.850  0.00  0.00    +0.000 A 
ATOM      4  C   UNL     1       1.267   8.967  20.091  0.00  0.00    +0.000 A 
ATOM      5  C   UNL     1       0.576  10.065  20.658  0.00  0.00    +0.000 A 
ATOM      6  C   UNL     1       0.735  11.342  20.240  0.00  0.00    +0.000 A 
ATOM      7  N   UNL     1       1.452  11.600  19.060  0.00  0.00    +0.000 N 
ATOM      8  C   UNL     1       1.848  10.475  18.221  0.00  0.00    +0.000 A 
ATOM      9  O   UNL     1       2.410  10.589  17.133  0.00  0.00    +0.000 OA
ATOM     10  C   UNL     1       1.669   9.057  18.769  0.00  0.00    +0.000 A 
ATOM     11  C   UNL     1       2.022   7.845  18.125  0.00  0.00    +0.000 A 
ATOM     12  C   UNL     1      -0.023  12.219  21.209  0.00  0.00    +0.000 A 
ATOM     13  C   UNL     1      -0.098  13.559  21.598  0.00  0.00    +0.000 A 
ATOM     14  C   UNL     1      -0.957  13.876  22.671  0.00  0.00    +0.000 A 
ATOM     15  C   UNL     1      -1.763  12.942  23.300  0.00  0.00    +0.000 A 
ATOM     16  C   UNL     1      -1.725  11.628  22.970  0.00  0.00    +0.000 A 
ATOM     17  C   UNL     1      -0.820  11.330  21.970  0.00  0.00    +0.000 A 
ATOM     18  C   UNL     1      -0.412   9.989  21.702  0.00  0.00    +0.000 C 
ATOM     19  O   UNL     1      -0.825   9.003  22.271  0.00  0.00    +0.000 OA
ATOM     20  O   UNL     1      -2.504  13.438  24.319  0.00  0.00    +0.000 OA
ATOM     21  C   UNL     1      -1.890  14.726  24.451  0.00  0.00    +0.000 C 
ATOM     22  O   UNL     1      -1.085  15.089  23.297  0.00  0.00    +0.000 OA
ENDROOT
BRANCH   1  26
ATOM     23  C   UNL     1       4.301   4.109  17.050  0.00  0.00    +0.000 C 
ATOM     24  C   UNL     1       4.124   5.385  17.861  0.00  0.00    +0.000 C 
ATOM     25  O   UNL     1       5.015   6.221  17.949  0.00  0.00    +0.000 OA
ATOM     26  N   UNL     1       2.832   5.480  18.401  0.00  0.00    +0.000 N 
ATOM     27  H   UNL     1       2.199   5.088  17.710  0.00  0.00    +0.000 HD
ENDBRANCH   1  26
BRANCH   7  28
ATOM     28  C   UNL     1       1.941  12.973  18.771  0.00  0.00    +0.000 C 
BRANCH  28  29
ATOM     29  C   UNL     1       2.998  13.662  19.654  0.00  0.00    +0.000 C 
BRANCH  29  30
ATOM     30  C   UNL     1       2.799  15.166  19.862  0.00  0.00    +0.000 C 
BRANCH  30  31
ATOM     31  N   UNL     1       2.054  15.845  18.787  0.00  0.00    +0.000 NA
ATOM     32  C   UNL     1       0.819  16.498  19.252  0.00  0.00    +0.000 C 
ATOM     33  C   UNL     1       0.045  17.081  18.067  0.00  0.00    +0.000 C 
ATOM     34  C   UNL     1       0.896  18.069  17.278  0.00  0.00    +0.000 C 
ATOM     35  C   UNL     1       2.236  17.441  16.911  0.00  0.00    +0.000 C 
ATOM     36  C   UNL     1       2.927  16.834  18.131  0.00  0.00    +0.000 C 
ENDBRANCH  30  31
ENDBRANCH  29  30
ENDBRANCH  28  29
ENDBRANCH   7  28
TORSDOF 5
ENDMDL
MODEL 4
REMARK VINA RESULT:      -7.8      2.333      3.325
REMARK  Name = 
REMARK  6 active torsions:
REMARK  status: ('A' for Active; 'I' for Inactive)
REMARK    1  A    between atoms: C_1  and  C_2
REMARK    2  A    between atoms: N_4  and  C_5
REMARK    3  A    between atoms: N_11  and  C_12
REMARK    4  A    between atoms: C_12  and  C_13
REMARK    5  A    between atoms: C_13  and  C_14
REMARK    6  A    between atoms: C_14  and  N_15
REMARK                            x       y       z     vdW  Elec       q    Type
REMARK                         _______ _______ _______ _____ _____    ______ ____
ROOT
ATOM      1  C   UNL     1       2.542   7.035  18.772  0.00  0.00    +0.000 A 
ATOM      2  C   UNL     1       2.345   7.815  17.641  0.00  0.00    +0.000 A 
ATOM      3  C   UNL     1       2.126   9.163  17.814  0.00  0.00    +0.000 A 
ATOM      4  C   UNL     1       1.614   9.624  19.027  0.00  0.00    +0.000 A 
ATOM      5  C   UNL     1       1.281  10.988  19.209  0.00  0.00    +0.000 A 
ATOM      6  C   UNL     1       0.312  11.413  20.051  0.00  0.00    +0.000 A 
ATOM      7  N   UNL     1      -0.269  10.506  20.952  0.00  0.00    +0.000 N 
ATOM      8  C   UNL     1       0.315   9.176  21.082  0.00  0.00    +0.000 A 
ATOM      9  O   UNL     1      -0.064   8.331  21.890  0.00  0.00    +0.000 OA
ATOM     10  C   UNL     1       1.386   8.748  20.074  0.00  0.00    +0.000 A 
ATOM     11  C   UNL     1       2.044   7.495  20.014  0.00  0.00    +0.000 A 
ATOM     12  C   UNL     1       0.146  12.896  19.817  0.00  0.00    +0.000 A 
ATOM     13  C   UNL     1      -0.776  13.917  20.065  0.00  0.00    +0.000 A 
ATOM     14  C   UNL     1      -0.488  15.194  19.538  0.00  0.00    +0.000 A 
ATOM     15  C   UNL     1       0.680  15.488  18.855  0.00  0.00    +0.000 A 
ATOM     16  C   UNL     1       1.604  14.535  18.578  0.00  0.00    +0.000 A 
ATOM     17  C   UNL     1       1.264  13.278  19.036  0.00  0.00    +0.000 A 
ATOM     18  C   UNL     1       1.939  12.105  18.583  0.00  0.00    +0.000 C 
ATOM     19  O   UNL     1       2.870  12.087  17.809  0.00  0.00    +0.000 OA
ATOM     20  O   UNL     1       0.764  16.765  18.414  0.00  0.00    +0.000 OA
ATOM     21  C   UNL     1      -0.585  17.185  18.652  0.00  0.00    +0.000 C 
ATOM     22  O   UNL     1      -1.305  16.295  19.547  0.00  0.00    +0.000 OA
ENDROOT
BRANCH   1  26
ATOM     23  C   UNL     1       3.007   3.350  18.236  0.00  0.00    +0.000 C 
ATOM     24  C   UNL     1       2.322   4.696  18.046  0.00  0.00    +0.000 C 
ATOM     25  O   UNL     1       1.198   4.785  17.566  0.00  0.00    +0.000 OA
ATOM     26  N   UNL     1       3.105   5.749  18.545  0.00  0.00    +0.000 N 
ATOM     27  H   UNL     1       3.568   5.398  19.377  0.00  0.00    +0.000 HD
ENDBRANCH   1  26
BRANCH   7  28
ATOM     28  C   UNL     1      -1.552  10.841  21.623  0.00  0.00    +0.000 C 
BRANCH  28  29
ATOM     29  C   UNL     1      -1.597  11.423  23.049  0.00  0.00    +0.000 C 
BRANCH  29  30
ATOM     30  C   UNL     1      -2.467  12.671  23.220  0.00  0.00    +0.000 C 
BRANCH  30  31
ATOM     31  N   UNL     1      -3.918  12.431  23.114  0.00  0.00    +0.000 NA
ATOM     32  C   UNL     1      -4.675  12.890  24.290  0.00  0.00    +0.000 C 
ATOM     33  C   UNL     1      -6.152  12.507  24.157  0.00  0.00    +0.000 C 
ATOM     34  C   UNL     1      -6.762  13.078  22.883  0.00  0.00    +0.000 C 
ATOM     35  C   UNL     1      -5.905  12.720  21.675  0.00  0.00    +0.000 C 
ATOM     36  C   UNL     1      -4.438  13.082  21.898  0.00  0.00    +0.000 C 
ENDBRANCH  30  31
ENDBRANCH  29  30
ENDBRANCH  28  29
ENDBRANCH   7  28
TORSDOF 5
ENDMDL
MODEL 5
REMARK VINA RESULT:      -7.7      1.088      1.379
REMARK  Name = 
REMARK  6 active torsions:
REMARK  status: ('A' for Active; 'I' for Inactive)
REMARK    1  A    between atoms: C_1  and  C_2
REMARK    2  A    between atoms: N_4  and  C_5
REMARK    3  A    between atoms: N_11  and  C_12
REMARK    4  A    between atoms: C_12  and  C_13
REMARK    5  A    between atoms: C_13  and  C_14
REMARK    6  A    between atoms: C_14  and  N_15
REMARK                            x       y       z     vdW  Elec       q    Type
REMARK                         _______ _______ _______ _____ _____    ______ ____
ROOT
ATOM      1  C   UNL     1       1.824   7.916  19.296  0.00  0.00    +0.000 A 
ATOM      2  C   UNL     1       1.706   8.629  18.111  0.00  0.00    +0.000 A 
ATOM      3  C   UNL     1       1.787  10.002  18.170  0.00  0.00    +0.000 A 
ATOM      4  C   UNL     1       1.481  10.656  19.364  0.00  0.00    +0.000 A 
ATOM      5  C   UNL     1       1.456  12.070  19.437  0.00  0.00    +0.000 A 
ATOM      6  C   UNL     1       0.667  12.758  20.293  0.00  0.00    +0.000 A 
ATOM      7  N   UNL     1      -0.017  12.070  21.310  0.00  0.00    +0.000 N 
ATOM      8  C   UNL     1       0.286  10.660  21.527  0.00  0.00    +0.000 A 
ATOM      9  O   UNL     1      -0.196   9.983  22.433  0.00  0.00    +0.000 OA
ATOM     10  C   UNL     1       1.160   9.935  20.500  0.00  0.00    +0.000 A 
ATOM     11  C   UNL     1       1.534   8.568  20.518  0.00  0.00    +0.000 A 
ATOM     12  C   UNL     1       0.797  14.219  19.932  0.00  0.00    +0.000 A 
ATOM     13  C   UNL     1       0.131  15.430  20.140  0.00  0.00    +0.000 A 
ATOM     14  C   UNL     1       0.637  16.570  19.479  0.00  0.00    +0.000 A 
ATOM     15  C   UNL     1       1.782  16.551  18.701  0.00  0.00    +0.000 A 
ATOM     16  C   UNL     1       2.461  15.403  18.459  0.00  0.00    +0.000 A 
ATOM     17  C   UNL     1       1.904  14.289  19.052  0.00  0.00    +0.000 A 
ATOM     18  C   UNL     1       2.281  12.966  18.670  0.00  0.00    +0.000 C 
ATOM     19  O   UNL     1       3.123  12.688  17.846  0.00  0.00    +0.000 OA
ATOM     20  O   UNL     1       2.096  17.742  18.138  0.00  0.00    +0.000 OA
ATOM     21  C   UNL     1       0.887  18.460  18.418  0.00  0.00    +0.000 C 
ATOM     22  O   UNL     1       0.071  17.818  19.435  0.00  0.00    +0.000 OA
ENDROOT
BRANCH   1  26
ATOM     23  C   UNL     1       3.010   4.581  18.049  0.00  0.00    +0.000 C 
ATOM     24  C   UNL     1       3.142   6.066  18.354  0.00  0.00    +0.000 C 
ATOM     25  O   UNL     1       4.047   6.743  17.880  0.00  0.00    +0.000 OA
ATOM     26  N   UNL     1       2.086   6.526  19.156  0.00  0.00    +0.000 N 
ATOM     27  H   UNL     1       1.256   6.022  18.860  0.00  0.00    +0.000 HD
ENDBRANCH   1  26
BRANCH   7  28
ATOM     28  C   UNL     1      -1.143  12.725  22.024  0.00  0.00    +0.000 C 
BRANCH  28  29
ATOM     29  C   UNL     1      -2.611  12.467  21.637  0.00  0.00    +0.000 C 
BRANCH  29  30
ATOM     30  C   UNL     1      -2.993  12.869  20.210  0.00  0.00    +0.000 C 
BRANCH  30  31
ATOM     31  N   UNL     1      -3.191  11.741  19.282  0.00  0.00    +0.000 NA
ATOM     32  C   UNL     1      -4.438  11.833  18.505  0.00  0.00    +0.000 C 
ATOM     33  C   UNL     1      -4.630  10.576  17.652  0.00  0.00    +0.000 C 
ATOM     34  C   UNL     1      -3.445  10.350  16.720  0.00  0.00    +0.000 C 
ATOM     35  C   UNL     1      -2.138  10.390  17.502  0.00  0.00    +0.000 C 
ATOM     36  C   UNL     1      -2.038  11.644  18.369  0.00  0.00    +0.000 C 
ENDBRANCH  30  31
ENDBRANCH  29  30
ENDBRANCH  28  29
ENDBRANCH   7  28
TORSDOF 5
ENDMDL
MODEL 6
REMARK VINA RESULT:      -7.7      2.977      5.342
REMARK  Name = 
REMARK  6 active torsions:
REMARK  status: ('A' for Active; 'I' for Inactive)
REMARK    1  A    between atoms: C_1  and  C_2
REMARK    2  A    between atoms: N_4  and  C_5
REMARK    3  A    between atoms: N_11  and  C_12
REMARK    4  A    between atoms: C_12  and  C_13
REMARK    5  A    between atoms: C_13  and  C_14
REMARK    6  A    between atoms: C_14  and  N_15
REMARK                            x       y       z     vdW  Elec       q    Type
REMARK                         _______ _______ _______ _____ _____    ______ ____
ROOT
ATOM      1  C   UNL     1       2.535   6.949  18.534  0.00  0.00    +0.000 A 
ATOM      2  C   UNL     1       2.429   6.917  19.917  0.00  0.00    +0.000 A 
ATOM      3  C   UNL     1       1.639   7.862  20.529  0.00  0.00    +0.000 A 
ATOM      4  C   UNL     1       1.389   9.071  19.880  0.00  0.00    +0.000 A 
ATOM      5  C   UNL     1       0.664  10.108  20.517  0.00  0.00    +0.000 A 
ATOM      6  C   UNL     1       0.851  11.420  20.251  0.00  0.00    +0.000 A 
ATOM      7  N   UNL     1       1.643  11.799  19.154  0.00  0.00    +0.000 N 
ATOM      8  C   UNL     1       2.092  10.768  18.226  0.00  0.00    +0.000 A 
ATOM      9  O   UNL     1       2.723  10.995  17.195  0.00  0.00    +0.000 OA
ATOM     10  C   UNL     1       1.876   9.301  18.605  0.00  0.00    +0.000 A 
ATOM     11  C   UNL     1       2.269   8.163  17.856  0.00  0.00    +0.000 A 
ATOM     12  C   UNL     1       0.033  12.193  21.258  0.00  0.00    +0.000 A 
ATOM     13  C   UNL     1      -0.066  13.484  21.785  0.00  0.00    +0.000 A 
ATOM     14  C   UNL     1      -0.992  13.690  22.829  0.00  0.00    +0.000 A 
ATOM     15  C   UNL     1      -1.839  12.700  23.300  0.00  0.00    +0.000 A 
ATOM     16  C   UNL     1      -1.780  11.429  22.832  0.00  0.00    +0.000 A 
ATOM     17  C   UNL     1      -0.813  11.234  21.866  0.00  0.00    +0.000 A 
ATOM     18  C   UNL     1      -0.389   9.927  21.481  0.00  0.00    +0.000 C 
ATOM     19  O   UNL     1      -0.839   8.888  21.912  0.00  0.00    +0.000 OA
ATOM     20  O   UNL     1      -2.643  13.089  24.316  0.00  0.00    +0.000 OA
ATOM     21  C   UNL     1      -2.038  14.350  24.626  0.00  0.00    +0.000 C 
ATOM     22  O   UNL     1      -1.159  14.829  23.573  0.00  0.00    +0.000 OA
ENDROOT
BRANCH   1  26
ATOM     23  C   UNL     1       3.153   3.391  17.514  0.00  0.00    +0.000 C 
ATOM     24  C   UNL     1       2.292   4.601  17.847  0.00  0.00    +0.000 C 
ATOM     25  O   UNL     1       1.091   4.496  18.069  0.00  0.00    +0.000 OA
ATOM     26  N   UNL     1       3.057   5.775  17.926  0.00  0.00    +0.000 N 
ATOM     27  H   UNL     1       3.949   5.513  18.335  0.00  0.00    +0.000 HD
ENDBRANCH   1  26
BRANCH   7  28
ATOM     28  C   UNL     1       2.152  13.192  19.049  0.00  0.00    +0.000 C 
BRANCH  28  29
ATOM     29  C   UNL     1       1.239  14.362  18.638  0.00  0.00    +0.000 C 
BRANCH  29  30
ATOM     30  C   UNL     1       1.428  15.653  19.439  0.00  0.00    +0.000 C 
BRANCH  30  31
ATOM     31  N   UNL     1       0.951  16.873  18.765  0.00  0.00    +0.000 NA
ATOM     32  C   UNL     1       1.742  17.233  17.576  0.00  0.00    +0.000 C 
ATOM     33  C   UNL     1       1.260  18.567  16.998  0.00  0.00    +0.000 C 
ATOM     34  C   UNL     1      -0.222  18.518  16.648  0.00  0.00    +0.000 C 
ATOM     35  C   UNL     1      -1.033  18.014  17.835  0.00  0.00    +0.000 C 
ATOM     36  C   UNL     1      -0.465  16.710  18.392  0.00  0.00    +0.000 C 
ENDBRANCH  30  31
ENDBRANCH  29  30
ENDBRANCH  28  29
ENDBRANCH   7  28
TORSDOF 5
ENDMDL
MODEL 7
REMARK VINA RESULT:      -7.6      2.303      3.677
REMARK  Name = 
REMARK  6 active torsions:
REMARK  status: ('A' for Active; 'I' for Inactive)
REMARK    1  A    between atoms: C_1  and  C_2
REMARK    2  A    between atoms: N_4  and  C_5
REMARK    3  A    between atoms: N_11  and  C_12
REMARK    4  A    between atoms: C_12  and  C_13
REMARK    5  A    between atoms: C_13  and  C_14
REMARK    6  A    between atoms: C_14  and  N_15
REMARK                            x       y       z     vdW  Elec       q    Type
REMARK                         _______ _______ _______ _____ _____    ______ ____
ROOT
ATOM      1  C   UNL     1       2.304   7.350  18.846  0.00  0.00    +0.000 A 
ATOM      2  C   UNL     1       2.156   8.129  17.708  0.00  0.00    +0.000 A 
ATOM      3  C   UNL     1       1.985   9.486  17.868  0.00  0.00    +0.000 A 
ATOM      4  C   UNL     1       1.473   9.974  19.070  0.00  0.00    +0.000 A 
ATOM      5  C   UNL     1       1.190  11.351  19.239  0.00  0.00    +0.000 A 
ATOM      6  C   UNL     1       0.225  11.819  20.062  0.00  0.00    +0.000 A 
ATOM      7  N   UNL     1      -0.404  10.940  20.960  0.00  0.00    +0.000 N 
ATOM      8  C   UNL     1       0.127   9.590  21.107  0.00  0.00    +0.000 A 
ATOM      9  O   UNL     1      -0.297   8.766  21.915  0.00  0.00    +0.000 OA
ATOM     10  C   UNL     1       1.195   9.115  20.119  0.00  0.00    +0.000 A 
ATOM     11  C   UNL     1       1.806   7.837  20.078  0.00  0.00    +0.000 A 
ATOM     12  C   UNL     1       0.120  13.305  19.817  0.00  0.00    +0.000 A 
ATOM     13  C   UNL     1      -0.766  14.363  20.044  0.00  0.00    +0.000 A 
ATOM     14  C   UNL     1      -0.421  15.624  19.514  0.00  0.00    +0.000 A 
ATOM     15  C   UNL     1       0.768  15.868  18.847  0.00  0.00    +0.000 A 
ATOM     16  C   UNL     1       1.659  14.879  18.591  0.00  0.00    +0.000 A 
ATOM     17  C   UNL     1       1.263  13.638  19.051  0.00  0.00    +0.000 A 
ATOM     18  C   UNL     1       1.900  12.437  18.616  0.00  0.00    +0.000 C 
ATOM     19  O   UNL     1       2.842  12.378  17.857  0.00  0.00    +0.000 OA
ATOM     20  O   UNL     1       0.908  17.138  18.399  0.00  0.00    +0.000 OA
ATOM     21  C   UNL     1      -0.428  17.611  18.613  0.00  0.00    +0.000 C 
ATOM     22  O   UNL     1      -1.195  16.755  19.503  0.00  0.00    +0.000 OA
ENDROOT
BRANCH   1  26
ATOM     23  C   UNL     1       4.248   4.407  17.563  0.00  0.00    +0.000 C 
ATOM     24  C   UNL     1       4.067   5.847  18.021  0.00  0.00    +0.000 C 
ATOM     25  O   UNL     1       4.914   6.705  17.799  0.00  0.00    +0.000 OA
ATOM     26  N   UNL     1       2.821   6.042  18.636  0.00  0.00    +0.000 N 
ATOM     27  H   UNL     1       2.156   5.458  18.137  0.00  0.00    +0.000 HD
ENDBRANCH   1  26
BRANCH   7  28
ATOM     28  C   UNL     1      -1.684  11.330  21.609  0.00  0.00    +0.000 C 
BRANCH  28  29
ATOM     29  C   UNL     1      -1.751  11.741  23.091  0.00  0.00    +0.000 C 
BRANCH  29  30
ATOM     30  C   UNL     1      -2.992  12.544  23.492  0.00  0.00    +0.000 C 
BRANCH  30  31
ATOM     31  N   UNL     1      -2.764  13.991  23.660  0.00  0.00    +0.000 NA
ATOM     32  C   UNL     1      -1.346  14.344  23.832  0.00  0.00    +0.000 C 
ATOM     33  C   UNL     1      -1.199  15.842  24.113  0.00  0.00    +0.000 C 
ATOM     34  C   UNL     1      -1.818  16.680  23.000  0.00  0.00    +0.000 C 
ATOM     35  C   UNL     1      -3.245  16.226  22.723  0.00  0.00    +0.000 C 
ATOM     36  C   UNL     1      -3.324  14.715  22.505  0.00  0.00    +0.000 C 
ENDBRANCH  30  31
ENDBRANCH  29  30
ENDBRANCH  28  29
ENDBRANCH   7  28
TORSDOF 5
ENDMDL
MODEL 8
REMARK VINA RESULT:      -7.5      2.208      3.150
REMARK  Name = 
REMARK  6 active torsions:
REMARK  status: ('A' for Active; 'I' for Inactive)
REMARK    1  A    between atoms: C_1  and  C_2
REMARK    2  A    between atoms: N_4  and  C_5
REMARK    3  A    between atoms: N_11  and  C_12
REMARK    4  A    between atoms: C_12  and  C_13
REMARK    5  A    between atoms: C_13  and  C_14
REMARK    6  A    between atoms: C_14  and  N_15
REMARK                            x       y       z     vdW  Elec       q    Type
REMARK                         _______ _______ _______ _____ _____    ______ ____
ROOT
ATOM      1  C   UNL     1       2.043   7.577  18.954  0.00  0.00    +0.000 A 
ATOM      2  C   UNL     1       1.935   8.346  17.804  0.00  0.00    +0.000 A 
ATOM      3  C   UNL     1       1.861   9.714  17.943  0.00  0.00    +0.000 A 
ATOM      4  C   UNL     1       1.397  10.256  19.142  0.00  0.00    +0.000 A 
ATOM      5  C   UNL     1       1.212  11.652  19.290  0.00  0.00    +0.000 A 
ATOM      6  C   UNL     1       0.291  12.198  20.116  0.00  0.00    +0.000 A 
ATOM      7  N   UNL     1      -0.387  11.380  21.035  0.00  0.00    +0.000 N 
ATOM      8  C   UNL     1       0.052   9.999  21.200  0.00  0.00    +0.000 A 
ATOM      9  O   UNL     1      -0.419   9.220  22.026  0.00  0.00    +0.000 OA
ATOM     10  C   UNL     1       1.074   9.435  20.209  0.00  0.00    +0.000 A 
ATOM     11  C   UNL     1       1.594   8.118  20.183  0.00  0.00    +0.000 A 
ATOM     12  C   UNL     1       0.285  13.684  19.846  0.00  0.00    +0.000 A 
ATOM     13  C   UNL     1      -0.523  14.804  20.065  0.00  0.00    +0.000 A 
ATOM     14  C   UNL     1      -0.098  16.029  19.510  0.00  0.00    +0.000 A 
ATOM     15  C   UNL     1       1.097  16.180  18.826  0.00  0.00    +0.000 A 
ATOM     16  C   UNL     1       1.915  15.127  18.578  0.00  0.00    +0.000 A 
ATOM     17  C   UNL     1       1.440  13.925  19.063  0.00  0.00    +0.000 A 
ATOM     18  C   UNL     1       1.988  12.676  18.641  0.00  0.00    +0.000 C 
ATOM     19  O   UNL     1       2.914  12.540  17.874  0.00  0.00    +0.000 OA
ATOM     20  O   UNL     1       1.319  17.430  18.356  0.00  0.00    +0.000 OA
ATOM     21  C   UNL     1       0.022  17.997  18.575  0.00  0.00    +0.000 C 
ATOM     22  O   UNL     1      -0.792  17.211  19.487  0.00  0.00    +0.000 OA
ENDROOT
BRANCH   1  26
ATOM     23  C   UNL     1       3.731   4.480  17.670  0.00  0.00    +0.000 C 
ATOM     24  C   UNL     1       3.663   5.942  18.089  0.00  0.00    +0.000 C 
ATOM     25  O   UNL     1       4.549   6.737  17.796  0.00  0.00    +0.000 OA
ATOM     26  N   UNL     1       2.466   6.233  18.762  0.00  0.00    +0.000 N 
ATOM     27  H   UNL     1       1.741   5.679  18.317  0.00  0.00    +0.000 HD
ENDBRANCH   1  26
BRANCH   7  28
ATOM     28  C   UNL     1      -1.629  11.867  21.691  0.00  0.00    +0.000 C 
BRANCH  28  29
ATOM     29  C   UNL     1      -2.897  12.201  20.884  0.00  0.00    +0.000 C 
BRANCH  29  30
ATOM     30  C   UNL     1      -3.859  13.187  21.553  0.00  0.00    +0.000 C 
BRANCH  30  31
ATOM     31  N   UNL     1      -5.064  12.573  22.137  0.00  0.00    +0.000 NA
ATOM     32  C   UNL     1      -5.544  13.261  23.347  0.00  0.00    +0.000 C 
ATOM     33  C   UNL     1      -6.726  12.503  23.959  0.00  0.00    +0.000 C 
ATOM     34  C   UNL     1      -7.864  12.346  22.957  0.00  0.00    +0.000 C 
ATOM     35  C   UNL     1      -7.346  11.760  21.650  0.00  0.00    +0.000 C 
ATOM     36  C   UNL     1      -6.137  12.533  21.126  0.00  0.00    +0.000 C 
ENDBRANCH  30  31
ENDBRANCH  29  30
ENDBRANCH  28  29
ENDBRANCH   7  28
TORSDOF 5
ENDMDL
MODEL 9
REMARK VINA RESULT:      -7.5      2.245      3.001
REMARK  Name = 
REMARK  6 active torsions:
REMARK  status: ('A' for Active; 'I' for Inactive)
REMARK    1  A    between atoms: C_1  and  C_2
REMARK    2  A    between atoms: N_4  and  C_5
REMARK    3  A    between atoms: N_11  and  C_12
REMARK    4  A    between atoms: C_12  and  C_13
REMARK    5  A    between atoms: C_13  and  C_14
REMARK    6  A    between atoms: C_14  and  N_15
REMARK                            x       y       z     vdW  Elec       q    Type
REMARK                         _______ _______ _______ _____ _____    ______ ____
ROOT
ATOM      1  C   UNL     1       2.279   7.340  18.876  0.00  0.00    +0.000 A 
ATOM      2  C   UNL     1       2.122   8.109  17.732  0.00  0.00    +0.000 A 
ATOM      3  C   UNL     1       1.954   9.467  17.881  0.00  0.00    +0.000 A 
ATOM      4  C   UNL     1       1.453   9.968  19.082  0.00  0.00    +0.000 A 
ATOM      5  C   UNL     1       1.173  11.347  19.240  0.00  0.00    +0.000 A 
ATOM      6  C   UNL     1       0.215  11.823  20.067  0.00  0.00    +0.000 A 
ATOM      7  N   UNL     1      -0.408  10.954  20.979  0.00  0.00    +0.000 N 
ATOM      8  C   UNL     1       0.123   9.604  21.134  0.00  0.00    +0.000 A 
ATOM      9  O   UNL     1      -0.295   8.789  21.953  0.00  0.00    +0.000 OA
ATOM     10  C   UNL     1       1.183   9.119  20.142  0.00  0.00    +0.000 A 
ATOM     11  C   UNL     1       1.791   7.839  20.107  0.00  0.00    +0.000 A 
ATOM     12  C   UNL     1       0.110  13.307  19.809  0.00  0.00    +0.000 A 
ATOM     13  C   UNL     1      -0.773  14.368  20.034  0.00  0.00    +0.000 A 
ATOM     14  C   UNL     1      -0.431  15.623  19.489  0.00  0.00    +0.000 A 
ATOM     15  C   UNL     1       0.753  15.860  18.809  0.00  0.00    +0.000 A 
ATOM     16  C   UNL     1       1.640  14.867  18.555  0.00  0.00    +0.000 A 
ATOM     17  C   UNL     1       1.247  13.632  19.030  0.00  0.00    +0.000 A 
ATOM     18  C   UNL     1       1.879  12.426  18.601  0.00  0.00    +0.000 C 
ATOM     19  O   UNL     1       2.814  12.359  17.835  0.00  0.00    +0.000 OA
ATOM     20  O   UNL     1       0.890  17.125  18.349  0.00  0.00    +0.000 OA
ATOM     21  C   UNL     1      -0.443  17.602  18.570  0.00  0.00    +0.000 C 
ATOM     22  O   UNL     1      -1.203  16.756  19.473  0.00  0.00    +0.000 OA
ENDROOT
BRANCH   1  26
ATOM     23  C   UNL     1       4.164   4.372  17.564  0.00  0.00    +0.000 C 
ATOM     24  C   UNL     1       4.000   5.824  17.989  0.00  0.00    +0.000 C 
ATOM     25  O   UNL     1       4.825   6.680  17.690  0.00  0.00    +0.000 OA
ATOM     26  N   UNL     1       2.792   6.030  18.674  0.00  0.00    +0.000 N 
ATOM     27  H   UNL     1       2.103   5.427  18.234  0.00  0.00    +0.000 HD
ENDBRANCH   1  26
BRANCH   7  28
ATOM     28  C   UNL     1      -1.681  11.351  21.635  0.00  0.00    +0.000 C 
BRANCH  28  29
ATOM     29  C   UNL     1      -1.721  11.877  23.081  0.00  0.00    +0.000 C 
BRANCH  29  30
ATOM     30  C   UNL     1      -2.864  12.846  23.394  0.00  0.00    +0.000 C 
BRANCH  30  31
ATOM     31  N   UNL     1      -3.566  13.377  22.212  0.00  0.00    +0.000 NA
ATOM     32  C   UNL     1      -4.932  12.851  22.056  0.00  0.00    +0.000 C 
ATOM     33  C   UNL     1      -5.553  13.356  20.751  0.00  0.00    +0.000 C 
ATOM     34  C   UNL     1      -5.566  14.879  20.694  0.00  0.00    +0.000 C 
ATOM     35  C   UNL     1      -4.179  15.435  20.990  0.00  0.00    +0.000 C 
ATOM     36  C   UNL     1      -3.600  14.849  22.277  0.00  0.00    +0.000 C 
ENDBRANCH  30  31
ENDBRANCH  29  30
ENDBRANCH  28  29
ENDBRANCH   7  28
TORSDOF 5
ENDMDL
