MODEL 1
REMARK VINA RESULT:      -8.1      0.000      0.000
REMARK  Name = 
REMARK  3 active torsions:
REMARK  status: ('A' for Active; 'I' for Inactive)
REMARK    1  A    between atoms: C_2  and  C_3
REMARK    2  A    between atoms: C_5  and  N_6
REMARK    3  A    between atoms: C_13  and  C_14
REMARK                            x       y       z     vdW  Elec       q    Type
REMARK                         _______ _______ _______ _____ _____    ______ ____
ROOT
ATOM      1  N   UNL     1       2.651   6.967  19.029  0.00  0.00    +0.000 N 
ATOM      2  C   UNL     1       2.731   5.714  19.587  0.00  0.00    +0.000 C 
ATOM      3  O   UNL     1       2.164   5.347  20.613  0.00  0.00    +0.000 OA
ATOM      4  N   UNL     1       3.456   4.787  18.880  0.00  0.00    +0.000 N 
ATOM      5  C   UNL     1       4.193   5.083  17.772  0.00  0.00    +0.000 A 
ATOM      6  N   UNL     1       4.484   6.279  17.316  0.00  0.00    +0.000 NA
ATOM      7  N   UNL     1       5.165   6.219  16.131  0.00  0.00    +0.000 NA
ATOM      8  C   UNL     1       5.329   4.977  15.713  0.00  0.00    +0.000 A 
ATOM      9  S   UNL     1       4.751   3.790  16.830  0.00  0.00    +0.000 S 
ATOM     10  H   UNL     1       3.205   7.107  18.189  0.00  0.00    +0.000 HD
ATOM     11  H   UNL     1       3.386   3.830  19.193  0.00  0.00    +0.000 HD
ENDROOT
BRANCH   1  14
ATOM     12  C   UNL     1       0.752   9.442  21.071  0.00  0.00    +0.000 A 
ATOM     13  C   UNL     1       1.506   8.305  20.748  0.00  0.00    +0.000 A 
ATOM     14  C   UNL     1       1.902   8.076  19.436  0.00  0.00    +0.000 A 
ATOM     15  C   UNL     1       1.535   8.990  18.436  0.00  0.00    +0.000 A 
ATOM     16  C   UNL     1       0.778  10.119  18.749  0.00  0.00    +0.000 A 
ATOM     17  C   UNL     1       0.388  10.348  20.067  0.00  0.00    +0.000 A 
ATOM     18 CL   UNL     1      -0.543  11.764  20.399  0.00  0.00    +0.000 Cl
BRANCH  12  20
ATOM     19  N   UNL     1       0.089   9.827  23.542  0.00  0.00    +0.000 NA
ATOM     20  C   UNL     1       0.376   9.643  22.434  0.00  0.00    +0.000 C 
ENDBRANCH  12  20
ENDBRANCH   1  14
BRANCH   8  21
ATOM     21  C   UNL     1       5.961   4.628  14.444  0.00  0.00    +0.000 A 
ATOM     22  C   UNL     1       7.164   5.252  14.095  0.00  0.00    +0.000 A 
ATOM     23  C   UNL     1       7.747   4.938  12.882  0.00  0.00    +0.000 A 
ATOM     24  N   UNL     1       7.214   4.065  12.004  0.00  0.00    +0.000 NA
ATOM     25  C   UNL     1       6.044   3.488  12.347  0.00  0.00    +0.000 A 
ATOM     26  C   UNL     1       5.385   3.735  13.539  0.00  0.00    +0.000 A 
ENDBRANCH   8  21
TORSDOF 3
ENDMDL
MODEL 2
REMARK VINA RESULT:      -7.8      5.011      9.966
REMARK  Name = 
REMARK  3 active torsions:
REMARK  status: ('A' for Active; 'I' for Inactive)
REMARK    1  A    between atoms: C_2  and  C_3
REMARK    2  A    between atoms: C_5  and  N_6
REMARK    3  A    between atoms: C_13  and  C_14
REMARK                            x       y       z     vdW  Elec       q    Type
REMARK                         _______ _______ _______ _____ _____    ______ ____
ROOT
ATOM      1  N   UNL     1       1.843   8.215  19.538  0.00  0.00    +0.000 N 
ATOM      2  C   UNL     1       1.732   9.081  18.476  0.00  0.00    +0.000 C 
ATOM      3  O   UNL     1       2.107   8.860  17.327  0.00  0.00    +0.000 OA
ATOM      4  N   UNL     1       1.075  10.259  18.728  0.00  0.00    +0.000 N 
ATOM      5  C   UNL     1       0.678  10.657  19.971  0.00  0.00    +0.000 A 
ATOM      6  N   UNL     1       1.003  10.105  21.116  0.00  0.00    +0.000 NA
ATOM      7  N   UNL     1       0.357  10.697  22.166  0.00  0.00    +0.000 NA
ATOM      8  C   UNL     1      -0.466  11.651  21.772  0.00  0.00    +0.000 A 
ATOM      9  S   UNL     1      -0.402  11.959  20.071  0.00  0.00    +0.000 S 
ATOM     10  H   UNL     1       1.500   8.568  20.426  0.00  0.00    +0.000 HD
ATOM     11  H   UNL     1       0.846  10.825  17.925  0.00  0.00    +0.000 HD
ENDROOT
BRANCH   1  14
ATOM     12  C   UNL     1       2.473   4.654  20.447  0.00  0.00    +0.000 A 
ATOM     13  C   UNL     1       1.919   5.942  20.477  0.00  0.00    +0.000 A 
ATOM     14  C   UNL     1       2.341   6.908  19.572  0.00  0.00    +0.000 A 
ATOM     15  C   UNL     1       3.329   6.586  18.630  0.00  0.00    +0.000 A 
ATOM     16  C   UNL     1       3.890   5.308  18.599  0.00  0.00    +0.000 A 
ATOM     17  C   UNL     1       3.461   4.341  19.505  0.00  0.00    +0.000 A 
ATOM     18 CL   UNL     1       4.184   2.775  19.417  0.00  0.00    +0.000 Cl
BRANCH  12  20
ATOM     19  N   UNL     1       1.612   2.891  22.132  0.00  0.00    +0.000 NA
ATOM     20  C   UNL     1       2.003   3.690  21.389  0.00  0.00    +0.000 C 
ENDBRANCH  12  20
ENDBRANCH   1  14
BRANCH   8  21
ATOM     21  C   UNL     1      -1.331  12.400  22.679  0.00  0.00    +0.000 A 
ATOM     22  C   UNL     1      -2.534  11.820  23.097  0.00  0.00    +0.000 A 
ATOM     23  C   UNL     1      -3.362  12.540  23.936  0.00  0.00    +0.000 A 
ATOM     24  N   UNL     1      -3.080  13.785  24.371  0.00  0.00    +0.000 NA
ATOM     25  C   UNL     1      -1.927  14.337  23.941  0.00  0.00    +0.000 A 
ATOM     26  C   UNL     1      -1.031  13.695  23.104  0.00  0.00    +0.000 A 
ENDBRANCH   8  21
TORSDOF 3
ENDMDL
MODEL 3
REMARK VINA RESULT:      -7.6      4.530     10.115
REMARK  Name = 
REMARK  3 active torsions:
REMARK  status: ('A' for Active; 'I' for Inactive)
REMARK    1  A    between atoms: C_2  and  C_3
REMARK    2  A    between atoms: C_5  and  N_6
REMARK    3  A    between atoms: C_13  and  C_14
REMARK                            x       y       z     vdW  Elec       q    Type
REMARK                         _______ _______ _______ _____ _____    ______ ____
ROOT
ATOM      1  N   UNL     1       1.856   8.103  19.703  0.00  0.00    +0.000 N 
ATOM      2  C   UNL     1       1.738   8.914  18.600  0.00  0.00    +0.000 C 
ATOM      3  O   UNL     1       2.105   8.635  17.461  0.00  0.00    +0.000 OA
ATOM      4  N   UNL     1       1.084  10.105  18.797  0.00  0.00    +0.000 N 
ATOM      5  C   UNL     1       0.696  10.565  20.021  0.00  0.00    +0.000 A 
ATOM      6  N   UNL     1       1.029  10.071  21.190  0.00  0.00    +0.000 NA
ATOM      7  N   UNL     1       0.392  10.716  22.214  0.00  0.00    +0.000 NA
ATOM      8  C   UNL     1      -0.433  11.650  21.778  0.00  0.00    +0.000 A 
ATOM      9  S   UNL     1      -0.382  11.872  20.063  0.00  0.00    +0.000 S 
ATOM     10  H   UNL     1       1.520   8.501  20.575  0.00  0.00    +0.000 HD
ATOM     11  H   UNL     1       0.850  10.630  17.968  0.00  0.00    +0.000 HD
ENDROOT
BRANCH   1  14
ATOM     12  C   UNL     1       3.997   5.064  19.414  0.00  0.00    +0.000 A 
ATOM     13  C   UNL     1       3.575   6.394  19.278  0.00  0.00    +0.000 A 
ATOM     14  C   UNL     1       2.352   6.798  19.800  0.00  0.00    +0.000 A 
ATOM     15  C   UNL     1       1.541   5.863  20.460  0.00  0.00    +0.000 A 
ATOM     16  C   UNL     1       1.952   4.537  20.594  0.00  0.00    +0.000 A 
ATOM     17  C   UNL     1       3.181   4.136  20.074  0.00  0.00    +0.000 A 
ATOM     18 CL   UNL     1       3.642   2.484  20.273  0.00  0.00    +0.000 Cl
BRANCH  12  20
ATOM     19  N   UNL     1       6.301   4.383  18.456  0.00  0.00    +0.000 NA
ATOM     20  C   UNL     1       5.265   4.695  18.872  0.00  0.00    +0.000 C 
ENDBRANCH  12  20
ENDBRANCH   1  14
BRANCH   8  21
ATOM     21  C   UNL     1      -1.291  12.444  22.653  0.00  0.00    +0.000 A 
ATOM     22  C   UNL     1      -2.534  11.925  23.032  0.00  0.00    +0.000 A 
ATOM     23  C   UNL     1      -3.354  12.689  23.840  0.00  0.00    +0.000 A 
ATOM     24  N   UNL     1      -3.027  13.922  24.279  0.00  0.00    +0.000 NA
ATOM     25  C   UNL     1      -1.835  14.415  23.886  0.00  0.00    +0.000 A 
ATOM     26  C   UNL     1      -0.944  13.726  23.082  0.00  0.00    +0.000 A 
ENDBRANCH   8  21
TORSDOF 3
ENDMDL
MODEL 4
REMARK VINA RESULT:      -7.5      4.926      9.655
REMARK  Name = 
REMARK  3 active torsions:
REMARK  status: ('A' for Active; 'I' for Inactive)
REMARK    1  A    between atoms: C_2  and  C_3
REMARK    2  A    between atoms: C_5  and  N_6
REMARK    3  A    between atoms: C_13  and  C_14
REMARK                            x       y       z     vdW  Elec       q    Type
REMARK                         _______ _______ _______ _____ _____    ______ ____
ROOT
ATOM      1  N   UNL     1       2.002   7.799  19.310  0.00  0.00    +0.000 N 
ATOM      2  C   UNL     1       2.096   8.637  18.224  0.00  0.00    +0.000 C 
ATOM      3  O   UNL     1       2.707   8.400  17.185  0.00  0.00    +0.000 OA
ATOM      4  N   UNL     1       1.378   9.804  18.303  0.00  0.00    +0.000 N 
ATOM      5  C   UNL     1       0.722  10.219  19.424  0.00  0.00    +0.000 A 
ATOM      6  N   UNL     1       0.814   9.702  20.627  0.00  0.00    +0.000 NA
ATOM      7  N   UNL     1      -0.049  10.301  21.504  0.00  0.00    +0.000 NA
ATOM      8  C   UNL     1      -0.791  11.224  20.921  0.00  0.00    +0.000 A 
ATOM      9  S   UNL     1      -0.381  11.495  19.263  0.00  0.00    +0.000 S 
ATOM     10  H   UNL     1       1.475   8.163  20.098  0.00  0.00    +0.000 HD
ATOM     11  H   UNL     1       1.309  10.345  17.455  0.00  0.00    +0.000 HD
ENDROOT
BRANCH   1  14
ATOM     12  C   UNL     1       2.552   4.305  20.490  0.00  0.00    +0.000 A 
ATOM     13  C   UNL     1       1.982   5.581  20.376  0.00  0.00    +0.000 A 
ATOM     14  C   UNL     1       2.508   6.506  19.482  0.00  0.00    +0.000 A 
ATOM     15  C   UNL     1       3.618   6.155  18.700  0.00  0.00    +0.000 A 
ATOM     16  C   UNL     1       4.195   4.890  18.814  0.00  0.00    +0.000 A 
ATOM     17  C   UNL     1       3.662   3.963  19.707  0.00  0.00    +0.000 A 
ATOM     18 CL   UNL     1       4.412   2.410  19.803  0.00  0.00    +0.000 Cl
BRANCH  12  20
ATOM     19  N   UNL     1       1.526   2.618  22.160  0.00  0.00    +0.000 NA
ATOM     20  C   UNL     1       1.973   3.383  21.413  0.00  0.00    +0.000 C 
ENDBRANCH  12  20
ENDBRANCH   1  14
BRANCH   8  21
ATOM     21  C   UNL     1      -1.841  11.970  21.609  0.00  0.00    +0.000 A 
ATOM     22  C   UNL     1      -2.019  11.774  22.983  0.00  0.00    +0.000 A 
ATOM     23  C   UNL     1      -3.029  12.464  23.626  0.00  0.00    +0.000 A 
ATOM     24  N   UNL     1      -3.867  13.313  22.998  0.00  0.00    +0.000 NA
ATOM     25  C   UNL     1      -3.695  13.474  21.670  0.00  0.00    +0.000 A 
ATOM     26  C   UNL     1      -2.711  12.832  20.939  0.00  0.00    +0.000 A 
ENDBRANCH   8  21
TORSDOF 3
ENDMDL
MODEL 5
REMARK VINA RESULT:      -7.4      4.195     10.153
REMARK  Name = 
REMARK  3 active torsions:
REMARK  status: ('A' for Active; 'I' for Inactive)
REMARK    1  A    between atoms: C_2  and  C_3
REMARK    2  A    between atoms: C_5  and  N_6
REMARK    3  A    between atoms: C_13  and  C_14
REMARK                            x       y       z     vdW  Elec       q    Type
REMARK                         _______ _______ _______ _____ _____    ______ ____
ROOT
ATOM      1  N   UNL     1       1.757   8.306  19.524  0.00  0.00    +0.000 N 
ATOM      2  C   UNL     1       1.728   9.209  18.487  0.00  0.00    +0.000 C 
ATOM      3  O   UNL     1       2.146   9.009  17.350  0.00  0.00    +0.000 OA
ATOM      4  N   UNL     1       1.106  10.404  18.749  0.00  0.00    +0.000 N 
ATOM      5  C   UNL     1       0.667  10.778  19.985  0.00  0.00    +0.000 A 
ATOM      6  N   UNL     1       0.919  10.178  21.125  0.00  0.00    +0.000 NA
ATOM      7  N   UNL     1       0.249  10.762  22.165  0.00  0.00    +0.000 NA
ATOM      8  C   UNL     1      -0.518  11.760  21.766  0.00  0.00    +0.000 A 
ATOM      9  S   UNL     1      -0.365  12.118  20.080  0.00  0.00    +0.000 S 
ATOM     10  H   UNL     1       1.388   8.645  20.408  0.00  0.00    +0.000 HD
ATOM     11  H   UNL     1       0.935  11.003  17.956  0.00  0.00    +0.000 HD
ENDROOT
BRANCH   1  14
ATOM     12  C   UNL     1       3.396   5.078  18.633  0.00  0.00    +0.000 A 
ATOM     13  C   UNL     1       2.996   6.419  18.545  0.00  0.00    +0.000 A 
ATOM     14  C   UNL     1       2.202   6.980  19.537  0.00  0.00    +0.000 A 
ATOM     15  C   UNL     1       1.797   6.191  20.625  0.00  0.00    +0.000 A 
ATOM     16  C   UNL     1       2.186   4.854  20.715  0.00  0.00    +0.000 A 
ATOM     17  C   UNL     1       2.987   4.297  19.720  0.00  0.00    +0.000 A 
ATOM     18 CL   UNL     1       3.443   2.639  19.885  0.00  0.00    +0.000 Cl
BRANCH  12  20
ATOM     19  N   UNL     1       4.883   4.135  16.737  0.00  0.00    +0.000 NA
ATOM     20  C   UNL     1       4.221   4.547  17.596  0.00  0.00    +0.000 C 
ENDBRANCH  12  20
ENDBRANCH   1  14
BRANCH   8  21
ATOM     21  C   UNL     1      -1.395  12.514  22.658  0.00  0.00    +0.000 A 
ATOM     22  C   UNL     1      -0.968  13.761  23.127  0.00  0.00    +0.000 A 
ATOM     23  C   UNL     1      -1.789  14.461  23.991  0.00  0.00    +0.000 A 
ATOM     24  N   UNL     1      -2.982  14.002  24.420  0.00  0.00    +0.000 NA
ATOM     25  C   UNL     1      -3.367  12.789  23.974  0.00  0.00    +0.000 A 
ATOM     26  C   UNL     1      -2.619  12.014  23.106  0.00  0.00    +0.000 A 
ENDBRANCH   8  21
TORSDOF 3
ENDMDL
MODEL 6
REMARK VINA RESULT:      -7.3      5.120      8.497
REMARK  Name = 
REMARK  3 active torsions:
REMARK  status: ('A' for Active; 'I' for Inactive)
REMARK    1  A    between atoms: C_2  and  C_3
REMARK    2  A    between atoms: C_5  and  N_6
REMARK    3  A    between atoms: C_13  and  C_14
REMARK                            x       y       z     vdW  Elec       q    Type
REMARK                         _______ _______ _______ _____ _____    ______ ____
ROOT
ATOM      1  N   UNL     1       1.495   8.588  19.898  0.00  0.00    +0.000 N 
ATOM      2  C   UNL     1       0.548   9.026  20.793  0.00  0.00    +0.000 C 
ATOM      3  O   UNL     1      -0.075   8.320  21.581  0.00  0.00    +0.000 OA
ATOM      4  N   UNL     1       0.352  10.384  20.842  0.00  0.00    +0.000 N 
ATOM      5  C   UNL     1       0.922  11.266  19.973  0.00  0.00    +0.000 A 
ATOM      6  N   UNL     1       1.575  10.977  18.872  0.00  0.00    +0.000 NA
ATOM      7  N   UNL     1       2.096  12.096  18.282  0.00  0.00    +0.000 NA
ATOM      8  C   UNL     1       1.853  13.188  18.983  0.00  0.00    +0.000 A 
ATOM      9  S   UNL     1       0.851  12.913  20.366  0.00  0.00    +0.000 S 
ATOM     10  H   UNL     1       1.898   9.305  19.302  0.00  0.00    +0.000 HD
ATOM     11  H   UNL     1      -0.216  10.727  21.602  0.00  0.00    +0.000 HD
ENDROOT
BRANCH   1  14
ATOM     12  C   UNL     1       2.404   4.999  20.336  0.00  0.00    +0.000 A 
ATOM     13  C   UNL     1       1.860   6.261  20.611  0.00  0.00    +0.000 A 
ATOM     14  C   UNL     1       2.003   7.300  19.699  0.00  0.00    +0.000 A 
ATOM     15  C   UNL     1       2.702   7.076  18.503  0.00  0.00    +0.000 A 
ATOM     16  C   UNL     1       3.252   5.824  18.226  0.00  0.00    +0.000 A 
ATOM     17  C   UNL     1       3.102   4.783  19.141  0.00  0.00    +0.000 A 
ATOM     18 CL   UNL     1       3.798   3.254  18.744  0.00  0.00    +0.000 Cl
BRANCH  12  20
ATOM     19  N   UNL     1       2.051   3.110  22.068  0.00  0.00    +0.000 NA
ATOM     20  C   UNL     1       2.224   3.957  21.296  0.00  0.00    +0.000 C 
ENDBRANCH  12  20
ENDBRANCH   1  14
BRANCH   8  21
ATOM     21  C   UNL     1       2.353  14.511  18.619  0.00  0.00    +0.000 A 
ATOM     22  C   UNL     1       3.669  14.632  18.158  0.00  0.00    +0.000 A 
ATOM     23  C   UNL     1       4.147  15.888  17.837  0.00  0.00    +0.000 A 
ATOM     24  N   UNL     1       3.417  17.015  17.955  0.00  0.00    +0.000 NA
ATOM     25  C   UNL     1       2.158  16.883  18.422  0.00  0.00    +0.000 A 
ATOM     26  C   UNL     1       1.588  15.670  18.765  0.00  0.00    +0.000 A 
ENDBRANCH   8  21
TORSDOF 3
ENDMDL
MODEL 7
REMARK VINA RESULT:      -7.3      3.828      9.071
REMARK  Name = 
REMARK  3 active torsions:
REMARK  status: ('A' for Active; 'I' for Inactive)
REMARK    1  A    between atoms: C_2  and  C_3
REMARK    2  A    between atoms: C_5  and  N_6
REMARK    3  A    between atoms: C_13  and  C_14
REMARK                            x       y       z     vdW  Elec       q    Type
REMARK                         _______ _______ _______ _____ _____    ______ ____
ROOT
ATOM      1  N   UNL     1       2.606   6.449  19.362  0.00  0.00    +0.000 N 
ATOM      2  C   UNL     1       2.059   5.944  20.518  0.00  0.00    +0.000 C 
ATOM      3  O   UNL     1       2.167   4.788  20.918  0.00  0.00    +0.000 OA
ATOM      4  N   UNL     1       1.401   6.847  21.315  0.00  0.00    +0.000 N 
ATOM      5  C   UNL     1       1.147   8.137  20.952  0.00  0.00    +0.000 A 
ATOM      6  N   UNL     1       1.307   8.667  19.762  0.00  0.00    +0.000 NA
ATOM      7  N   UNL     1       1.046  10.010  19.765  0.00  0.00    +0.000 NA
ATOM      8  C   UNL     1       0.735  10.455  20.968  0.00  0.00    +0.000 A 
ATOM      9  S   UNL     1       0.630   9.206  22.161  0.00  0.00    +0.000 S 
ATOM     10  H   UNL     1       2.399   7.424  19.171  0.00  0.00    +0.000 HD
ATOM     11  H   UNL     1       1.139   6.526  22.235  0.00  0.00    +0.000 HD
ENDROOT
BRANCH   1  14
ATOM     12  C   UNL     1       5.422   5.622  17.063  0.00  0.00    +0.000 A 
ATOM     13  C   UNL     1       4.664   6.311  18.020  0.00  0.00    +0.000 A 
ATOM     14  C   UNL     1       3.426   5.821  18.418  0.00  0.00    +0.000 A 
ATOM     15  C   UNL     1       2.939   4.634  17.851  0.00  0.00    +0.000 A 
ATOM     16  C   UNL     1       3.685   3.947  16.893  0.00  0.00    +0.000 A 
ATOM     17  C   UNL     1       4.928   4.438  16.500  0.00  0.00    +0.000 A 
ATOM     18 CL   UNL     1       5.812   3.545  15.315  0.00  0.00    +0.000 Cl
BRANCH  12  20
ATOM     19  N   UNL     1       7.717   6.589  16.362  0.00  0.00    +0.000 NA
ATOM     20  C   UNL     1       6.693   6.155  16.691  0.00  0.00    +0.000 C 
ENDBRANCH  12  20
ENDBRANCH   1  14
BRANCH   8  21
ATOM     21  C   UNL     1       0.477  11.860  21.269  0.00  0.00    +0.000 A 
ATOM     22  C   UNL     1       1.322  12.833  20.726  0.00  0.00    +0.000 A 
ATOM     23  C   UNL     1       1.090  14.161  21.032  0.00  0.00    +0.000 A 
ATOM     24  N   UNL     1       0.094  14.575  21.841  0.00  0.00    +0.000 NA
ATOM     25  C   UNL     1      -0.698  13.621  22.373  0.00  0.00    +0.000 A 
ATOM     26  C   UNL     1      -0.549  12.269  22.124  0.00  0.00    +0.000 A 
ENDBRANCH   8  21
TORSDOF 3
ENDMDL
MODEL 8
REMARK VINA RESULT:      -7.2      4.514      9.818
REMARK  Name = 
REMARK  3 active torsions:
REMARK  status: ('A' for Active; 'I' for Inactive)
REMARK    1  A    between atoms: C_2  and  C_3
REMARK    2  A    between atoms: C_5  and  N_6
REMARK    3  A    between atoms: C_13  and  C_14
REMARK                            x       y       z     vdW  Elec       q    Type
REMARK                         _______ _______ _______ _____ _____    ______ ____
ROOT
ATOM      1  N   UNL     1       2.076   7.846  19.248  0.00  0.00    +0.000 N 
ATOM      2  C   UNL     1       2.090   8.660  18.140  0.00  0.00    +0.000 C 
ATOM      3  O   UNL     1       2.670   8.425  17.084  0.00  0.00    +0.000 OA
ATOM      4  N   UNL     1       1.321   9.794  18.219  0.00  0.00    +0.000 N 
ATOM      5  C   UNL     1       0.691  10.207  19.356  0.00  0.00    +0.000 A 
ATOM      6  N   UNL     1       0.852   9.725  20.566  0.00  0.00    +0.000 NA
ATOM      7  N   UNL     1      -0.003  10.306  21.462  0.00  0.00    +0.000 NA
ATOM      8  C   UNL     1      -0.809  11.180  20.887  0.00  0.00    +0.000 A 
ATOM      9  S   UNL     1      -0.476  11.427  19.208  0.00  0.00    +0.000 S 
ATOM     10  H   UNL     1       1.563   8.205  20.047  0.00  0.00    +0.000 HD
ATOM     11  H   UNL     1       1.195  10.310  17.362  0.00  0.00    +0.000 HD
ENDROOT
BRANCH   1  14
ATOM     12  C   UNL     1       4.423   4.949  19.224  0.00  0.00    +0.000 A 
ATOM     13  C   UNL     1       3.926   6.241  19.005  0.00  0.00    +0.000 A 
ATOM     14  C   UNL     1       2.648   6.582  19.431  0.00  0.00    +0.000 A 
ATOM     15  C   UNL     1       1.857   5.621  20.077  0.00  0.00    +0.000 A 
ATOM     16  C   UNL     1       2.343   4.331  20.292  0.00  0.00    +0.000 A 
ATOM     17  C   UNL     1       3.627   3.994  19.869  0.00  0.00    +0.000 A 
ATOM     18 CL   UNL     1       4.179   2.385  20.166  0.00  0.00    +0.000 Cl
BRANCH  12  20
ATOM     19  N   UNL     1       6.810   4.373  18.412  0.00  0.00    +0.000 NA
ATOM     20  C   UNL     1       5.745   4.645  18.779  0.00  0.00    +0.000 C 
ENDBRANCH  12  20
ENDBRANCH   1  14
BRANCH   8  21
ATOM     21  C   UNL     1      -1.865  11.895  21.598  0.00  0.00    +0.000 A 
ATOM     22  C   UNL     1      -2.737  12.711  20.869  0.00  0.00    +0.000 A 
ATOM     23  C   UNL     1      -3.720  13.406  21.547  0.00  0.00    +0.000 A 
ATOM     24  N   UNL     1      -3.883  13.350  22.884  0.00  0.00    +0.000 NA
ATOM     25  C   UNL     1      -3.021  12.575  23.574  0.00  0.00    +0.000 A 
ATOM     26  C   UNL     1      -2.007  11.839  22.986  0.00  0.00    +0.000 A 
ENDBRANCH   8  21
TORSDOF 3
ENDMDL
MODEL 9
REMARK VINA RESULT:      -7.2      3.819      9.048
REMARK  Name = 
REMARK  3 active torsions:
REMARK  status: ('A' for Active; 'I' for Inactive)
REMARK    1  A    between atoms: C_2  and  C_3
REMARK    2  A    between atoms: C_5  and  N_6
REMARK    3  A    between atoms: C_13  and  C_14
REMARK                            x       y       z     vdW  Elec       q    Type
REMARK                         _______ _______ _______ _____ _____    ______ ____
ROOT
ATOM      1  N   UNL     1       2.581   6.663  19.261  0.00  0.00    +0.000 N 
ATOM      2  C   UNL     1       2.058   6.276  20.472  0.00  0.00    +0.000 C 
ATOM      3  O   UNL     1       2.186   5.169  20.988  0.00  0.00    +0.000 OA
ATOM      4  N   UNL     1       1.400   7.250  21.180  0.00  0.00    +0.000 N 
ATOM      5  C   UNL     1       1.124   8.492  20.689  0.00  0.00    +0.000 A 
ATOM      6  N   UNL     1       1.260   8.896  19.448  0.00  0.00    +0.000 NA
ATOM      7  N   UNL     1       0.982  10.229  19.315  0.00  0.00    +0.000 NA
ATOM      8  C   UNL     1       0.684  10.793  20.470  0.00  0.00    +0.000 A 
ATOM      9  S   UNL     1       0.612   9.675  21.788  0.00  0.00    +0.000 S 
ATOM     10  H   UNL     1       2.358   7.611  18.972  0.00  0.00    +0.000 HD
ATOM     11  H   UNL     1       1.156   7.024  22.133  0.00  0.00    +0.000 HD
ENDROOT
BRANCH   1  14
ATOM     12  C   UNL     1       5.393   5.611  17.049  0.00  0.00    +0.000 A 
ATOM     13  C   UNL     1       4.641   6.386  17.944  0.00  0.00    +0.000 A 
ATOM     14  C   UNL     1       3.395   5.949  18.374  0.00  0.00    +0.000 A 
ATOM     15  C   UNL     1       2.891   4.728  17.901  0.00  0.00    +0.000 A 
ATOM     16  C   UNL     1       3.630   3.955  17.005  0.00  0.00    +0.000 A 
ATOM     17  C   UNL     1       4.883   4.394  16.580  0.00  0.00    +0.000 A 
ATOM     18 CL   UNL     1       5.756   3.395  15.476  0.00  0.00    +0.000 Cl
BRANCH  12  20
ATOM     19  N   UNL     1       7.702   6.494  16.288  0.00  0.00    +0.000 NA
ATOM     20  C   UNL     1       6.674   6.094  16.642  0.00  0.00    +0.000 C 
ENDBRANCH  12  20
ENDBRANCH   1  14
BRANCH   8  21
ATOM     21  C   UNL     1       0.412  12.220  20.627  0.00  0.00    +0.000 A 
ATOM     22  C   UNL     1      -0.103  12.679  21.845  0.00  0.00    +0.000 A 
ATOM     23  C   UNL     1      -0.382  14.025  21.982  0.00  0.00    +0.000 A 
ATOM     24  N   UNL     1      -0.195  14.928  20.999  0.00  0.00    +0.000 NA
ATOM     25  C   UNL     1       0.280  14.465  19.824  0.00  0.00    +0.000 A 
ATOM     26  C   UNL     1       0.594  13.137  19.591  0.00  0.00    +0.000 A 
ENDBRANCH   8  21
TORSDOF 3
ENDMDL
