MODEL 1
REMARK VINA RESULT:      -8.3      0.000      0.000
REMARK  Name = 
REMARK  5 active torsions:
REMARK  status: ('A' for Active; 'I' for Inactive)
REMARK    1  A    between atoms: C_1  and  C_2
REMARK    2  A    between atoms: C_2  and  O_3
REMARK    3  A    between atoms: O_3  and  C_4
REMARK    4  A    between atoms: C_4  and  C_6
REMARK    5  A    between atoms: C_15  and  N_16
REMARK                            x       y       z     vdW  Elec       q    Type
REMARK                         _______ _______ _______ _____ _____    ______ ____
ROOT
ATOM      1  C   UNL     1       6.799   5.284  16.729  0.00  0.00    +0.000 A 
ATOM      2  N   UNL     1       7.505   5.519  15.579  0.00  0.00    +0.000 NA
ATOM      3  C   UNL     1       7.058   4.916  14.473  0.00  0.00    +0.000 A 
ATOM      4  C   UNL     1       7.747   5.101  13.281  0.00  0.00    +0.000 A 
ATOM      5  C   UNL     1       7.336   4.483  12.103  0.00  0.00    +0.000 A 
ATOM      6  C   UNL     1       6.212   3.668  12.120  0.00  0.00    +0.000 A 
ATOM      7  C   UNL     1       5.512   3.480  13.316  0.00  0.00    +0.000 A 
ATOM      8  C   UNL     1       5.913   4.088  14.502  0.00  0.00    +0.000 A 
ATOM      9  N   UNL     1       5.220   3.885  15.648  0.00  0.00    +0.000 NA
ATOM     10  C   UNL     1       5.639   4.494  16.793  0.00  0.00    +0.000 A 
ENDROOT
BRANCH  10  11
ATOM     11  N   UNL     1       4.879   4.304  17.928  0.00  0.00    +0.000 N 
ATOM     12  C   UNL     1       5.307   3.459  19.029  0.00  0.00    +0.000 C 
ATOM     13  C   UNL     1       4.092   2.622  19.414  0.00  0.00    +0.000 C 
ATOM     14  C   UNL     1       2.876   3.408  18.938  0.00  0.00    +0.000 C 
ATOM     15  C   UNL     1       3.417   4.421  17.898  0.00  0.00    +0.000 C 
ATOM     16  O   UNL     1       1.927   2.521  18.317  0.00  0.00    +0.000 OA
ATOM     17  C   UNL     1       0.759   2.583  19.133  0.00  0.00    +0.000 C 
ATOM     18  C   UNL     1       0.851   3.927  19.802  0.00  0.00    +0.000 C 
ATOM     19  O   UNL     1       2.250   4.072  20.048  0.00  0.00    +0.000 OA
ENDBRANCH  10  11
BRANCH   1  20
ATOM     20  C   UNL     1       7.429   5.830  17.957  0.00  0.00    +0.000 C 
ATOM     21  O   UNL     1       8.013   5.174  18.810  0.00  0.00    +0.000 OA
BRANCH  20  22
ATOM     22  O   UNL     1       7.231   7.178  18.005  0.00  0.00    +0.000 OA
BRANCH  22  24
ATOM     23  C   UNL     1       8.226   9.364  17.940  0.00  0.00    +0.000 C 
ATOM     24  C   UNL     1       8.358   7.942  18.452  0.00  0.00    +0.000 C 
ENDBRANCH  22  24
ENDBRANCH  20  22
ENDBRANCH   1  20
TORSDOF 4
ENDMDL
MODEL 2
REMARK VINA RESULT:      -7.9      0.976      1.099
REMARK  Name = 
REMARK  5 active torsions:
REMARK  status: ('A' for Active; 'I' for Inactive)
REMARK    1  A    between atoms: C_1  and  C_2
REMARK    2  A    between atoms: C_2  and  O_3
REMARK    3  A    between atoms: O_3  and  C_4
REMARK    4  A    between atoms: C_4  and  C_6
REMARK    5  A    between atoms: C_15  and  N_16
REMARK                            x       y       z     vdW  Elec       q    Type
REMARK                         _______ _______ _______ _____ _____    ______ ____
ROOT
ATOM      1  C   UNL     1       6.776   4.951  16.683  0.00  0.00    +0.000 A 
ATOM      2  N   UNL     1       7.474   5.388  15.589  0.00  0.00    +0.000 NA
ATOM      3  C   UNL     1       7.103   4.887  14.407  0.00  0.00    +0.000 A 
ATOM      4  C   UNL     1       7.790   5.279  13.265  0.00  0.00    +0.000 A 
ATOM      5  C   UNL     1       7.457   4.774  12.010  0.00  0.00    +0.000 A 
ATOM      6  C   UNL     1       6.415   3.863  11.899  0.00  0.00    +0.000 A 
ATOM      7  C   UNL     1       5.719   3.467  13.045  0.00  0.00    +0.000 A 
ATOM      8  C   UNL     1       6.042   3.959  14.305  0.00  0.00    +0.000 A 
ATOM      9  N   UNL     1       5.353   3.554  15.400  0.00  0.00    +0.000 NA
ATOM     10  C   UNL     1       5.695   4.055  16.620  0.00  0.00    +0.000 A 
ENDROOT
BRANCH  10  11
ATOM     11  N   UNL     1       4.940   3.659  17.703  0.00  0.00    +0.000 N 
ATOM     12  C   UNL     1       4.234   2.390  17.748  0.00  0.00    +0.000 C 
ATOM     13  C   UNL     1       2.844   2.700  18.295  0.00  0.00    +0.000 C 
ATOM     14  C   UNL     1       2.986   3.997  19.084  0.00  0.00    +0.000 C 
ATOM     15  C   UNL     1       4.308   4.638  18.595  0.00  0.00    +0.000 C 
ATOM     16  O   UNL     1       1.878   4.871  18.801  0.00  0.00    +0.000 OA
ATOM     17  C   UNL     1       1.189   5.026  20.040  0.00  0.00    +0.000 C 
ATOM     18  C   UNL     1       2.243   4.759  21.080  0.00  0.00    +0.000 C 
ATOM     19  O   UNL     1       3.022   3.717  20.493  0.00  0.00    +0.000 OA
ENDBRANCH  10  11
BRANCH   1  20
ATOM     20  C   UNL     1       7.332   5.398  17.984  0.00  0.00    +0.000 C 
ATOM     21  O   UNL     1       7.911   4.686  18.794  0.00  0.00    +0.000 OA
BRANCH  20  22
ATOM     22  O   UNL     1       7.074   6.726  18.153  0.00  0.00    +0.000 OA
BRANCH  22  24
ATOM     23  C   UNL     1       8.017   8.912  17.829  0.00  0.00    +0.000 C 
ATOM     24  C   UNL     1       8.220   7.537  18.437  0.00  0.00    +0.000 C 
ENDBRANCH  22  24
ENDBRANCH  20  22
ENDBRANCH   1  20
TORSDOF 4
ENDMDL
MODEL 3
REMARK VINA RESULT:      -7.7      1.023      1.391
REMARK  Name = 
REMARK  5 active torsions:
REMARK  status: ('A' for Active; 'I' for Inactive)
REMARK    1  A    between atoms: C_1  and  C_2
REMARK    2  A    between atoms: C_2  and  O_3
REMARK    3  A    between atoms: O_3  and  C_4
REMARK    4  A    between atoms: C_4  and  C_6
REMARK    5  A    between atoms: C_15  and  N_16
REMARK                            x       y       z     vdW  Elec       q    Type
REMARK                         _______ _______ _______ _____ _____    ______ ____
ROOT
ATOM      1  C   UNL     1       6.278   5.289  16.529  0.00  0.00    +0.000 A 
ATOM      2  N   UNL     1       7.222   5.342  15.539  0.00  0.00    +0.000 NA
ATOM      3  C   UNL     1       6.878   4.819  14.359  0.00  0.00    +0.000 A 
ATOM      4  C   UNL     1       7.805   4.827  13.324  0.00  0.00    +0.000 A 
ATOM      5  C   UNL     1       7.505   4.279  12.078  0.00  0.00    +0.000 A 
ATOM      6  C   UNL     1       6.253   3.717  11.867  0.00  0.00    +0.000 A 
ATOM      7  C   UNL     1       5.315   3.709  12.905  0.00  0.00    +0.000 A 
ATOM      8  C   UNL     1       5.601   4.248  14.155  0.00  0.00    +0.000 A 
ATOM      9  N   UNL     1       4.675   4.222  15.144  0.00  0.00    +0.000 NA
ATOM     10  C   UNL     1       4.987   4.759  16.357  0.00  0.00    +0.000 A 
ENDROOT
BRANCH  10  11
ATOM     11  N   UNL     1       4.003   4.760  17.323  0.00  0.00    +0.000 N 
ATOM     12  C   UNL     1       3.712   5.919  18.148  0.00  0.00    +0.000 C 
ATOM     13  C   UNL     1       3.566   5.397  19.573  0.00  0.00    +0.000 C 
ATOM     14  C   UNL     1       3.197   3.923  19.441  0.00  0.00    +0.000 C 
ATOM     15  C   UNL     1       3.591   3.524  17.998  0.00  0.00    +0.000 C 
ATOM     16  O   UNL     1       3.942   3.140  20.392  0.00  0.00    +0.000 OA
ATOM     17  C   UNL     1       2.967   2.573  21.264  0.00  0.00    +0.000 C 
ATOM     18  C   UNL     1       1.712   2.537  20.436  0.00  0.00    +0.000 C 
ATOM     19  O   UNL     1       1.791   3.743  19.676  0.00  0.00    +0.000 OA
ENDBRANCH  10  11
BRANCH   1  20
ATOM     20  C   UNL     1       6.762   5.721  17.863  0.00  0.00    +0.000 C 
ATOM     21  O   UNL     1       7.008   4.981  18.806  0.00  0.00    +0.000 OA
BRANCH  20  22
ATOM     22  O   UNL     1       6.865   7.081  17.888  0.00  0.00    +0.000 OA
BRANCH  22  24
ATOM     23  C   UNL     1       8.234   9.054  17.942  0.00  0.00    +0.000 C 
ATOM     24  C   UNL     1       8.136   7.586  18.313  0.00  0.00    +0.000 C 
ENDBRANCH  22  24
ENDBRANCH  20  22
ENDBRANCH   1  20
TORSDOF 4
ENDMDL
MODEL 4
REMARK VINA RESULT:      -7.2      1.993      2.408
REMARK  Name = 
REMARK  5 active torsions:
REMARK  status: ('A' for Active; 'I' for Inactive)
REMARK    1  A    between atoms: C_1  and  C_2
REMARK    2  A    between atoms: C_2  and  O_3
REMARK    3  A    between atoms: O_3  and  C_4
REMARK    4  A    between atoms: C_4  and  C_6
REMARK    5  A    between atoms: C_15  and  N_16
REMARK                            x       y       z     vdW  Elec       q    Type
REMARK                         _______ _______ _______ _____ _____    ______ ____
ROOT
ATOM      1  C   UNL     1       6.601   5.611  16.241  0.00  0.00    +0.000 A 
ATOM      2  N   UNL     1       7.413   5.429  15.153  0.00  0.00    +0.000 NA
ATOM      3  C   UNL     1       6.881   4.772  14.119  0.00  0.00    +0.000 A 
ATOM      4  C   UNL     1       7.666   4.541  12.995  0.00  0.00    +0.000 A 
ATOM      5  C   UNL     1       7.169   3.846  11.895  0.00  0.00    +0.000 A 
ATOM      6  C   UNL     1       5.861   3.379  11.921  0.00  0.00    +0.000 A 
ATOM      7  C   UNL     1       5.067   3.611  13.048  0.00  0.00    +0.000 A 
ATOM      8  C   UNL     1       5.550   4.300  14.156  0.00  0.00    +0.000 A 
ATOM      9  N   UNL     1       4.759   4.507  15.236  0.00  0.00    +0.000 NA
ATOM     10  C   UNL     1       5.263   5.185  16.306  0.00  0.00    +0.000 A 
ENDROOT
BRANCH  10  11
ATOM     11  N   UNL     1       4.414   5.420  17.366  0.00  0.00    +0.000 N 
ATOM     12  C   UNL     1       3.384   4.480  17.773  0.00  0.00    +0.000 C 
ATOM     13  C   UNL     1       2.128   5.310  18.015  0.00  0.00    +0.000 C 
ATOM     14  C   UNL     1       2.613   6.725  18.310  0.00  0.00    +0.000 C 
ATOM     15  C   UNL     1       4.067   6.785  17.781  0.00  0.00    +0.000 C 
ATOM     16  O   UNL     1       1.794   7.683  17.615  0.00  0.00    +0.000 OA
ATOM     17  C   UNL     1       1.160   8.452  18.635  0.00  0.00    +0.000 C 
ATOM     18  C   UNL     1       2.086   8.330  19.814  0.00  0.00    +0.000 C 
ATOM     19  O   UNL     1       2.552   6.984  19.723  0.00  0.00    +0.000 OA
ENDBRANCH  10  11
BRANCH   1  20
ATOM     20  C   UNL     1       7.284   6.188  17.426  0.00  0.00    +0.000 C 
ATOM     21  O   UNL     1       7.259   5.724  18.559  0.00  0.00    +0.000 OA
BRANCH  20  22
ATOM     22  O   UNL     1       7.924   7.336  17.064  0.00  0.00    +0.000 OA
BRANCH  22  24
ATOM     23  C   UNL     1       8.524   9.391  18.155  0.00  0.00    +0.000 C 
ATOM     24  C   UNL     1       7.385   8.536  17.631  0.00  0.00    +0.000 C 
ENDBRANCH  22  24
ENDBRANCH  20  22
ENDBRANCH   1  20
TORSDOF 4
ENDMDL
MODEL 5
REMARK VINA RESULT:      -7.0      2.116      5.830
REMARK  Name = 
REMARK  5 active torsions:
REMARK  status: ('A' for Active; 'I' for Inactive)
REMARK    1  A    between atoms: C_1  and  C_2
REMARK    2  A    between atoms: C_2  and  O_3
REMARK    3  A    between atoms: O_3  and  C_4
REMARK    4  A    between atoms: C_4  and  C_6
REMARK    5  A    between atoms: C_15  and  N_16
REMARK                            x       y       z     vdW  Elec       q    Type
REMARK                         _______ _______ _______ _____ _____    ______ ____
ROOT
ATOM      1  C   UNL     1       5.625   4.375  18.429  0.00  0.00    +0.000 A 
ATOM      2  N   UNL     1       5.035   4.061  19.624  0.00  0.00    +0.000 NA
ATOM      3  C   UNL     1       3.770   3.634  19.569  0.00  0.00    +0.000 A 
ATOM      4  C   UNL     1       3.114   3.321  20.753  0.00  0.00    +0.000 A 
ATOM      5  C   UNL     1       1.790   2.888  20.755  0.00  0.00    +0.000 A 
ATOM      6  C   UNL     1       1.114   2.764  19.549  0.00  0.00    +0.000 A 
ATOM      7  C   UNL     1       1.771   3.075  18.354  0.00  0.00    +0.000 A 
ATOM      8  C   UNL     1       3.091   3.512  18.336  0.00  0.00    +0.000 A 
ATOM      9  N   UNL     1       3.701   3.811  17.163  0.00  0.00    +0.000 NA
ATOM     10  C   UNL     1       4.996   4.237  17.180  0.00  0.00    +0.000 A 
ENDROOT
BRANCH  10  11
ATOM     11  N   UNL     1       5.599   4.484  15.965  0.00  0.00    +0.000 N 
ATOM     12  C   UNL     1       5.590   5.791  15.333  0.00  0.00    +0.000 C 
ATOM     13  C   UNL     1       5.252   5.548  13.866  0.00  0.00    +0.000 C 
ATOM     14  C   UNL     1       5.653   4.105  13.580  0.00  0.00    +0.000 C 
ATOM     15  C   UNL     1       5.767   3.423  14.965  0.00  0.00    +0.000 C 
ATOM     16  O   UNL     1       4.636   3.458  12.792  0.00  0.00    +0.000 OA
ATOM     17  C   UNL     1       5.266   3.129  11.556  0.00  0.00    +0.000 C 
ATOM     18  C   UNL     1       6.726   3.032  11.903  0.00  0.00    +0.000 C 
ATOM     19  O   UNL     1       6.900   4.070  12.867  0.00  0.00    +0.000 OA
ENDBRANCH  10  11
BRANCH   1  20
ATOM     20  C   UNL     1       6.963   5.006  18.553  0.00  0.00    +0.000 C 
ATOM     21  O   UNL     1       8.030   4.410  18.602  0.00  0.00    +0.000 OA
BRANCH  20  22
ATOM     22  O   UNL     1       6.818   6.360  18.631  0.00  0.00    +0.000 OA
BRANCH  22  24
ATOM     23  C   UNL     1       7.737   8.337  17.622  0.00  0.00    +0.000 C 
ATOM     24  C   UNL     1       8.027   7.111  18.468  0.00  0.00    +0.000 C 
ENDBRANCH  22  24
ENDBRANCH  20  22
ENDBRANCH   1  20
TORSDOF 4
ENDMDL
MODEL 6
REMARK VINA RESULT:      -6.9      3.676      7.636
REMARK  Name = 
REMARK  5 active torsions:
REMARK  status: ('A' for Active; 'I' for Inactive)
REMARK    1  A    between atoms: C_1  and  C_2
REMARK    2  A    between atoms: C_2  and  O_3
REMARK    3  A    between atoms: O_3  and  C_4
REMARK    4  A    between atoms: C_4  and  C_6
REMARK    5  A    between atoms: C_15  and  N_16
REMARK                            x       y       z     vdW  Elec       q    Type
REMARK                         _______ _______ _______ _____ _____    ______ ____
ROOT
ATOM      1  C   UNL     1       1.953   6.327  20.143  0.00  0.00    +0.000 A 
ATOM      2  N   UNL     1       1.241   6.992  21.105  0.00  0.00    +0.000 NA
ATOM      3  C   UNL     1       0.975   8.279  20.865  0.00  0.00    +0.000 A 
ATOM      4  C   UNL     1       0.273   9.010  21.816  0.00  0.00    +0.000 A 
ATOM      5  C   UNL     1      -0.016  10.359  21.626  0.00  0.00    +0.000 A 
ATOM      6  C   UNL     1       0.402  10.985  20.459  0.00  0.00    +0.000 A 
ATOM      7  C   UNL     1       1.107  10.254  19.497  0.00  0.00    +0.000 A 
ATOM      8  C   UNL     1       1.407   8.907  19.675  0.00  0.00    +0.000 A 
ATOM      9  N   UNL     1       2.095   8.224  18.728  0.00  0.00    +0.000 NA
ATOM     10  C   UNL     1       2.373   6.906  18.933  0.00  0.00    +0.000 A 
ENDROOT
BRANCH  10  11
ATOM     11  N   UNL     1       3.030   6.231  17.926  0.00  0.00    +0.000 N 
ATOM     12  C   UNL     1       2.620   4.918  17.462  0.00  0.00    +0.000 C 
ATOM     13  C   UNL     1       3.899   4.096  17.338  0.00  0.00    +0.000 C 
ATOM     14  C   UNL     1       5.028   5.106  17.166  0.00  0.00    +0.000 C 
ATOM     15  C   UNL     1       4.454   6.459  17.656  0.00  0.00    +0.000 C 
ATOM     16  O   UNL     1       6.157   4.726  17.975  0.00  0.00    +0.000 OA
ATOM     17  C   UNL     1       7.212   4.460  17.053  0.00  0.00    +0.000 C 
ATOM     18  C   UNL     1       6.853   5.274  15.840  0.00  0.00    +0.000 C 
ATOM     19  O   UNL     1       5.430   5.168  15.788  0.00  0.00    +0.000 OA
ENDBRANCH  10  11
BRANCH   1  20
ATOM     20  C   UNL     1       2.373   4.957  20.528  0.00  0.00    +0.000 C 
ATOM     21  O   UNL     1       3.529   4.577  20.662  0.00  0.00    +0.000 OA
BRANCH  20  22
ATOM     22  O   UNL     1       1.268   4.173  20.684  0.00  0.00    +0.000 OA
BRANCH  22  24
ATOM     23  C   UNL     1       0.734   2.430  19.119  0.00  0.00    +0.000 C 
ATOM     24  C   UNL     1       1.465   2.782  20.401  0.00  0.00    +0.000 C 
ENDBRANCH  22  24
ENDBRANCH  20  22
ENDBRANCH   1  20
TORSDOF 4
ENDMDL
MODEL 7
REMARK VINA RESULT:      -6.8      3.405      5.965
REMARK  Name = 
REMARK  5 active torsions:
REMARK  status: ('A' for Active; 'I' for Inactive)
REMARK    1  A    between atoms: C_1  and  C_2
REMARK    2  A    between atoms: C_2  and  O_3
REMARK    3  A    between atoms: O_3  and  C_4
REMARK    4  A    between atoms: C_4  and  C_6
REMARK    5  A    between atoms: C_15  and  N_16
REMARK                            x       y       z     vdW  Elec       q    Type
REMARK                         _______ _______ _______ _____ _____    ______ ____
ROOT
ATOM      1  C   UNL     1       2.856   5.137  18.081  0.00  0.00    +0.000 A 
ATOM      2  N   UNL     1       3.898   4.356  17.658  0.00  0.00    +0.000 NA
ATOM      3  C   UNL     1       5.051   4.985  17.411  0.00  0.00    +0.000 A 
ATOM      4  C   UNL     1       6.137   4.246  16.959  0.00  0.00    +0.000 A 
ATOM      5  C   UNL     1       7.357   4.853  16.669  0.00  0.00    +0.000 A 
ATOM      6  C   UNL     1       7.490   6.224  16.840  0.00  0.00    +0.000 A 
ATOM      7  C   UNL     1       6.401   6.973  17.298  0.00  0.00    +0.000 A 
ATOM      8  C   UNL     1       5.176   6.382  17.587  0.00  0.00    +0.000 A 
ATOM      9  N   UNL     1       4.136   7.132  18.025  0.00  0.00    +0.000 NA
ATOM     10  C   UNL     1       2.948   6.522  18.299  0.00  0.00    +0.000 A 
ENDROOT
BRANCH  10  11
ATOM     11  N   UNL     1       1.929   7.310  18.790  0.00  0.00    +0.000 N 
ATOM     12  C   UNL     1       1.550   8.575  18.184  0.00  0.00    +0.000 C 
ATOM     13  C   UNL     1       1.375   9.558  19.337  0.00  0.00    +0.000 C 
ATOM     14  C   UNL     1       1.082   8.708  20.569  0.00  0.00    +0.000 C 
ATOM     15  C   UNL     1       1.551   7.277  20.208  0.00  0.00    +0.000 C 
ATOM     16  O   UNL     1       1.827   9.203  21.698  0.00  0.00    +0.000 OA
ATOM     17  C   UNL     1       0.847   9.634  22.640  0.00  0.00    +0.000 C 
ATOM     18  C   UNL     1      -0.371   8.822  22.298  0.00  0.00    +0.000 C 
ATOM     19  O   UNL     1      -0.322   8.745  20.873  0.00  0.00    +0.000 OA
ENDBRANCH  10  11
BRANCH   1  20
ATOM     20  C   UNL     1       1.556   4.427  18.175  0.00  0.00    +0.000 C 
ATOM     21  O   UNL     1       0.830   4.143  17.231  0.00  0.00    +0.000 OA
BRANCH  20  22
ATOM     22  O   UNL     1       1.279   4.163  19.484  0.00  0.00    +0.000 OA
BRANCH  22  24
ATOM     23  C   UNL     1       1.443   2.709  21.390  0.00  0.00    +0.000 C 
ATOM     24  C   UNL     1       1.443   2.794  19.875  0.00  0.00    +0.000 C 
ENDBRANCH  22  24
ENDBRANCH  20  22
ENDBRANCH   1  20
TORSDOF 4
ENDMDL
MODEL 8
REMARK VINA RESULT:      -6.8      0.962      1.299
REMARK  Name = 
REMARK  5 active torsions:
REMARK  status: ('A' for Active; 'I' for Inactive)
REMARK    1  A    between atoms: C_1  and  C_2
REMARK    2  A    between atoms: C_2  and  O_3
REMARK    3  A    between atoms: O_3  and  C_4
REMARK    4  A    between atoms: C_4  and  C_6
REMARK    5  A    between atoms: C_15  and  N_16
REMARK                            x       y       z     vdW  Elec       q    Type
REMARK                         _______ _______ _______ _____ _____    ______ ____
ROOT
ATOM      1  C   UNL     1       6.273   5.699  16.051  0.00  0.00    +0.000 A 
ATOM      2  N   UNL     1       6.949   5.903  14.877  0.00  0.00    +0.000 NA
ATOM      3  C   UNL     1       6.785   4.978  13.928  0.00  0.00    +0.000 A 
ATOM      4  C   UNL     1       7.463   5.122  12.724  0.00  0.00    +0.000 A 
ATOM      5  C   UNL     1       7.343   4.178  11.706  0.00  0.00    +0.000 A 
ATOM      6  C   UNL     1       6.524   3.073  11.899  0.00  0.00    +0.000 A 
ATOM      7  C   UNL     1       5.837   2.924  13.108  0.00  0.00    +0.000 A 
ATOM      8  C   UNL     1       5.951   3.856  14.134  0.00  0.00    +0.000 A 
ATOM      9  N   UNL     1       5.277   3.684  15.297  0.00  0.00    +0.000 NA
ATOM     10  C   UNL     1       5.410   4.614  16.284  0.00  0.00    +0.000 A 
ENDROOT
BRANCH  10  11
ATOM     11  N   UNL     1       4.670   4.432  17.433  0.00  0.00    +0.000 N 
ATOM     12  C   UNL     1       5.219   3.828  18.634  0.00  0.00    +0.000 C 
ATOM     13  C   UNL     1       4.171   2.835  19.124  0.00  0.00    +0.000 C 
ATOM     14  C   UNL     1       2.843   3.313  18.548  0.00  0.00    +0.000 C 
ATOM     15  C   UNL     1       3.212   4.268  17.387  0.00  0.00    +0.000 C 
ATOM     16  O   UNL     1       2.090   2.192  18.047  0.00  0.00    +0.000 OA
ATOM     17  C   UNL     1       0.911   2.138  18.846  0.00  0.00    +0.000 C 
ATOM     18  C   UNL     1       0.736   3.549  19.336  0.00  0.00    +0.000 C 
ATOM     19  O   UNL     1       2.077   3.983  19.563  0.00  0.00    +0.000 OA
ENDBRANCH  10  11
BRANCH   1  20
ATOM     20  C   UNL     1       6.620   6.654  17.133  0.00  0.00    +0.000 C 
ATOM     21  O   UNL     1       5.875   7.510  17.593  0.00  0.00    +0.000 OA
BRANCH  20  22
ATOM     22  O   UNL     1       7.911   6.449  17.519  0.00  0.00    +0.000 OA
BRANCH  22  24
ATOM     23  C   UNL     1       8.008   5.622  19.773  0.00  0.00    +0.000 C 
ATOM     24  C   UNL     1       8.208   6.825  18.869  0.00  0.00    +0.000 C 
ENDBRANCH  22  24
ENDBRANCH  20  22
ENDBRANCH   1  20
TORSDOF 4
ENDMDL
MODEL 9
REMARK VINA RESULT:      -6.7      1.299      1.948
REMARK  Name = 
REMARK  5 active torsions:
REMARK  status: ('A' for Active; 'I' for Inactive)
REMARK    1  A    between atoms: C_1  and  C_2
REMARK    2  A    between atoms: C_2  and  O_3
REMARK    3  A    between atoms: O_3  and  C_4
REMARK    4  A    between atoms: C_4  and  C_6
REMARK    5  A    between atoms: C_15  and  N_16
REMARK                            x       y       z     vdW  Elec       q    Type
REMARK                         _______ _______ _______ _____ _____    ______ ____
ROOT
ATOM      1  C   UNL     1       5.763   4.987  16.718  0.00  0.00    +0.000 A 
ATOM      2  N   UNL     1       6.698   5.514  15.868  0.00  0.00    +0.000 NA
ATOM      3  C   UNL     1       6.741   4.997  14.637  0.00  0.00    +0.000 A 
ATOM      4  C   UNL     1       7.685   5.479  13.738  0.00  0.00    +0.000 A 
ATOM      5  C   UNL     1       7.786   4.964  12.448  0.00  0.00    +0.000 A 
ATOM      6  C   UNL     1       6.922   3.951  12.051  0.00  0.00    +0.000 A 
ATOM      7  C   UNL     1       5.969   3.464  12.951  0.00  0.00    +0.000 A 
ATOM      8  C   UNL     1       5.859   3.965  14.244  0.00  0.00    +0.000 A 
ATOM      9  N   UNL     1       4.929   3.471  15.097  0.00  0.00    +0.000 NA
ATOM     10  C   UNL     1       4.847   3.984  16.357  0.00  0.00    +0.000 A 
ENDROOT
BRANCH  10  11
ATOM     11  N   UNL     1       3.856   3.492  17.179  0.00  0.00    +0.000 N 
ATOM     12  C   UNL     1       2.442   3.691  16.913  0.00  0.00    +0.000 C 
ATOM     13  C   UNL     1       1.814   4.093  18.243  0.00  0.00    +0.000 C 
ATOM     14  C   UNL     1       2.744   3.549  19.323  0.00  0.00    +0.000 C 
ATOM     15  C   UNL     1       4.090   3.269  18.611  0.00  0.00    +0.000 C 
ATOM     16  O   UNL     1       2.927   4.534  20.358  0.00  0.00    +0.000 OA
ATOM     17  C   UNL     1       2.379   3.952  21.538  0.00  0.00    +0.000 C 
ATOM     18  C   UNL     1       2.471   2.471  21.293  0.00  0.00    +0.000 C 
ATOM     19  O   UNL     1       2.189   2.355  19.898  0.00  0.00    +0.000 OA
ENDBRANCH  10  11
BRANCH   1  20
ATOM     20  C   UNL     1       5.867   5.467  18.119  0.00  0.00    +0.000 C 
ATOM     21  O   UNL     1       5.096   6.246  18.664  0.00  0.00    +0.000 OA
BRANCH  20  22
ATOM     22  O   UNL     1       6.976   4.926  18.700  0.00  0.00    +0.000 OA
BRANCH  22  24
ATOM     23  C   UNL     1       8.194   6.995  18.620  0.00  0.00    +0.000 C 
ATOM     24  C   UNL     1       7.751   5.835  19.491  0.00  0.00    +0.000 C 
ENDBRANCH  22  24
ENDBRANCH  20  22
ENDBRANCH   1  20
TORSDOF 4
ENDMDL
