MODEL 1
REMARK VINA RESULT:      -7.8      0.000      0.000
REMARK  Name = 
REMARK  5 active torsions:
REMARK  status: ('A' for Active; 'I' for Inactive)
REMARK    1  A    between atoms: C_1  and  N_2
REMARK    2  A    between atoms: N_6  and  C_7
REMARK    3  A    between atoms: C_7  and  C_8
REMARK    4  A    between atoms: C_8  and  C_9
REMARK    5  A    between atoms: C_22  and  O_23
REMARK                            x       y       z     vdW  Elec       q    Type
REMARK                         _______ _______ _______ _____ _____    ______ ____
ROOT
ATOM      1  C   UNL     1      -0.969  12.325  22.995  0.00  0.00    +0.000 C 
ATOM      2  N   UNL     1      -1.386  11.965  21.642  0.00  0.00    +0.000 N 
ATOM      3  C   UNL     1      -0.497  11.224  20.884  0.00  0.00    +0.000 C 
ATOM      4  O   UNL     1       0.576  10.853  21.352  0.00  0.00    +0.000 OA
ATOM      5  C   UNL     1      -0.880  10.880  19.429  0.00  0.00    +0.000 C 
ATOM      6  N   UNL     1      -0.051  10.282  18.632  0.00  0.00    +0.000 NA
ATOM      7  C   UNL     1      -2.264  11.266  18.936  0.00  0.00    +0.000 A 
ATOM      8  C   UNL     1      -2.746  10.931  17.604  0.00  0.00    +0.000 A 
ATOM      9  C   UNL     1      -2.025  10.207  16.605  0.00  0.00    +0.000 A 
ATOM     10  C   UNL     1      -2.523   9.911  15.333  0.00  0.00    +0.000 A 
ATOM     11  C   UNL     1      -3.788  10.325  14.987  0.00  0.00    +0.000 A 
ATOM     12  C   UNL     1      -4.540  11.030  15.919  0.00  0.00    +0.000 A 
ATOM     13  C   UNL     1      -4.055  11.342  17.222  0.00  0.00    +0.000 A 
ATOM     14  C   UNL     1      -4.837  12.053  18.158  0.00  0.00    +0.000 A 
ATOM     15  C   UNL     1      -4.376  12.375  19.449  0.00  0.00    +0.000 A 
ATOM     16  C   UNL     1      -5.213  13.084  20.337  0.00  0.00    +0.000 A 
ATOM     17  C   UNL     1      -4.801  13.420  21.613  0.00  0.00    +0.000 A 
ATOM     18  C   UNL     1      -3.534  13.050  22.024  0.00  0.00    +0.000 A 
ATOM     19  C   UNL     1      -2.668  12.338  21.170  0.00  0.00    +0.000 A 
ATOM     20  C   UNL     1      -3.076  11.984  19.857  0.00  0.00    +0.000 A 
ENDROOT
BRANCH  14  21
ATOM     21  O   UNL     1      -6.117  12.484  17.864  0.00  0.00    +0.000 OA
ATOM     22  H   UNL     1      -6.513  11.960  17.157  0.00  0.00    +0.000 HD
ENDBRANCH  14  21
BRANCH   6  23
ATOM     23  C   UNL     1       1.281   9.863  19.067  0.00  0.00    +0.000 C 
BRANCH  23  24
ATOM     24  C   UNL     1       1.962   9.027  17.980  0.00  0.00    +0.000 C 
BRANCH  24  25
ATOM     25  C   UNL     1       2.401   7.692  18.543  0.00  0.00    +0.000 A 
ATOM     26  C   UNL     1       3.120   6.790  17.749  0.00  0.00    +0.000 A 
ATOM     27  C   UNL     1       3.453   5.524  18.237  0.00  0.00    +0.000 A 
ATOM     28  C   UNL     1       3.068   5.148  19.522  0.00  0.00    +0.000 A 
ATOM     29  C   UNL     1       2.352   6.038  20.321  0.00  0.00    +0.000 A 
ATOM     30  C   UNL     1       2.018   7.303  19.835  0.00  0.00    +0.000 A 
ENDBRANCH  24  25
ENDBRANCH  23  24
ENDBRANCH   6  23
TORSDOF 4
ENDMDL
MODEL 2
REMARK VINA RESULT:      -7.7      1.515      4.245
REMARK  Name = 
REMARK  5 active torsions:
REMARK  status: ('A' for Active; 'I' for Inactive)
REMARK    1  A    between atoms: C_1  and  N_2
REMARK    2  A    between atoms: N_6  and  C_7
REMARK    3  A    between atoms: C_7  and  C_8
REMARK    4  A    between atoms: C_8  and  C_9
REMARK    5  A    between atoms: C_22  and  O_23
REMARK                            x       y       z     vdW  Elec       q    Type
REMARK                         _______ _______ _______ _____ _____    ______ ____
ROOT
ATOM      1  C   UNL     1      -2.694   9.885  16.060  0.00  0.00    +0.000 C 
ATOM      2  N   UNL     1      -2.616  10.552  17.357  0.00  0.00    +0.000 N 
ATOM      3  C   UNL     1      -1.436  10.414  18.067  0.00  0.00    +0.000 C 
ATOM      4  O   UNL     1      -0.486   9.793  17.599  0.00  0.00    +0.000 OA
ATOM      5  C   UNL     1      -1.343  11.054  19.468  0.00  0.00    +0.000 C 
ATOM      6  N   UNL     1      -0.308  10.875  20.229  0.00  0.00    +0.000 NA
ATOM      7  C   UNL     1      -2.504  11.906  19.952  0.00  0.00    +0.000 A 
ATOM      8  C   UNL     1      -2.487  12.605  21.229  0.00  0.00    +0.000 A 
ATOM      9  C   UNL     1      -1.416  12.606  22.175  0.00  0.00    +0.000 A 
ATOM     10  C   UNL     1      -1.443  13.287  23.395  0.00  0.00    +0.000 A 
ATOM     11  C   UNL     1      -2.556  14.017  23.740  0.00  0.00    +0.000 A 
ATOM     12  C   UNL     1      -3.630  14.058  22.858  0.00  0.00    +0.000 A 
ATOM     13  C   UNL     1      -3.625  13.374  21.608  0.00  0.00    +0.000 A 
ATOM     14  C   UNL     1      -4.723  13.433  20.721  0.00  0.00    +0.000 A 
ATOM     15  C   UNL     1      -4.739  12.762  19.483  0.00  0.00    +0.000 A 
ATOM     16  C   UNL     1      -5.868  12.868  18.642  0.00  0.00    +0.000 A 
ATOM     17  C   UNL     1      -5.927  12.227  17.420  0.00  0.00    +0.000 A 
ATOM     18  C   UNL     1      -4.850  11.462  17.014  0.00  0.00    +0.000 A 
ATOM     19  C   UNL     1      -3.701  11.332  17.823  0.00  0.00    +0.000 A 
ATOM     20  C   UNL     1      -3.625  11.985  19.080  0.00  0.00    +0.000 A 
ENDROOT
BRANCH  14  21
ATOM     21  O   UNL     1      -5.861  14.159  21.015  0.00  0.00    +0.000 OA
ATOM     22  H   UNL     1      -5.812  14.553  21.894  0.00  0.00    +0.000 HD
ENDBRANCH  14  21
BRANCH   6  23
ATOM     23  C   UNL     1       0.848  10.089  19.798  0.00  0.00    +0.000 C 
BRANCH  23  24
ATOM     24  C   UNL     1       1.113   8.943  20.778  0.00  0.00    +0.000 C 
BRANCH  24  25
ATOM     25  C   UNL     1       1.751   7.775  20.058  0.00  0.00    +0.000 A 
ATOM     26  C   UNL     1       2.281   7.940  18.771  0.00  0.00    +0.000 A 
ATOM     27  C   UNL     1       2.794   6.846  18.071  0.00  0.00    +0.000 A 
ATOM     28  C   UNL     1       2.780   5.578  18.647  0.00  0.00    +0.000 A 
ATOM     29  C   UNL     1       2.255   5.402  19.927  0.00  0.00    +0.000 A 
ATOM     30  C   UNL     1       1.741   6.494  20.629  0.00  0.00    +0.000 A 
ENDBRANCH  24  25
ENDBRANCH  23  24
ENDBRANCH   6  23
TORSDOF 4
ENDMDL
MODEL 3
REMARK VINA RESULT:      -7.7      1.160      1.851
REMARK  Name = 
REMARK  5 active torsions:
REMARK  status: ('A' for Active; 'I' for Inactive)
REMARK    1  A    between atoms: C_1  and  N_2
REMARK    2  A    between atoms: N_6  and  C_7
REMARK    3  A    between atoms: C_7  and  C_8
REMARK    4  A    between atoms: C_8  and  C_9
REMARK    5  A    between atoms: C_22  and  O_23
REMARK                            x       y       z     vdW  Elec       q    Type
REMARK                         _______ _______ _______ _____ _____    ______ ____
ROOT
ATOM      1  C   UNL     1      -2.680  13.690  23.679  0.00  0.00    +0.000 C 
ATOM      2  N   UNL     1      -2.749  13.108  22.341  0.00  0.00    +0.000 N 
ATOM      3  C   UNL     1      -1.651  12.385  21.911  0.00  0.00    +0.000 C 
ATOM      4  O   UNL     1      -0.683  12.208  22.646  0.00  0.00    +0.000 OA
ATOM      5  C   UNL     1      -1.664  11.810  20.479  0.00  0.00    +0.000 C 
ATOM      6  N   UNL     1      -0.628  11.214  19.976  0.00  0.00    +0.000 NA
ATOM      7  C   UNL     1      -2.929  11.961  19.652  0.00  0.00    +0.000 A 
ATOM      8  C   UNL     1      -3.068  11.398  18.316  0.00  0.00    +0.000 A 
ATOM      9  C   UNL     1      -2.079  10.641  17.615  0.00  0.00    +0.000 A 
ATOM     10  C   UNL     1      -2.251  10.123  16.328  0.00  0.00    +0.000 A 
ATOM     11  C   UNL     1      -3.436  10.335  15.664  0.00  0.00    +0.000 A 
ATOM     12  C   UNL     1      -4.437  11.062  16.296  0.00  0.00    +0.000 A 
ATOM     13  C   UNL     1      -4.288  11.598  17.608  0.00  0.00    +0.000 A 
ATOM     14  C   UNL     1      -5.319  12.329  18.237  0.00  0.00    +0.000 A 
ATOM     15  C   UNL     1      -5.191  12.869  19.531  0.00  0.00    +0.000 A 
ATOM     16  C   UNL     1      -6.264  13.585  20.103  0.00  0.00    +0.000 A 
ATOM     17  C   UNL     1      -6.182  14.132  21.369  0.00  0.00    +0.000 A 
ATOM     18  C   UNL     1      -5.013  13.972  22.090  0.00  0.00    +0.000 A 
ATOM     19  C   UNL     1      -3.918  13.261  21.558  0.00  0.00    +0.000 A 
ATOM     20  C   UNL     1      -3.987  12.693  20.260  0.00  0.00    +0.000 A 
ENDROOT
BRANCH  14  21
ATOM     21  O   UNL     1      -6.532  12.562  17.617  0.00  0.00    +0.000 OA
ATOM     22  H   UNL     1      -6.545  13.420  17.177  0.00  0.00    +0.000 HD
ENDBRANCH  14  21
BRANCH   6  23
ATOM     23  C   UNL     1       0.603  11.017  20.741  0.00  0.00    +0.000 C 
BRANCH  23  24
ATOM     24  C   UNL     1       0.729   9.557  21.187  0.00  0.00    +0.000 C 
BRANCH  24  25
ATOM     25  C   UNL     1       1.352   8.726  20.087  0.00  0.00    +0.000 A 
ATOM     26  C   UNL     1       1.868   7.453  20.367  0.00  0.00    +0.000 A 
ATOM     27  C   UNL     1       2.519   6.718  19.374  0.00  0.00    +0.000 A 
ATOM     28  C   UNL     1       2.664   7.248  18.093  0.00  0.00    +0.000 A 
ATOM     29  C   UNL     1       2.156   8.514  17.804  0.00  0.00    +0.000 A 
ATOM     30  C   UNL     1       1.505   9.250  18.796  0.00  0.00    +0.000 A 
ENDBRANCH  24  25
ENDBRANCH  23  24
ENDBRANCH   6  23
TORSDOF 4
ENDMDL
MODEL 4
REMARK VINA RESULT:      -7.7      2.546      8.326
REMARK  Name = 
REMARK  5 active torsions:
REMARK  status: ('A' for Active; 'I' for Inactive)
REMARK    1  A    between atoms: C_1  and  N_2
REMARK    2  A    between atoms: N_6  and  C_7
REMARK    3  A    between atoms: C_7  and  C_8
REMARK    4  A    between atoms: C_8  and  C_9
REMARK    5  A    between atoms: C_22  and  O_23
REMARK                            x       y       z     vdW  Elec       q    Type
REMARK                         _______ _______ _______ _____ _____    ______ ____
ROOT
ATOM      1  C   UNL     1      -3.412  10.256  16.052  0.00  0.00    +0.000 C 
ATOM      2  N   UNL     1      -3.307  10.898  17.360  0.00  0.00    +0.000 N 
ATOM      3  C   UNL     1      -4.435  11.541  17.838  0.00  0.00    +0.000 C 
ATOM      4  O   UNL     1      -5.486  11.529  17.204  0.00  0.00    +0.000 OA
ATOM      5  C   UNL     1      -4.340  12.284  19.188  0.00  0.00    +0.000 C 
ATOM      6  N   UNL     1      -5.326  12.994  19.643  0.00  0.00    +0.000 NA
ATOM      7  C   UNL     1      -3.052  12.173  19.985  0.00  0.00    +0.000 A 
ATOM      8  C   UNL     1      -2.884  12.781  21.297  0.00  0.00    +0.000 A 
ATOM      9  C   UNL     1      -3.869  13.532  22.010  0.00  0.00    +0.000 A 
ATOM     10  C   UNL     1      -3.665  14.104  23.268  0.00  0.00    +0.000 A 
ATOM     11  C   UNL     1      -2.449  13.954  23.892  0.00  0.00    +0.000 A 
ATOM     12  C   UNL     1      -1.452  13.229  23.250  0.00  0.00    +0.000 A 
ATOM     13  C   UNL     1      -1.636  12.634  21.969  0.00  0.00    +0.000 A 
ATOM     14  C   UNL     1      -0.613  11.895  21.335  0.00  0.00    +0.000 A 
ATOM     15  C   UNL     1      -0.774  11.302  20.068  0.00  0.00    +0.000 A 
ATOM     16  C   UNL     1       0.289  10.572  19.495  0.00  0.00    +0.000 A 
ATOM     17  C   UNL     1       0.174   9.974  18.255  0.00  0.00    +0.000 A 
ATOM     18  C   UNL     1      -1.015  10.097  17.561  0.00  0.00    +0.000 A 
ATOM     19  C   UNL     1      -2.103  10.815  18.099  0.00  0.00    +0.000 A 
ATOM     20  C   UNL     1      -2.002  11.434  19.372  0.00  0.00    +0.000 A 
ENDROOT
BRANCH  14  21
ATOM     21  O   UNL     1       0.623  11.707  21.923  0.00  0.00    +0.000 OA
ATOM     22  H   UNL     1       0.604  10.985  22.563  0.00  0.00    +0.000 HD
ENDBRANCH  14  21
BRANCH   6  23
ATOM     23  C   UNL     1      -6.597  13.108  18.929  0.00  0.00    +0.000 C 
BRANCH  23  24
ATOM     24  C   UNL     1      -7.733  12.497  19.754  0.00  0.00    +0.000 C 
BRANCH  24  25
ATOM     25  C   UNL     1      -7.661  12.984  21.185  0.00  0.00    +0.000 A 
ATOM     26  C   UNL     1      -7.443  12.078  22.232  0.00  0.00    +0.000 A 
ATOM     27  C   UNL     1      -7.460  12.512  23.559  0.00  0.00    +0.000 A 
ATOM     28  C   UNL     1      -7.698  13.852  23.854  0.00  0.00    +0.000 A 
ATOM     29  C   UNL     1      -7.916  14.762  22.820  0.00  0.00    +0.000 A 
ATOM     30  C   UNL     1      -7.900  14.331  21.493  0.00  0.00    +0.000 A 
ENDBRANCH  24  25
ENDBRANCH  23  24
ENDBRANCH   6  23
TORSDOF 4
ENDMDL
MODEL 5
REMARK VINA RESULT:      -7.7      2.714      7.242
REMARK  Name = 
REMARK  5 active torsions:
REMARK  status: ('A' for Active; 'I' for Inactive)
REMARK    1  A    between atoms: C_1  and  N_2
REMARK    2  A    between atoms: N_6  and  C_7
REMARK    3  A    between atoms: C_7  and  C_8
REMARK    4  A    between atoms: C_8  and  C_9
REMARK    5  A    between atoms: C_22  and  O_23
REMARK                            x       y       z     vdW  Elec       q    Type
REMARK                         _______ _______ _______ _____ _____    ______ ____
ROOT
ATOM      1  C   UNL     1       0.648  10.886  20.844  0.00  0.00    +0.000 C 
ATOM      2  N   UNL     1      -0.704  11.345  20.536  0.00  0.00    +0.000 N 
ATOM      3  C   UNL     1      -1.318  12.167  21.465  0.00  0.00    +0.000 C 
ATOM      4  O   UNL     1      -0.726  12.526  22.480  0.00  0.00    +0.000 OA
ATOM      5  C   UNL     1      -2.770  12.619  21.201  0.00  0.00    +0.000 C 
ATOM      6  N   UNL     1      -3.439  13.301  22.077  0.00  0.00    +0.000 NA
ATOM      7  C   UNL     1      -3.415  12.240  19.879  0.00  0.00    +0.000 A 
ATOM      8  C   UNL     1      -4.755  12.671  19.505  0.00  0.00    +0.000 A 
ATOM      9  C   UNL     1      -5.624  13.492  20.289  0.00  0.00    +0.000 A 
ATOM     10  C   UNL     1      -6.908  13.878  19.895  0.00  0.00    +0.000 A 
ATOM     11  C   UNL     1      -7.399  13.462  18.680  0.00  0.00    +0.000 A 
ATOM     12  C   UNL     1      -6.598  12.665  17.871  0.00  0.00    +0.000 A 
ATOM     13  C   UNL     1      -5.285  12.260  18.249  0.00  0.00    +0.000 A 
ATOM     14  C   UNL     1      -4.483  11.455  17.411  0.00  0.00    +0.000 A 
ATOM     15  C   UNL     1      -3.184  11.041  17.766  0.00  0.00    +0.000 A 
ATOM     16  C   UNL     1      -2.435  10.241  16.878  0.00  0.00    +0.000 A 
ATOM     17  C   UNL     1      -1.158   9.813  17.186  0.00  0.00    +0.000 A 
ATOM     18  C   UNL     1      -0.605  10.179  18.399  0.00  0.00    +0.000 A 
ATOM     19  C   UNL     1      -1.319  10.980  19.314  0.00  0.00    +0.000 A 
ATOM     20  C   UNL     1      -2.631  11.429  19.012  0.00  0.00    +0.000 A 
ENDROOT
BRANCH  14  21
ATOM     21  O   UNL     1      -4.925  11.018  16.177  0.00  0.00    +0.000 OA
ATOM     22  H   UNL     1      -4.290  10.421  15.764  0.00  0.00    +0.000 HD
ENDBRANCH  14  21
BRANCH   6  23
ATOM     23  C   UNL     1      -2.853  13.716  23.352  0.00  0.00    +0.000 C 
BRANCH  23  24
ATOM     24  C   UNL     1      -3.820  13.431  24.504  0.00  0.00    +0.000 C 
BRANCH  24  25
ATOM     25  C   UNL     1      -5.243  13.725  24.079  0.00  0.00    +0.000 A 
ATOM     26  C   UNL     1      -5.629  15.032  23.753  0.00  0.00    +0.000 A 
ATOM     27  C   UNL     1      -6.959  15.321  23.443  0.00  0.00    +0.000 A 
ATOM     28  C   UNL     1      -7.916  14.309  23.458  0.00  0.00    +0.000 A 
ATOM     29  C   UNL     1      -7.543  13.005  23.782  0.00  0.00    +0.000 A 
ATOM     30  C   UNL     1      -6.214  12.714  24.093  0.00  0.00    +0.000 A 
ENDBRANCH  24  25
ENDBRANCH  23  24
ENDBRANCH   6  23
TORSDOF 4
ENDMDL
MODEL 6
REMARK VINA RESULT:      -7.6      9.911     12.138
REMARK  Name = 
REMARK  5 active torsions:
REMARK  status: ('A' for Active; 'I' for Inactive)
REMARK    1  A    between atoms: C_1  and  N_2
REMARK    2  A    between atoms: N_6  and  C_7
REMARK    3  A    between atoms: C_7  and  C_8
REMARK    4  A    between atoms: C_8  and  C_9
REMARK    5  A    between atoms: C_22  and  O_23
REMARK                            x       y       z     vdW  Elec       q    Type
REMARK                         _______ _______ _______ _____ _____    ______ ____
ROOT
ATOM      1  C   UNL     1      11.690  13.680  16.730  0.00  0.00    +0.000 C 
ATOM      2  N   UNL     1      11.015  13.446  18.004  0.00  0.00    +0.000 N 
ATOM      3  C   UNL     1      10.566  12.161  18.253  0.00  0.00    +0.000 C 
ATOM      4  O   UNL     1      10.770  11.254  17.451  0.00  0.00    +0.000 OA
ATOM      5  C   UNL     1       9.793  11.893  19.562  0.00  0.00    +0.000 C 
ATOM      6  N   UNL     1       9.255  10.740  19.809  0.00  0.00    +0.000 NA
ATOM      7  C   UNL     1       9.666  13.023  20.570  0.00  0.00    +0.000 A 
ATOM      8  C   UNL     1       9.014  12.855  21.861  0.00  0.00    +0.000 A 
ATOM      9  C   UNL     1       8.430  11.650  22.359  0.00  0.00    +0.000 A 
ATOM     10  C   UNL     1       7.807  11.533  23.605  0.00  0.00    +0.000 A 
ATOM     11  C   UNL     1       7.735  12.629  24.432  0.00  0.00    +0.000 A 
ATOM     12  C   UNL     1       8.290  13.829  24.004  0.00  0.00    +0.000 A 
ATOM     13  C   UNL     1       8.932  13.973  22.740  0.00  0.00    +0.000 A 
ATOM     14  C   UNL     1       9.496  15.199  22.326  0.00  0.00    +0.000 A 
ATOM     15  C   UNL     1      10.132  15.363  21.080  0.00  0.00    +0.000 A 
ATOM     16  C   UNL     1      10.679  16.616  20.731  0.00  0.00    +0.000 A 
ATOM     17  C   UNL     1      11.312  16.821  19.519  0.00  0.00    +0.000 A 
ATOM     18  C   UNL     1      11.407  15.768  18.630  0.00  0.00    +0.000 A 
ATOM     19  C   UNL     1      10.877  14.499  18.940  0.00  0.00    +0.000 A 
ATOM     20  C   UNL     1      10.225  14.272  20.180  0.00  0.00    +0.000 A 
ENDROOT
BRANCH  14  21
ATOM     21  O   UNL     1       9.458  16.327  23.123  0.00  0.00    +0.000 OA
ATOM     22  H   UNL     1       9.309  17.125  22.601  0.00  0.00    +0.000 HD
ENDBRANCH  14  21
BRANCH   6  23
ATOM     23  C   UNL     1       9.373   9.612  18.885  0.00  0.00    +0.000 C 
BRANCH  23  24
ATOM     24  C   UNL     1       8.069   9.416  18.108  0.00  0.00    +0.000 C 
BRANCH  24  25
ATOM     25  C   UNL     1       7.746   7.942  17.990  0.00  0.00    +0.000 A 
ATOM     26  C   UNL     1       6.834   7.491  17.026  0.00  0.00    +0.000 A 
ATOM     27  C   UNL     1       6.470   6.144  16.970  0.00  0.00    +0.000 A 
ATOM     28  C   UNL     1       7.011   5.236  17.877  0.00  0.00    +0.000 A 
ATOM     29  C   UNL     1       7.919   5.673  18.840  0.00  0.00    +0.000 A 
ATOM     30  C   UNL     1       8.284   7.019  18.898  0.00  0.00    +0.000 A 
ENDBRANCH  24  25
ENDBRANCH  23  24
ENDBRANCH   6  23
TORSDOF 4
ENDMDL
MODEL 7
REMARK VINA RESULT:      -7.6      1.852      4.719
REMARK  Name = 
REMARK  5 active torsions:
REMARK  status: ('A' for Active; 'I' for Inactive)
REMARK    1  A    between atoms: C_1  and  N_2
REMARK    2  A    between atoms: N_6  and  C_7
REMARK    3  A    between atoms: C_7  and  C_8
REMARK    4  A    between atoms: C_8  and  C_9
REMARK    5  A    between atoms: C_22  and  O_23
REMARK                            x       y       z     vdW  Elec       q    Type
REMARK                         _______ _______ _______ _____ _____    ______ ____
ROOT
ATOM      1  C   UNL     1      -3.872  10.953  16.170  0.00  0.00    +0.000 C 
ATOM      2  N   UNL     1      -3.834  11.502  17.523  0.00  0.00    +0.000 N 
ATOM      3  C   UNL     1      -2.617  11.476  18.181  0.00  0.00    +0.000 C 
ATOM      4  O   UNL     1      -1.608  11.047  17.626  0.00  0.00    +0.000 OA
ATOM      5  C   UNL     1      -2.555  11.990  19.634  0.00  0.00    +0.000 C 
ATOM      6  N   UNL     1      -1.473  11.897  20.343  0.00  0.00    +0.000 NA
ATOM      7  C   UNL     1      -3.804  12.613  20.234  0.00  0.00    +0.000 A 
ATOM      8  C   UNL     1      -3.833  13.187  21.572  0.00  0.00    +0.000 A 
ATOM      9  C   UNL     1      -2.732  13.258  22.481  0.00  0.00    +0.000 A 
ATOM     10  C   UNL     1      -2.804  13.813  23.761  0.00  0.00    +0.000 A 
ATOM     11  C   UNL     1      -3.994  14.336  24.209  0.00  0.00    +0.000 A 
ATOM     12  C   UNL     1      -5.100  14.299  23.367  0.00  0.00    +0.000 A 
ATOM     13  C   UNL     1      -5.052  13.741  22.057  0.00  0.00    +0.000 A 
ATOM     14  C   UNL     1      -6.184  13.719  21.214  0.00  0.00    +0.000 A 
ATOM     15  C   UNL     1      -6.158  13.170  19.917  0.00  0.00    +0.000 A 
ATOM     16  C   UNL     1      -7.326  13.186  19.125  0.00  0.00    +0.000 A 
ATOM     17  C   UNL     1      -7.346  12.658  17.848  0.00  0.00    +0.000 A 
ATOM     18  C   UNL     1      -6.188  12.101  17.338  0.00  0.00    +0.000 A 
ATOM     19  C   UNL     1      -4.999  12.068  18.095  0.00  0.00    +0.000 A 
ATOM     20  C   UNL     1      -4.962  12.606  19.407  0.00  0.00    +0.000 A 
ENDROOT
BRANCH  14  21
ATOM     21  O   UNL     1      -7.401  14.239  21.611  0.00  0.00    +0.000 OA
ATOM     22  H   UNL     1      -8.138  13.720  21.267  0.00  0.00    +0.000 HD
ENDBRANCH  14  21
BRANCH   6  23
ATOM     23  C   UNL     1      -0.236  11.333  19.803  0.00  0.00    +0.000 C 
BRANCH  23  24
ATOM     24  C   UNL     1       0.241  10.161  20.666  0.00  0.00    +0.000 C 
BRANCH  24  25
ATOM     25  C   UNL     1       1.106   9.227  19.848  0.00  0.00    +0.000 A 
ATOM     26  C   UNL     1       1.363   9.499  18.498  0.00  0.00    +0.000 A 
ATOM     27  C   UNL     1       2.090   8.597  17.719  0.00  0.00    +0.000 A 
ATOM     28  C   UNL     1       2.565   7.413  18.280  0.00  0.00    +0.000 A 
ATOM     29  C   UNL     1       2.316   7.132  19.623  0.00  0.00    +0.000 A 
ATOM     30  C   UNL     1       1.589   8.033  20.403  0.00  0.00    +0.000 A 
ENDBRANCH  24  25
ENDBRANCH  23  24
ENDBRANCH   6  23
TORSDOF 4
ENDMDL
MODEL 8
REMARK VINA RESULT:      -7.6      5.692      8.619
REMARK  Name = 
REMARK  5 active torsions:
REMARK  status: ('A' for Active; 'I' for Inactive)
REMARK    1  A    between atoms: C_1  and  N_2
REMARK    2  A    between atoms: N_6  and  C_7
REMARK    3  A    between atoms: C_7  and  C_8
REMARK    4  A    between atoms: C_8  and  C_9
REMARK    5  A    between atoms: C_22  and  O_23
REMARK                            x       y       z     vdW  Elec       q    Type
REMARK                         _______ _______ _______ _____ _____    ______ ____
ROOT
ATOM      1  C   UNL     1       4.060   1.060  18.498  0.00  0.00    +0.000 C 
ATOM      2  N   UNL     1       3.772   2.490  18.429  0.00  0.00    +0.000 N 
ATOM      3  C   UNL     1       4.245   3.176  17.324  0.00  0.00    +0.000 C 
ATOM      4  O   UNL     1       4.843   2.591  16.425  0.00  0.00    +0.000 OA
ATOM      5  C   UNL     1       4.012   4.700  17.250  0.00  0.00    +0.000 C 
ATOM      6  N   UNL     1       4.520   5.419  16.298  0.00  0.00    +0.000 NA
ATOM      7  C   UNL     1       3.171   5.355  18.331  0.00  0.00    +0.000 A 
ATOM      8  C   UNL     1       2.838   6.773  18.318  0.00  0.00    +0.000 A 
ATOM      9  C   UNL     1       3.227   7.720  17.321  0.00  0.00    +0.000 A 
ATOM     10  C   UNL     1       2.891   9.076  17.349  0.00  0.00    +0.000 A 
ATOM     11  C   UNL     1       2.136   9.566  18.388  0.00  0.00    +0.000 A 
ATOM     12  C   UNL     1       1.723   8.692  19.387  0.00  0.00    +0.000 A 
ATOM     13  C   UNL     1       2.051   7.305  19.380  0.00  0.00    +0.000 A 
ATOM     14  C   UNL     1       1.617   6.431  20.400  0.00  0.00    +0.000 A 
ATOM     15  C   UNL     1       1.933   5.058  20.413  0.00  0.00    +0.000 A 
ATOM     16  C   UNL     1       1.461   4.240  21.461  0.00  0.00    +0.000 A 
ATOM     17  C   UNL     1       1.747   2.889  21.514  0.00  0.00    +0.000 A 
ATOM     18  C   UNL     1       2.515   2.330  20.510  0.00  0.00    +0.000 A 
ATOM     19  C   UNL     1       3.003   3.111  19.443  0.00  0.00    +0.000 A 
ATOM     20  C   UNL     1       2.719   4.499  19.374  0.00  0.00    +0.000 A 
ENDROOT
BRANCH  14  21
ATOM     21  O   UNL     1       0.849   6.871  21.461  0.00  0.00    +0.000 OA
ATOM     22  H   UNL     1       0.049   6.341  21.563  0.00  0.00    +0.000 HD
ENDBRANCH  14  21
BRANCH   6  23
ATOM     23  C   UNL     1       5.312   4.831  15.217  0.00  0.00    +0.000 C 
BRANCH  23  24
ATOM     24  C   UNL     1       6.724   5.424  15.205  0.00  0.00    +0.000 C 
BRANCH  24  25
ATOM     25  C   UNL     1       7.170   5.745  16.615  0.00  0.00    +0.000 A 
ATOM     26  C   UNL     1       7.359   7.076  17.012  0.00  0.00    +0.000 A 
ATOM     27  C   UNL     1       7.852   7.372  18.285  0.00  0.00    +0.000 A 
ATOM     28  C   UNL     1       8.162   6.343  19.171  0.00  0.00    +0.000 A 
ATOM     29  C   UNL     1       7.977   5.016  18.786  0.00  0.00    +0.000 A 
ATOM     30  C   UNL     1       7.486   4.717  17.514  0.00  0.00    +0.000 A 
ENDBRANCH  24  25
ENDBRANCH  23  24
ENDBRANCH   6  23
TORSDOF 4
ENDMDL
MODEL 9
REMARK VINA RESULT:      -7.5      1.606      4.344
REMARK  Name = 
REMARK  5 active torsions:
REMARK  status: ('A' for Active; 'I' for Inactive)
REMARK    1  A    between atoms: C_1  and  N_2
REMARK    2  A    between atoms: N_6  and  C_7
REMARK    3  A    between atoms: C_7  and  C_8
REMARK    4  A    between atoms: C_8  and  C_9
REMARK    5  A    between atoms: C_22  and  O_23
REMARK                            x       y       z     vdW  Elec       q    Type
REMARK                         _______ _______ _______ _____ _____    ______ ____
ROOT
ATOM      1  C   UNL     1      -3.102  10.020  16.167  0.00  0.00    +0.000 C 
ATOM      2  N   UNL     1      -2.920  10.701  17.447  0.00  0.00    +0.000 N 
ATOM      3  C   UNL     1      -1.677  10.597  18.045  0.00  0.00    +0.000 C 
ATOM      4  O   UNL     1      -0.760   9.993  17.496  0.00  0.00    +0.000 OA
ATOM      5  C   UNL     1      -1.470  11.252  19.428  0.00  0.00    +0.000 C 
ATOM      6  N   UNL     1      -0.366  11.104  20.091  0.00  0.00    +0.000 NA
ATOM      7  C   UNL     1      -2.602  12.081  20.011  0.00  0.00    +0.000 A 
ATOM      8  C   UNL     1      -2.484  12.793  21.276  0.00  0.00    +0.000 A 
ATOM      9  C   UNL     1      -1.331  12.827  22.119  0.00  0.00    +0.000 A 
ATOM     10  C   UNL     1      -1.262  13.519  23.331  0.00  0.00    +0.000 A 
ATOM     11  C   UNL     1      -2.355  14.226  23.771  0.00  0.00    +0.000 A 
ATOM     12  C   UNL     1      -3.506  14.234  22.992  0.00  0.00    +0.000 A 
ATOM     13  C   UNL     1      -3.601  13.539  21.752  0.00  0.00    +0.000 A 
ATOM     14  C   UNL     1      -4.776  13.564  20.970  0.00  0.00    +0.000 A 
ATOM     15  C   UNL     1      -4.891  12.882  19.743  0.00  0.00    +0.000 A 
ATOM     16  C   UNL     1      -6.094  12.954  19.010  0.00  0.00    +0.000 A 
ATOM     17  C   UNL     1      -6.250  12.301  17.802  0.00  0.00    +0.000 A 
ATOM     18  C   UNL     1      -5.197  11.557  17.305  0.00  0.00    +0.000 A 
ATOM     19  C   UNL     1      -3.977  11.460  18.005  0.00  0.00    +0.000 A 
ATOM     20  C   UNL     1      -3.800  12.126  19.245  0.00  0.00    +0.000 A 
ENDROOT
BRANCH  14  21
ATOM     21  O   UNL     1      -5.899  14.267  21.362  0.00  0.00    +0.000 OA
ATOM     22  H   UNL     1      -6.380  13.806  22.060  0.00  0.00    +0.000 HD
ENDBRANCH  14  21
BRANCH   6  23
ATOM     23  C   UNL     1       0.763  10.340  19.560  0.00  0.00    +0.000 C 
BRANCH  23  24
ATOM     24  C   UNL     1       0.976   9.062  20.376  0.00  0.00    +0.000 C 
BRANCH  24  25
ATOM     25  C   UNL     1       1.814   8.075  19.592  0.00  0.00    +0.000 A 
ATOM     26  C   UNL     1       2.155   6.835  20.150  0.00  0.00    +0.000 A 
ATOM     27  C   UNL     1       2.998   5.957  19.465  0.00  0.00    +0.000 A 
ATOM     28  C   UNL     1       3.510   6.310  18.218  0.00  0.00    +0.000 A 
ATOM     29  C   UNL     1       3.177   7.541  17.654  0.00  0.00    +0.000 A 
ATOM     30  C   UNL     1       2.336   8.420  18.337  0.00  0.00    +0.000 A 
ENDBRANCH  24  25
ENDBRANCH  23  24
ENDBRANCH   6  23
TORSDOF 4
ENDMDL
