MODEL 1
REMARK VINA RESULT:      -7.9      0.000      0.000
REMARK  Name = 
REMARK  7 active torsions:
REMARK  status: ('A' for Active; 'I' for Inactive)
REMARK    1  A    between atoms: C_1  and  O_2
REMARK    2  A    between atoms: O_2  and  C_3
REMARK    3  A    between atoms: C_7  and  C_8
REMARK    4  A    between atoms: C_13  and  C_14
REMARK    5  A    between atoms: C_14  and  C_15
REMARK    6  A    between atoms: C_15  and  C_16
REMARK    7  A    between atoms: C_15  and  C_22
REMARK                            x       y       z     vdW  Elec       q    Type
REMARK                         _______ _______ _______ _____ _____    ______ ____
ROOT
ATOM      1  C   UNL     1       6.610   5.661  16.055  0.00  0.00    +0.000 A 
ATOM      2  N   UNL     1       7.470   4.809  15.426  0.00  0.00    +0.000 NA
ATOM      3  C   UNL     1       7.006   4.043  14.418  0.00  0.00    +0.000 A 
ATOM      4  C   UNL     1       5.712   4.101  13.959  0.00  0.00    +0.000 A 
ATOM      5  C   UNL     1       4.835   4.981  14.583  0.00  0.00    +0.000 A 
ATOM      6  C   UNL     1       5.246   5.759  15.679  0.00  0.00    +0.000 A 
ENDROOT
BRANCH   1  11
ATOM      7  C   UNL     1       8.215   8.446  18.101  0.00  0.00    +0.000 A 
ATOM      8  C   UNL     1       8.618   7.762  19.246  0.00  0.00    +0.000 A 
ATOM      9  C   UNL     1       8.277   6.426  19.416  0.00  0.00    +0.000 A 
ATOM     10  C   UNL     1       7.550   5.765  18.424  0.00  0.00    +0.000 A 
ATOM     11  C   UNL     1       7.235   6.382  17.203  0.00  0.00    +0.000 A 
ATOM     12  C   UNL     1       7.541   7.755  17.087  0.00  0.00    +0.000 A 
BRANCH   7  14
ATOM     13  C   UNL     1       9.287  10.257  19.198  0.00  0.00    +0.000 C 
ATOM     14  O   UNL     1       8.555   9.774  18.082  0.00  0.00    +0.000 OA
ENDBRANCH   7  14
ENDBRANCH   1  11
BRANCH   6  15
ATOM     15  C   UNL     1       4.263   6.610  16.473  0.00  0.00    +0.000 C 
BRANCH  15  16
ATOM     16  C   UNL     1       3.839   6.257  17.925  0.00  0.00    +0.000 C 
BRANCH  16  17
ATOM     17  C   UNL     1       2.860   7.240  18.532  0.00  0.00    +0.000 A 
ATOM     18  C   UNL     1       2.419   8.384  17.863  0.00  0.00    +0.000 A 
ATOM     19  C   UNL     1       1.560   9.267  18.506  0.00  0.00    +0.000 A 
ATOM     20  C   UNL     1       1.172   8.983  19.801  0.00  0.00    +0.000 A 
ATOM     21  N   UNL     1       1.549   7.875  20.476  0.00  0.00    +0.000 NA
ATOM     22  C   UNL     1       2.367   7.028  19.820  0.00  0.00    +0.000 A 
ENDBRANCH  16  17
BRANCH  16  23
ATOM     23  C   UNL     1       3.307   4.830  18.055  0.00  0.00    +0.000 A 
ATOM     24  C   UNL     1       4.075   3.848  18.690  0.00  0.00    +0.000 A 
ATOM     25  C   UNL     1       3.556   2.571  18.892  0.00  0.00    +0.000 A 
ATOM     26  C   UNL     1       2.274   2.306  18.440  0.00  0.00    +0.000 A 
ATOM     27  N   UNL     1       1.505   3.211  17.805  0.00  0.00    +0.000 NA
ATOM     28  C   UNL     1       2.032   4.447  17.630  0.00  0.00    +0.000 A 
ENDBRANCH  16  23
ENDBRANCH  15  16
ENDBRANCH   6  15
TORSDOF 6
ENDMDL
MODEL 2
REMARK VINA RESULT:      -7.8      2.895      4.547
REMARK  Name = 
REMARK  7 active torsions:
REMARK  status: ('A' for Active; 'I' for Inactive)
REMARK    1  A    between atoms: C_1  and  O_2
REMARK    2  A    between atoms: O_2  and  C_3
REMARK    3  A    between atoms: C_7  and  C_8
REMARK    4  A    between atoms: C_13  and  C_14
REMARK    5  A    between atoms: C_14  and  C_15
REMARK    6  A    between atoms: C_15  and  C_16
REMARK    7  A    between atoms: C_15  and  C_22
REMARK                            x       y       z     vdW  Elec       q    Type
REMARK                         _______ _______ _______ _____ _____    ______ ____
ROOT
ATOM      1  C   UNL     1       5.177   4.735  17.514  0.00  0.00    +0.000 A 
ATOM      2  N   UNL     1       6.389   4.539  16.918  0.00  0.00    +0.000 NA
ATOM      3  C   UNL     1       6.938   5.551  16.214  0.00  0.00    +0.000 A 
ATOM      4  C   UNL     1       6.358   6.791  16.096  0.00  0.00    +0.000 A 
ATOM      5  C   UNL     1       5.132   7.002  16.717  0.00  0.00    +0.000 A 
ATOM      6  C   UNL     1       4.483   5.966  17.411  0.00  0.00    +0.000 A 
ENDROOT
BRANCH   1  11
ATOM      7  C   UNL     1       4.675   2.005  20.126  0.00  0.00    +0.000 A 
ATOM      8  C   UNL     1       3.875   1.095  19.436  0.00  0.00    +0.000 A 
ATOM      9  C   UNL     1       3.401   1.406  18.169  0.00  0.00    +0.000 A 
ATOM     10  C   UNL     1       3.748   2.622  17.577  0.00  0.00    +0.000 A 
ATOM     11  C   UNL     1       4.652   3.508  18.184  0.00  0.00    +0.000 A 
ATOM     12  C   UNL     1       5.067   3.194  19.496  0.00  0.00    +0.000 A 
BRANCH   7  14
ATOM     13  C   UNL     1       5.714   0.378  21.506  0.00  0.00    +0.000 C 
ATOM     14  O   UNL     1       5.023   1.613  21.392  0.00  0.00    +0.000 OA
ENDBRANCH   7  14
ENDBRANCH   1  11
BRANCH   6  15
ATOM     15  C   UNL     1       3.072   6.131  17.963  0.00  0.00    +0.000 C 
BRANCH  15  16
ATOM     16  C   UNL     1       2.789   6.344  19.474  0.00  0.00    +0.000 C 
BRANCH  16  17
ATOM     17  C   UNL     1       1.956   7.573  19.774  0.00  0.00    +0.000 A 
ATOM     18  C   UNL     1       1.724   8.580  18.834  0.00  0.00    +0.000 A 
ATOM     19  C   UNL     1       0.993   9.704  19.198  0.00  0.00    +0.000 A 
ATOM     20  C   UNL     1       0.521   9.791  20.494  0.00  0.00    +0.000 A 
ATOM     21  N   UNL     1       0.696   8.830  21.427  0.00  0.00    +0.000 NA
ATOM     22  C   UNL     1       1.393   7.743  21.038  0.00  0.00    +0.000 A 
ENDBRANCH  16  17
BRANCH  16  23
ATOM     23  C   UNL     1       2.173   5.113  20.139  0.00  0.00    +0.000 A 
ATOM     24  C   UNL     1       1.239   4.333  19.447  0.00  0.00    +0.000 A 
ATOM     25  C   UNL     1       0.745   3.160  20.013  0.00  0.00    +0.000 A 
ATOM     26  C   UNL     1       1.194   2.801  21.273  0.00  0.00    +0.000 A 
ATOM     27  N   UNL     1       2.075   3.530  21.987  0.00  0.00    +0.000 NA
ATOM     28  C   UNL     1       2.545   4.660  21.408  0.00  0.00    +0.000 A 
ENDBRANCH  16  23
ENDBRANCH  15  16
ENDBRANCH   6  15
TORSDOF 6
ENDMDL
MODEL 3
REMARK VINA RESULT:      -7.7      2.112      6.602
REMARK  Name = 
REMARK  7 active torsions:
REMARK  status: ('A' for Active; 'I' for Inactive)
REMARK    1  A    between atoms: C_1  and  O_2
REMARK    2  A    between atoms: O_2  and  C_3
REMARK    3  A    between atoms: C_7  and  C_8
REMARK    4  A    between atoms: C_13  and  C_14
REMARK    5  A    between atoms: C_14  and  C_15
REMARK    6  A    between atoms: C_15  and  C_16
REMARK    7  A    between atoms: C_15  and  C_22
REMARK                            x       y       z     vdW  Elec       q    Type
REMARK                         _______ _______ _______ _____ _____    ______ ____
ROOT
ATOM      1  C   UNL     1       2.601   4.496  18.696  0.00  0.00    +0.000 A 
ATOM      2  N   UNL     1       1.807   3.740  19.507  0.00  0.00    +0.000 NA
ATOM      3  C   UNL     1       1.859   2.396  19.399  0.00  0.00    +0.000 A 
ATOM      4  C   UNL     1       2.705   1.740  18.537  0.00  0.00    +0.000 A 
ATOM      5  C   UNL     1       3.531   2.505  17.721  0.00  0.00    +0.000 A 
ATOM      6  C   UNL     1       3.474   3.910  17.746  0.00  0.00    +0.000 A 
ENDROOT
BRANCH   1  11
ATOM      7  C   UNL     1       1.756   7.838  20.322  0.00  0.00    +0.000 A 
ATOM      8  C   UNL     1       1.727   8.691  19.220  0.00  0.00    +0.000 A 
ATOM      9  C   UNL     1       2.089   8.220  17.965  0.00  0.00    +0.000 A 
ATOM     10  C   UNL     1       2.458   6.882  17.805  0.00  0.00    +0.000 A 
ATOM     11  C   UNL     1       2.379   5.963  18.863  0.00  0.00    +0.000 A 
ATOM     12  C   UNL     1       2.067   6.485  20.137  0.00  0.00    +0.000 A 
BRANCH   7  14
ATOM     13  C   UNL     1       0.246   9.198  21.547  0.00  0.00    +0.000 C 
ATOM     14  O   UNL     1       1.444   8.437  21.514  0.00  0.00    +0.000 OA
ENDBRANCH   7  14
ENDBRANCH   1  11
BRANCH   6  15
ATOM     15  C   UNL     1       4.255   4.762  16.753  0.00  0.00    +0.000 C 
BRANCH  15  16
ATOM     16  C   UNL     1       5.789   4.616  16.555  0.00  0.00    +0.000 C 
BRANCH  16  17
ATOM     17  C   UNL     1       6.213   4.526  15.104  0.00  0.00    +0.000 A 
ATOM     18  C   UNL     1       5.539   3.744  14.163  0.00  0.00    +0.000 A 
ATOM     19  C   UNL     1       6.019   3.670  12.861  0.00  0.00    +0.000 A 
ATOM     20  C   UNL     1       7.162   4.376  12.540  0.00  0.00    +0.000 A 
ATOM     21  N   UNL     1       7.830   5.167  13.408  0.00  0.00    +0.000 NA
ATOM     22  C   UNL     1       7.329   5.234  14.659  0.00  0.00    +0.000 A 
ENDBRANCH  16  17
BRANCH  16  23
ATOM     23  C   UNL     1       6.583   5.708  17.272  0.00  0.00    +0.000 A 
ATOM     24  C   UNL     1       7.403   5.383  18.359  0.00  0.00    +0.000 A 
ATOM     25  C   UNL     1       8.198   6.358  18.956  0.00  0.00    +0.000 A 
ATOM     26  C   UNL     1       8.144   7.647  18.452  0.00  0.00    +0.000 A 
ATOM     27  N   UNL     1       7.355   8.012  17.423  0.00  0.00    +0.000 NA
ATOM     28  C   UNL     1       6.600   7.042  16.856  0.00  0.00    +0.000 A 
ENDBRANCH  16  23
ENDBRANCH  15  16
ENDBRANCH   6  15
TORSDOF 6
ENDMDL
MODEL 4
REMARK VINA RESULT:      -7.6      1.152      3.465
REMARK  Name = 
REMARK  7 active torsions:
REMARK  status: ('A' for Active; 'I' for Inactive)
REMARK    1  A    between atoms: C_1  and  O_2
REMARK    2  A    between atoms: O_2  and  C_3
REMARK    3  A    between atoms: C_7  and  C_8
REMARK    4  A    between atoms: C_13  and  C_14
REMARK    5  A    between atoms: C_14  and  C_15
REMARK    6  A    between atoms: C_15  and  C_16
REMARK    7  A    between atoms: C_15  and  C_22
REMARK                            x       y       z     vdW  Elec       q    Type
REMARK                         _______ _______ _______ _____ _____    ______ ____
ROOT
ATOM      1  C   UNL     1       6.731   6.041  16.513  0.00  0.00    +0.000 A 
ATOM      2  N   UNL     1       7.540   5.634  15.492  0.00  0.00    +0.000 NA
ATOM      3  C   UNL     1       7.087   4.693  14.640  0.00  0.00    +0.000 A 
ATOM      4  C   UNL     1       5.830   4.143  14.719  0.00  0.00    +0.000 A 
ATOM      5  C   UNL     1       4.994   4.567  15.746  0.00  0.00    +0.000 A 
ATOM      6  C   UNL     1       5.434   5.500  16.701  0.00  0.00    +0.000 A 
ENDROOT
BRANCH   1  11
ATOM      7  C   UNL     1       8.105   9.330  17.863  0.00  0.00    +0.000 A 
ATOM      8  C   UNL     1       8.807   8.904  18.989  0.00  0.00    +0.000 A 
ATOM      9  C   UNL     1       8.749   7.574  19.384  0.00  0.00    +0.000 A 
ATOM     10  C   UNL     1       8.006   6.659  18.635  0.00  0.00    +0.000 A 
ATOM     11  C   UNL     1       7.390   7.022  17.426  0.00  0.00    +0.000 A 
ATOM     12  C   UNL     1       7.416   8.391  17.085  0.00  0.00    +0.000 A 
BRANCH   7  14
ATOM     13  C   UNL     1       9.176  11.393  18.337  0.00  0.00    +0.000 C 
ATOM     14  O   UNL     1       8.187  10.675  17.616  0.00  0.00    +0.000 OA
ENDBRANCH   7  14
ENDBRANCH   1  11
BRANCH   6  15
ATOM     15  C   UNL     1       4.592   5.859  17.919  0.00  0.00    +0.000 C 
BRANCH  15  16
ATOM     16  C   UNL     1       3.045   5.730  17.930  0.00  0.00    +0.000 C 
BRANCH  16  17
ATOM     17  C   UNL     1       2.545   4.420  18.502  0.00  0.00    +0.000 A 
ATOM     18  C   UNL     1       1.309   3.864  18.161  0.00  0.00    +0.000 A 
ATOM     19  C   UNL     1       0.895   2.685  18.768  0.00  0.00    +0.000 A 
ATOM     20  C   UNL     1       1.726   2.099  19.703  0.00  0.00    +0.000 A 
ATOM     21  N   UNL     1       2.940   2.584  20.043  0.00  0.00    +0.000 NA
ATOM     22  C   UNL     1       3.323   3.719  19.424  0.00  0.00    +0.000 A 
ENDBRANCH  16  17
BRANCH  16  23
ATOM     23  C   UNL     1       2.359   6.907  18.623  0.00  0.00    +0.000 A 
ATOM     24  C   UNL     1       2.101   6.860  19.998  0.00  0.00    +0.000 A 
ATOM     25  C   UNL     1       1.560   7.966  20.649  0.00  0.00    +0.000 A 
ATOM     26  C   UNL     1       1.279   9.096  19.899  0.00  0.00    +0.000 A 
ATOM     27  N   UNL     1       1.489   9.181  18.571  0.00  0.00    +0.000 NA
ATOM     28  C   UNL     1       2.024   8.094  17.966  0.00  0.00    +0.000 A 
ENDBRANCH  16  23
ENDBRANCH  15  16
ENDBRANCH   6  15
TORSDOF 6
ENDMDL
MODEL 5
REMARK VINA RESULT:      -7.6      1.050      3.588
REMARK  Name = 
REMARK  7 active torsions:
REMARK  status: ('A' for Active; 'I' for Inactive)
REMARK    1  A    between atoms: C_1  and  O_2
REMARK    2  A    between atoms: O_2  and  C_3
REMARK    3  A    between atoms: C_7  and  C_8
REMARK    4  A    between atoms: C_13  and  C_14
REMARK    5  A    between atoms: C_14  and  C_15
REMARK    6  A    between atoms: C_15  and  C_16
REMARK    7  A    between atoms: C_15  and  C_22
REMARK                            x       y       z     vdW  Elec       q    Type
REMARK                         _______ _______ _______ _____ _____    ______ ____
ROOT
ATOM      1  C   UNL     1       6.643   6.036  16.578  0.00  0.00    +0.000 A 
ATOM      2  N   UNL     1       7.437   5.577  15.568  0.00  0.00    +0.000 NA
ATOM      3  C   UNL     1       6.958   4.620  14.748  0.00  0.00    +0.000 A 
ATOM      4  C   UNL     1       5.688   4.103  14.851  0.00  0.00    +0.000 A 
ATOM      5  C   UNL     1       4.867   4.580  15.866  0.00  0.00    +0.000 A 
ATOM      6  C   UNL     1       5.335   5.533  16.789  0.00  0.00    +0.000 A 
ENDROOT
BRANCH   1  11
ATOM      7  C   UNL     1       8.062   9.342  17.835  0.00  0.00    +0.000 A 
ATOM      8  C   UNL     1       8.794   8.933  18.948  0.00  0.00    +0.000 A 
ATOM      9  C   UNL     1       8.744   7.609  19.366  0.00  0.00    +0.000 A 
ATOM     10  C   UNL     1       7.978   6.685  18.653  0.00  0.00    +0.000 A 
ATOM     11  C   UNL     1       7.330   7.030  17.457  0.00  0.00    +0.000 A 
ATOM     12  C   UNL     1       7.349   8.393  17.092  0.00  0.00    +0.000 A 
BRANCH   7  14
ATOM     13  C   UNL     1       9.111  11.422  18.290  0.00  0.00    +0.000 C 
ATOM     14  O   UNL     1       8.140  10.683  17.564  0.00  0.00    +0.000 OA
ENDBRANCH   7  14
ENDBRANCH   1  11
BRANCH   6  15
ATOM     15  C   UNL     1       4.508   5.951  17.999  0.00  0.00    +0.000 C 
BRANCH  15  16
ATOM     16  C   UNL     1       2.955   5.959  17.984  0.00  0.00    +0.000 C 
BRANCH  16  17
ATOM     17  C   UNL     1       2.331   4.743  18.637  0.00  0.00    +0.000 A 
ATOM     18  C   UNL     1       2.649   4.330  19.933  0.00  0.00    +0.000 A 
ATOM     19  C   UNL     1       2.074   3.174  20.446  0.00  0.00    +0.000 A 
ATOM     20  C   UNL     1       1.202   2.461  19.646  0.00  0.00    +0.000 A 
ATOM     21  N   UNL     1       0.843   2.838  18.399  0.00  0.00    +0.000 NA
ATOM     22  C   UNL     1       1.402   3.974  17.936  0.00  0.00    +0.000 A 
ENDBRANCH  16  17
BRANCH  16  23
ATOM     23  C   UNL     1       2.365   7.239  18.575  0.00  0.00    +0.000 A 
ATOM     24  C   UNL     1       2.050   8.319  17.742  0.00  0.00    +0.000 A 
ATOM     25  C   UNL     1       1.427   9.450  18.264  0.00  0.00    +0.000 A 
ATOM     26  C   UNL     1       1.145   9.477  19.620  0.00  0.00    +0.000 A 
ATOM     27  N   UNL     1       1.448   8.472  20.464  0.00  0.00    +0.000 NA
ATOM     28  C   UNL     1       2.045   7.381  19.928  0.00  0.00    +0.000 A 
ENDBRANCH  16  23
ENDBRANCH  15  16
ENDBRANCH   6  15
TORSDOF 6
ENDMDL
MODEL 6
REMARK VINA RESULT:      -7.5      0.993      3.435
REMARK  Name = 
REMARK  7 active torsions:
REMARK  status: ('A' for Active; 'I' for Inactive)
REMARK    1  A    between atoms: C_1  and  O_2
REMARK    2  A    between atoms: O_2  and  C_3
REMARK    3  A    between atoms: C_7  and  C_8
REMARK    4  A    between atoms: C_13  and  C_14
REMARK    5  A    between atoms: C_14  and  C_15
REMARK    6  A    between atoms: C_15  and  C_16
REMARK    7  A    between atoms: C_15  and  C_22
REMARK                            x       y       z     vdW  Elec       q    Type
REMARK                         _______ _______ _______ _____ _____    ______ ____
ROOT
ATOM      1  C   UNL     1       6.725   5.548  16.041  0.00  0.00    +0.000 A 
ATOM      2  N   UNL     1       7.500   5.533  14.917  0.00  0.00    +0.000 NA
ATOM      3  C   UNL     1       7.112   4.777  13.870  0.00  0.00    +0.000 A 
ATOM      4  C   UNL     1       5.949   4.044  13.857  0.00  0.00    +0.000 A 
ATOM      5  C   UNL     1       5.145   4.071  14.991  0.00  0.00    +0.000 A 
ATOM      6  C   UNL     1       5.530   4.791  16.135  0.00  0.00    +0.000 A 
ENDROOT
BRANCH   1  11
ATOM      7  C   UNL     1       8.133   8.527  17.956  0.00  0.00    +0.000 A 
ATOM      8  C   UNL     1       8.629   7.917  19.107  0.00  0.00    +0.000 A 
ATOM      9  C   UNL     1       8.414   6.562  19.324  0.00  0.00    +0.000 A 
ATOM     10  C   UNL     1       7.721   5.808  18.375  0.00  0.00    +0.000 A 
ATOM     11  C   UNL     1       7.317   6.357  17.148  0.00  0.00    +0.000 A 
ATOM     12  C   UNL     1       7.495   7.747  16.983  0.00  0.00    +0.000 A 
BRANCH   7  14
ATOM     13  C   UNL     1       9.119  10.449  18.938  0.00  0.00    +0.000 C 
ATOM     14  O   UNL     1       8.351   9.878  17.889  0.00  0.00    +0.000 OA
ENDBRANCH   7  14
ENDBRANCH   1  11
BRANCH   6  15
ATOM     15  C   UNL     1       4.745   4.707  17.438  0.00  0.00    +0.000 C 
BRANCH  15  16
ATOM     16  C   UNL     1       3.209   4.927  17.500  0.00  0.00    +0.000 C 
BRANCH  16  17
ATOM     17  C   UNL     1       2.461   3.823  18.217  0.00  0.00    +0.000 A 
ATOM     18  C   UNL     1       1.074   3.671  18.141  0.00  0.00    +0.000 A 
ATOM     19  C   UNL     1       0.452   2.665  18.869  0.00  0.00    +0.000 A 
ATOM     20  C   UNL     1       1.234   1.843  19.657  0.00  0.00    +0.000 A 
ATOM     21  N   UNL     1       2.580   1.934  19.739  0.00  0.00    +0.000 NA
ATOM     22  C   UNL     1       3.157   2.907  19.007  0.00  0.00    +0.000 A 
ENDBRANCH  16  17
BRANCH  16  23
ATOM     23  C   UNL     1       2.830   6.288  18.085  0.00  0.00    +0.000 A 
ATOM     24  C   UNL     1       2.809   7.424  17.267  0.00  0.00    +0.000 A 
ATOM     25  C   UNL     1       2.376   8.647  17.774  0.00  0.00    +0.000 A 
ATOM     26  C   UNL     1       1.983   8.705  19.101  0.00  0.00    +0.000 A 
ATOM     27  N   UNL     1       2.006   7.645  19.932  0.00  0.00    +0.000 NA
ATOM     28  C   UNL     1       2.423   6.467  19.410  0.00  0.00    +0.000 A 
ENDBRANCH  16  23
ENDBRANCH  15  16
ENDBRANCH   6  15
TORSDOF 6
ENDMDL
MODEL 7
REMARK VINA RESULT:      -7.4      2.180      6.594
REMARK  Name = 
REMARK  7 active torsions:
REMARK  status: ('A' for Active; 'I' for Inactive)
REMARK    1  A    between atoms: C_1  and  O_2
REMARK    2  A    between atoms: O_2  and  C_3
REMARK    3  A    between atoms: C_7  and  C_8
REMARK    4  A    between atoms: C_13  and  C_14
REMARK    5  A    between atoms: C_14  and  C_15
REMARK    6  A    between atoms: C_15  and  C_16
REMARK    7  A    between atoms: C_15  and  C_22
REMARK                            x       y       z     vdW  Elec       q    Type
REMARK                         _______ _______ _______ _____ _____    ______ ____
ROOT
ATOM      1  C   UNL     1       2.792   4.474  18.683  0.00  0.00    +0.000 A 
ATOM      2  N   UNL     1       2.022   3.829  19.606  0.00  0.00    +0.000 NA
ATOM      3  C   UNL     1       2.017   2.480  19.619  0.00  0.00    +0.000 A 
ATOM      4  C   UNL     1       2.780   1.713  18.772  0.00  0.00    +0.000 A 
ATOM      5  C   UNL     1       3.582   2.365  17.841  0.00  0.00    +0.000 A 
ATOM      6  C   UNL     1       3.580   3.767  17.740  0.00  0.00    +0.000 A 
ENDROOT
BRANCH   1  11
ATOM      7  C   UNL     1       1.870   7.953  19.938  0.00  0.00    +0.000 A 
ATOM      8  C   UNL     1       2.106   8.734  18.809  0.00  0.00    +0.000 A 
ATOM      9  C   UNL     1       2.669   8.166  17.673  0.00  0.00    +0.000 A 
ATOM     10  C   UNL     1       2.974   6.803  17.658  0.00  0.00    +0.000 A 
ATOM     11  C   UNL     1       2.636   5.959  18.727  0.00  0.00    +0.000 A 
ATOM     12  C   UNL     1       2.123   6.576  19.888  0.00  0.00    +0.000 A 
BRANCH   7  14
ATOM     13  C   UNL     1       0.062   8.306  21.434  0.00  0.00    +0.000 C 
ATOM     14  O   UNL     1       1.376   8.642  21.015  0.00  0.00    +0.000 OA
ENDBRANCH   7  14
ENDBRANCH   1  11
BRANCH   6  15
ATOM     15  C   UNL     1       4.328   4.492  16.628  0.00  0.00    +0.000 C 
BRANCH  15  16
ATOM     16  C   UNL     1       5.852   4.309  16.393  0.00  0.00    +0.000 C 
BRANCH  16  17
ATOM     17  C   UNL     1       6.246   4.275  14.931  0.00  0.00    +0.000 A 
ATOM     18  C   UNL     1       7.352   4.964  14.426  0.00  0.00    +0.000 A 
ATOM     19  C   UNL     1       7.619   4.928  13.063  0.00  0.00    +0.000 A 
ATOM     20  C   UNL     1       6.772   4.207  12.244  0.00  0.00    +0.000 A 
ATOM     21  N   UNL     1       5.709   3.502  12.691  0.00  0.00    +0.000 NA
ATOM     22  C   UNL     1       5.485   3.541  14.020  0.00  0.00    +0.000 A 
ENDBRANCH  16  17
BRANCH  16  23
ATOM     23  C   UNL     1       6.694   5.342  17.143  0.00  0.00    +0.000 A 
ATOM     24  C   UNL     1       6.611   6.697  16.804  0.00  0.00    +0.000 A 
ATOM     25  C   UNL     1       7.305   7.651  17.544  0.00  0.00    +0.000 A 
ATOM     26  C   UNL     1       8.079   7.218  18.608  0.00  0.00    +0.000 A 
ATOM     27  N   UNL     1       8.207   5.924  18.960  0.00  0.00    +0.000 NA
ATOM     28  C   UNL     1       7.514   5.020  18.228  0.00  0.00    +0.000 A 
ENDBRANCH  16  23
ENDBRANCH  15  16
ENDBRANCH   6  15
TORSDOF 6
ENDMDL
MODEL 8
REMARK VINA RESULT:      -7.4      1.075      3.430
REMARK  Name = 
REMARK  7 active torsions:
REMARK  status: ('A' for Active; 'I' for Inactive)
REMARK    1  A    between atoms: C_1  and  O_2
REMARK    2  A    between atoms: O_2  and  C_3
REMARK    3  A    between atoms: C_7  and  C_8
REMARK    4  A    between atoms: C_13  and  C_14
REMARK    5  A    between atoms: C_14  and  C_15
REMARK    6  A    between atoms: C_15  and  C_16
REMARK    7  A    between atoms: C_15  and  C_22
REMARK                            x       y       z     vdW  Elec       q    Type
REMARK                         _______ _______ _______ _____ _____    ______ ____
ROOT
ATOM      1  C   UNL     1       6.583   5.587  16.122  0.00  0.00    +0.000 A 
ATOM      2  N   UNL     1       7.462   4.864  15.369  0.00  0.00    +0.000 NA
ATOM      3  C   UNL     1       6.982   4.092  14.373  0.00  0.00    +0.000 A 
ATOM      4  C   UNL     1       5.648   4.021  14.047  0.00  0.00    +0.000 A 
ATOM      5  C   UNL     1       4.750   4.770  14.798  0.00  0.00    +0.000 A 
ATOM      6  C   UNL     1       5.185   5.545  15.888  0.00  0.00    +0.000 A 
ENDROOT
BRANCH   1  11
ATOM      7  C   UNL     1       8.216   8.416  18.084  0.00  0.00    +0.000 A 
ATOM      8  C   UNL     1       8.681   7.747  19.215  0.00  0.00    +0.000 A 
ATOM      9  C   UNL     1       8.374   6.406  19.406  0.00  0.00    +0.000 A 
ATOM     10  C   UNL     1       7.620   5.724  18.449  0.00  0.00    +0.000 A 
ATOM     11  C   UNL     1       7.242   6.327  17.239  0.00  0.00    +0.000 A 
ATOM     12  C   UNL     1       7.514   7.705  17.103  0.00  0.00    +0.000 A 
BRANCH   7  14
ATOM     13  C   UNL     1       9.155  10.290  19.197  0.00  0.00    +0.000 C 
ATOM     14  O   UNL     1       8.528   9.750  18.044  0.00  0.00    +0.000 OA
ENDBRANCH   7  14
ENDBRANCH   1  11
BRANCH   6  15
ATOM     15  C   UNL     1       4.202   6.246  16.817  0.00  0.00    +0.000 C 
BRANCH  15  16
ATOM     16  C   UNL     1       3.076   5.484  17.567  0.00  0.00    +0.000 C 
BRANCH  16  17
ATOM     17  C   UNL     1       3.504   4.135  18.106  0.00  0.00    +0.000 A 
ATOM     18  C   UNL     1       2.957   2.930  17.659  0.00  0.00    +0.000 A 
ATOM     19  C   UNL     1       3.362   1.734  18.239  0.00  0.00    +0.000 A 
ATOM     20  C   UNL     1       4.299   1.779  19.253  0.00  0.00    +0.000 A 
ATOM     21  N   UNL     1       4.877   2.917  19.698  0.00  0.00    +0.000 NA
ATOM     22  C   UNL     1       4.477   4.059  19.103  0.00  0.00    +0.000 A 
ENDBRANCH  16  17
BRANCH  16  23
ATOM     23  C   UNL     1       2.436   6.318  18.676  0.00  0.00    +0.000 A 
ATOM     24  C   UNL     1       2.047   5.712  19.877  0.00  0.00    +0.000 A 
ATOM     25  C   UNL     1       1.549   6.484  20.924  0.00  0.00    +0.000 A 
ATOM     26  C   UNL     1       1.441   7.852  20.737  0.00  0.00    +0.000 A 
ATOM     27  N   UNL     1       1.782   8.477  19.594  0.00  0.00    +0.000 NA
ATOM     28  C   UNL     1       2.272   7.704  18.596  0.00  0.00    +0.000 A 
ENDBRANCH  16  23
ENDBRANCH  15  16
ENDBRANCH   6  15
TORSDOF 6
ENDMDL
MODEL 9
REMARK VINA RESULT:      -7.4      2.469      6.482
REMARK  Name = 
REMARK  7 active torsions:
REMARK  status: ('A' for Active; 'I' for Inactive)
REMARK    1  A    between atoms: C_1  and  O_2
REMARK    2  A    between atoms: O_2  and  C_3
REMARK    3  A    between atoms: C_7  and  C_8
REMARK    4  A    between atoms: C_13  and  C_14
REMARK    5  A    between atoms: C_14  and  C_15
REMARK    6  A    between atoms: C_15  and  C_16
REMARK    7  A    between atoms: C_15  and  C_22
REMARK                            x       y       z     vdW  Elec       q    Type
REMARK                         _______ _______ _______ _____ _____    ______ ____
ROOT
ATOM      1  C   UNL     1       2.291   6.561  19.129  0.00  0.00    +0.000 A 
ATOM      2  N   UNL     1       1.612   7.463  19.895  0.00  0.00    +0.000 NA
ATOM      3  C   UNL     1       1.559   8.749  19.490  0.00  0.00    +0.000 A 
ATOM      4  C   UNL     1       2.122   9.196  18.319  0.00  0.00    +0.000 A 
ATOM      5  C   UNL     1       2.799   8.277  17.525  0.00  0.00    +0.000 A 
ATOM      6  C   UNL     1       2.940   6.938  17.927  0.00  0.00    +0.000 A 
ENDROOT
BRANCH   1  11
ATOM      7  C   UNL     1       2.408   2.763  19.429  0.00  0.00    +0.000 A 
ATOM      8  C   UNL     1       2.219   2.580  20.798  0.00  0.00    +0.000 A 
ATOM      9  C   UNL     1       2.165   3.678  21.646  0.00  0.00    +0.000 A 
ATOM     10  C   UNL     1       2.276   4.967  21.121  0.00  0.00    +0.000 A 
ATOM     11  C   UNL     1       2.340   5.198  19.738  0.00  0.00    +0.000 A 
ATOM     12  C   UNL     1       2.455   4.063  18.908  0.00  0.00    +0.000 A 
BRANCH   7  14
ATOM     13  C   UNL     1       3.820   1.209  18.324  0.00  0.00    +0.000 C 
ATOM     14  O   UNL     1       2.511   1.602  18.708  0.00  0.00    +0.000 OA
ENDBRANCH   7  14
ENDBRANCH   1  11
BRANCH   6  15
ATOM     15  C   UNL     1       3.808   5.955  17.151  0.00  0.00    +0.000 C 
BRANCH  15  16
ATOM     16  C   UNL     1       5.251   6.300  16.692  0.00  0.00    +0.000 C 
BRANCH  16  17
ATOM     17  C   UNL     1       6.277   6.240  17.804  0.00  0.00    +0.000 A 
ATOM     18  C   UNL     1       7.384   7.091  17.864  0.00  0.00    +0.000 A 
ATOM     19  C   UNL     1       8.312   6.941  18.886  0.00  0.00    +0.000 A 
ATOM     20  C   UNL     1       8.110   5.941  19.817  0.00  0.00    +0.000 A 
ATOM     21  N   UNL     1       7.041   5.114  19.817  0.00  0.00    +0.000 NA
ATOM     22  C   UNL     1       6.148   5.296  18.823  0.00  0.00    +0.000 A 
ENDBRANCH  16  17
BRANCH  16  23
ATOM     23  C   UNL     1       5.710   5.457  15.503  0.00  0.00    +0.000 A 
ATOM     24  C   UNL     1       4.864   4.480  14.964  0.00  0.00    +0.000 A 
ATOM     25  C   UNL     1       5.241   3.774  13.824  0.00  0.00    +0.000 A 
ATOM     26  C   UNL     1       6.471   4.059  13.254  0.00  0.00    +0.000 A 
ATOM     27  N   UNL     1       7.328   4.973  13.748  0.00  0.00    +0.000 NA
ATOM     28  C   UNL     1       6.931   5.651  14.852  0.00  0.00    +0.000 A 
ENDBRANCH  16  23
ENDBRANCH  15  16
ENDBRANCH   6  15
TORSDOF 6
ENDMDL
