MODEL 1
REMARK VINA RESULT:      -6.7      0.000      0.000
REMARK  Name = 
REMARK  7 active torsions:
REMARK  status: ('A' for Active; 'I' for Inactive)
REMARK    1  A    between atoms: C_1  and  C_2
REMARK    2  A    between atoms: C_2  and  C_3
REMARK    3  A    between atoms: C_8  and  O_9
REMARK    4  A    between atoms: C_11  and  C_12
REMARK    5  A    between atoms: C_12  and  C_13
REMARK    6  A    between atoms: C_13  and  C_14
REMARK    7  A    between atoms: C_13  and  C_15
REMARK                            x       y       z     vdW  Elec       q    Type
REMARK                         _______ _______ _______ _____ _____    ______ ____
ROOT
ATOM      1  C   UNL     1       2.582   5.785  18.046  0.00  0.00    +0.000 C 
ATOM      2  C   UNL     1       1.422   4.783  17.872  0.00  0.00    +0.000 C 
ATOM      3  C   UNL     1       1.895   3.428  18.219  0.00  0.00    +0.000 A 
ATOM      4  N   UNL     1       1.111   2.427  18.618  0.00  0.00    +0.000 NA
ATOM      5  N   UNL     1       1.975   1.400  18.739  0.00  0.00    +0.000 N 
ATOM      6  C   UNL     1       3.273   1.728  18.435  0.00  0.00    +0.000 A 
ATOM      7  C   UNL     1       3.248   3.064  18.103  0.00  0.00    +0.000 A 
ATOM      8  C   UNL     1       4.294   4.015  17.627  0.00  0.00    +0.000 C 
ATOM      9  O   UNL     1       3.803   5.362  17.400  0.00  0.00    +0.000 OA
ATOM     10  H   UNL     1       1.601   0.500  19.014  0.00  0.00    +0.000 HD
ENDROOT
BRANCH   1  12
ATOM     11  C   UNL     1       1.712   5.831  20.447  0.00  0.00    +0.000 C 
ATOM     12  C   UNL     1       2.843   6.220  19.500  0.00  0.00    +0.000 C 
ENDBRANCH   1  12
BRANCH   6  13
ATOM     13  O   UNL     1       4.279   0.861  18.464  0.00  0.00    +0.000 OA
ATOM     14  H   UNL     1       3.999   0.011  18.085  0.00  0.00    +0.000 HD
ENDBRANCH   6  13
BRANCH   8  15
ATOM     15  C   UNL     1       5.563   4.039  18.502  0.00  0.00    +0.000 C 
BRANCH  15  16
ATOM     16  C   UNL     1       6.608   5.110  18.110  0.00  0.00    +0.000 C 
ATOM     17  C   UNL     1       7.336   5.620  19.361  0.00  0.00    +0.000 C 
ATOM     18  C   UNL     1       7.646   4.599  17.108  0.00  0.00    +0.000 C 
ENDBRANCH  15  16
ENDBRANCH   8  15
TORSDOF 4
ENDMDL
MODEL 2
REMARK VINA RESULT:      -6.5      3.166      4.085
REMARK  Name = 
REMARK  7 active torsions:
REMARK  status: ('A' for Active; 'I' for Inactive)
REMARK    1  A    between atoms: C_1  and  C_2
REMARK    2  A    between atoms: C_2  and  C_3
REMARK    3  A    between atoms: C_8  and  O_9
REMARK    4  A    between atoms: C_11  and  C_12
REMARK    5  A    between atoms: C_12  and  C_13
REMARK    6  A    between atoms: C_13  and  C_14
REMARK    7  A    between atoms: C_13  and  C_15
REMARK                            x       y       z     vdW  Elec       q    Type
REMARK                         _______ _______ _______ _____ _____    ______ ____
ROOT
ATOM      1  C   UNL     1       3.039   4.601  18.100  0.00  0.00    +0.000 C 
ATOM      2  C   UNL     1       3.930   4.444  19.350  0.00  0.00    +0.000 C 
ATOM      3  C   UNL     1       5.342   4.648  18.969  0.00  0.00    +0.000 A 
ATOM      4  N   UNL     1       6.308   5.032  19.803  0.00  0.00    +0.000 NA
ATOM      5  N   UNL     1       7.406   5.006  19.023  0.00  0.00    +0.000 N 
ATOM      6  C   UNL     1       7.156   4.625  17.727  0.00  0.00    +0.000 A 
ATOM      7  C   UNL     1       5.800   4.399  17.664  0.00  0.00    +0.000 A 
ATOM      8  C   UNL     1       4.899   3.915  16.579  0.00  0.00    +0.000 C 
ATOM      9  O   UNL     1       3.503   3.830  16.969  0.00  0.00    +0.000 OA
ATOM     10  H   UNL     1       8.293   5.240  19.451  0.00  0.00    +0.000 HD
ENDROOT
BRANCH   1  12
ATOM     11  C   UNL     1       2.598   6.986  18.899  0.00  0.00    +0.000 C 
ATOM     12  C   UNL     1       2.747   6.058  17.697  0.00  0.00    +0.000 C 
ENDBRANCH   1  12
BRANCH   6  13
ATOM     13  O   UNL     1       8.100   4.508  16.798  0.00  0.00    +0.000 OA
ATOM     14  H   UNL     1       8.743   5.232  16.883  0.00  0.00    +0.000 HD
ENDBRANCH   6  13
BRANCH   8  15
ATOM     15  C   UNL     1       5.046   4.685  15.251  0.00  0.00    +0.000 C 
BRANCH  15  16
ATOM     16  C   UNL     1       5.934   3.997  14.188  0.00  0.00    +0.000 C 
ATOM     17  C   UNL     1       5.091   3.611  12.965  0.00  0.00    +0.000 C 
ATOM     18  C   UNL     1       7.105   4.868  13.727  0.00  0.00    +0.000 C 
ENDBRANCH  15  16
ENDBRANCH   8  15
TORSDOF 4
ENDMDL
MODEL 3
REMARK VINA RESULT:      -6.4      3.211      4.753
REMARK  Name = 
REMARK  7 active torsions:
REMARK  status: ('A' for Active; 'I' for Inactive)
REMARK    1  A    between atoms: C_1  and  C_2
REMARK    2  A    between atoms: C_2  and  C_3
REMARK    3  A    between atoms: C_8  and  O_9
REMARK    4  A    between atoms: C_11  and  C_12
REMARK    5  A    between atoms: C_12  and  C_13
REMARK    6  A    between atoms: C_13  and  C_14
REMARK    7  A    between atoms: C_13  and  C_15
REMARK                            x       y       z     vdW  Elec       q    Type
REMARK                         _______ _______ _______ _____ _____    ______ ____
ROOT
ATOM      1  C   UNL     1       5.046   6.074  18.550  0.00  0.00    +0.000 C 
ATOM      2  C   UNL     1       6.472   6.338  18.022  0.00  0.00    +0.000 C 
ATOM      3  C   UNL     1       6.641   5.660  16.721  0.00  0.00    +0.000 A 
ATOM      4  N   UNL     1       7.522   6.015  15.786  0.00  0.00    +0.000 NA
ATOM      5  N   UNL     1       7.350   5.074  14.838  0.00  0.00    +0.000 N 
ATOM      6  C   UNL     1       6.385   4.146  15.147  0.00  0.00    +0.000 A 
ATOM      7  C   UNL     1       5.893   4.521  16.377  0.00  0.00    +0.000 A 
ATOM      8  C   UNL     1       4.883   3.920  17.294  0.00  0.00    +0.000 C 
ATOM      9  O   UNL     1       4.674   4.679  18.515  0.00  0.00    +0.000 OA
ATOM     10  H   UNL     1       7.941   5.118  14.018  0.00  0.00    +0.000 HD
ENDROOT
BRANCH   1  12
ATOM     11  C   UNL     1       2.585   6.755  18.560  0.00  0.00    +0.000 C 
ATOM     12  C   UNL     1       3.954   6.957  17.919  0.00  0.00    +0.000 C 
ENDBRANCH   1  12
BRANCH   6  13
ATOM     13  O   UNL     1       6.073   3.119  14.364  0.00  0.00    +0.000 OA
ATOM     14  H   UNL     1       6.765   2.986  13.695  0.00  0.00    +0.000 HD
ENDBRANCH   6  13
BRANCH   8  15
ATOM     15  C   UNL     1       3.535   3.598  16.619  0.00  0.00    +0.000 C 
BRANCH  15  16
ATOM     16  C   UNL     1       2.651   2.578  17.373  0.00  0.00    +0.000 C 
ATOM     17  C   UNL     1       3.519   1.688  18.271  0.00  0.00    +0.000 C 
ATOM     18  C   UNL     1       1.569   3.240  18.231  0.00  0.00    +0.000 C 
ENDBRANCH  15  16
ENDBRANCH   8  15
TORSDOF 4
ENDMDL
MODEL 4
REMARK VINA RESULT:      -6.4      2.267      3.767
REMARK  Name = 
REMARK  7 active torsions:
REMARK  status: ('A' for Active; 'I' for Inactive)
REMARK    1  A    between atoms: C_1  and  C_2
REMARK    2  A    between atoms: C_2  and  C_3
REMARK    3  A    between atoms: C_8  and  O_9
REMARK    4  A    between atoms: C_11  and  C_12
REMARK    5  A    between atoms: C_12  and  C_13
REMARK    6  A    between atoms: C_13  and  C_14
REMARK    7  A    between atoms: C_13  and  C_15
REMARK                            x       y       z     vdW  Elec       q    Type
REMARK                         _______ _______ _______ _____ _____    ______ ____
ROOT
ATOM      1  C   UNL     1       1.179   3.267  18.879  0.00  0.00    +0.000 C 
ATOM      2  C   UNL     1       2.298   2.207  18.808  0.00  0.00    +0.000 C 
ATOM      3  C   UNL     1       3.598   2.854  19.075  0.00  0.00    +0.000 A 
ATOM      4  N   UNL     1       4.680   2.228  19.534  0.00  0.00    +0.000 NA
ATOM      5  N   UNL     1       5.610   3.202  19.542  0.00  0.00    +0.000 N 
ATOM      6  C   UNL     1       5.142   4.419  19.109  0.00  0.00    +0.000 A 
ATOM      7  C   UNL     1       3.814   4.218  18.810  0.00  0.00    +0.000 A 
ATOM      8  C   UNL     1       2.753   5.101  18.246  0.00  0.00    +0.000 C 
ATOM      9  O   UNL     1       1.463   4.450  18.099  0.00  0.00    +0.000 OA
ATOM     10  H   UNL     1       6.547   2.957  19.837  0.00  0.00    +0.000 HD
ENDROOT
BRANCH   1  12
ATOM     11  C   UNL     1       1.325   2.716  21.368  0.00  0.00    +0.000 C 
ATOM     12  C   UNL     1       0.732   3.635  20.305  0.00  0.00    +0.000 C 
ENDBRANCH   1  12
BRANCH   6  13
ATOM     13  O   UNL     1       5.898   5.509  19.015  0.00  0.00    +0.000 OA
ATOM     14  H   UNL     1       6.676   5.427  19.591  0.00  0.00    +0.000 HD
ENDBRANCH   6  13
BRANCH   8  15
ATOM     15  C   UNL     1       2.601   6.448  18.981  0.00  0.00    +0.000 C 
BRANCH  15  16
ATOM     16  C   UNL     1       3.060   7.688  18.180  0.00  0.00    +0.000 C 
ATOM     17  C   UNL     1       3.852   7.253  16.941  0.00  0.00    +0.000 C 
ATOM     18  C   UNL     1       1.898   8.581  17.736  0.00  0.00    +0.000 C 
ENDBRANCH  15  16
ENDBRANCH   8  15
TORSDOF 4
ENDMDL
MODEL 5
REMARK VINA RESULT:      -6.3      1.948      2.240
REMARK  Name = 
REMARK  7 active torsions:
REMARK  status: ('A' for Active; 'I' for Inactive)
REMARK    1  A    between atoms: C_1  and  C_2
REMARK    2  A    between atoms: C_2  and  C_3
REMARK    3  A    between atoms: C_8  and  O_9
REMARK    4  A    between atoms: C_11  and  C_12
REMARK    5  A    between atoms: C_12  and  C_13
REMARK    6  A    between atoms: C_13  and  C_14
REMARK    7  A    between atoms: C_13  and  C_15
REMARK                            x       y       z     vdW  Elec       q    Type
REMARK                         _______ _______ _______ _____ _____    ______ ____
ROOT
ATOM      1  C   UNL     1       1.760   5.197  18.776  0.00  0.00    +0.000 C 
ATOM      2  C   UNL     1       1.246   4.314  19.933  0.00  0.00    +0.000 C 
ATOM      3  C   UNL     1       2.340   3.436  20.397  0.00  0.00    +0.000 A 
ATOM      4  N   UNL     1       2.419   2.895  21.612  0.00  0.00    +0.000 NA
ATOM      5  N   UNL     1       3.528   2.135  21.530  0.00  0.00    +0.000 N 
ATOM      6  C   UNL     1       4.148   2.189  20.305  0.00  0.00    +0.000 A 
ATOM      7  C   UNL     1       3.391   3.053  19.546  0.00  0.00    +0.000 A 
ATOM      8  C   UNL     1       3.478   3.503  18.127  0.00  0.00    +0.000 C 
ATOM      9  O   UNL     1       2.442   4.447  17.747  0.00  0.00    +0.000 OA
ATOM     10  H   UNL     1       3.788   1.592  22.344  0.00  0.00    +0.000 HD
ENDROOT
BRANCH   1  12
ATOM     11  C   UNL     1       2.539   7.562  18.210  0.00  0.00    +0.000 C 
ATOM     12  C   UNL     1       2.588   6.417  19.217  0.00  0.00    +0.000 C 
ENDBRANCH   1  12
BRANCH   6  13
ATOM     13  O   UNL     1       5.242   1.498  20.002  0.00  0.00    +0.000 OA
ATOM     14  H   UNL     1       5.913   2.086  19.616  0.00  0.00    +0.000 HD
ENDBRANCH   6  13
BRANCH   8  15
ATOM     15  C   UNL     1       4.868   4.028  17.719  0.00  0.00    +0.000 C 
BRANCH  15  16
ATOM     16  C   UNL     1       4.876   4.997  16.514  0.00  0.00    +0.000 C 
ATOM     17  C   UNL     1       5.693   6.251  16.849  0.00  0.00    +0.000 C 
ATOM     18  C   UNL     1       5.439   4.365  15.238  0.00  0.00    +0.000 C 
ENDBRANCH  15  16
ENDBRANCH   8  15
TORSDOF 4
ENDMDL
MODEL 6
REMARK VINA RESULT:      -6.3      1.365      1.465
REMARK  Name = 
REMARK  7 active torsions:
REMARK  status: ('A' for Active; 'I' for Inactive)
REMARK    1  A    between atoms: C_1  and  C_2
REMARK    2  A    between atoms: C_2  and  C_3
REMARK    3  A    between atoms: C_8  and  O_9
REMARK    4  A    between atoms: C_11  and  C_12
REMARK    5  A    between atoms: C_12  and  C_13
REMARK    6  A    between atoms: C_13  and  C_14
REMARK    7  A    between atoms: C_13  and  C_15
REMARK                            x       y       z     vdW  Elec       q    Type
REMARK                         _______ _______ _______ _____ _____    ______ ____
ROOT
ATOM      1  C   UNL     1       2.620   5.631  17.820  0.00  0.00    +0.000 C 
ATOM      2  C   UNL     1       1.668   4.502  18.266  0.00  0.00    +0.000 C 
ATOM      3  C   UNL     1       2.386   3.596  19.185  0.00  0.00    +0.000 A 
ATOM      4  N   UNL     1       1.803   2.815  20.094  0.00  0.00    +0.000 NA
ATOM      5  N   UNL     1       2.843   2.140  20.620  0.00  0.00    +0.000 N 
ATOM      6  C   UNL     1       4.058   2.479  20.075  0.00  0.00    +0.000 A 
ATOM      7  C   UNL     1       3.783   3.448  19.137  0.00  0.00    +0.000 A 
ATOM      8  C   UNL     1       4.633   4.191  18.163  0.00  0.00    +0.000 C 
ATOM      9  O   UNL     1       3.899   5.147  17.353  0.00  0.00    +0.000 OA
ATOM     10  H   UNL     1       2.644   1.449  21.333  0.00  0.00    +0.000 HD
ENDROOT
BRANCH   1  12
ATOM     11  C   UNL     1       2.222   8.095  18.360  0.00  0.00    +0.000 C 
ATOM     12  C   UNL     1       2.795   6.767  18.844  0.00  0.00    +0.000 C 
ENDBRANCH   1  12
BRANCH   6  13
ATOM     13  O   UNL     1       5.208   1.917  20.431  0.00  0.00    +0.000 OA
ATOM     14  H   UNL     1       5.109   1.465  21.286  0.00  0.00    +0.000 HD
ENDBRANCH   6  13
BRANCH   8  15
ATOM     15  C   UNL     1       5.876   4.853  18.791  0.00  0.00    +0.000 C 
BRANCH  15  16
ATOM     16  C   UNL     1       6.765   5.646  17.806  0.00  0.00    +0.000 C 
ATOM     17  C   UNL     1       7.833   6.434  18.575  0.00  0.00    +0.000 C 
ATOM     18  C   UNL     1       7.458   4.755  16.771  0.00  0.00    +0.000 C 
ENDBRANCH  15  16
ENDBRANCH   8  15
TORSDOF 4
ENDMDL
MODEL 7
REMARK VINA RESULT:      -6.3      2.927      4.794
REMARK  Name = 
REMARK  7 active torsions:
REMARK  status: ('A' for Active; 'I' for Inactive)
REMARK    1  A    between atoms: C_1  and  C_2
REMARK    2  A    between atoms: C_2  and  C_3
REMARK    3  A    between atoms: C_8  and  O_9
REMARK    4  A    between atoms: C_11  and  C_12
REMARK    5  A    between atoms: C_12  and  C_13
REMARK    6  A    between atoms: C_13  and  C_14
REMARK    7  A    between atoms: C_13  and  C_15
REMARK                            x       y       z     vdW  Elec       q    Type
REMARK                         _______ _______ _______ _____ _____    ______ ____
ROOT
ATOM      1  C   UNL     1       3.884   4.085  16.664  0.00  0.00    +0.000 C 
ATOM      2  C   UNL     1       5.257   4.336  16.006  0.00  0.00    +0.000 C 
ATOM      3  C   UNL     1       6.266   4.563  17.060  0.00  0.00    +0.000 A 
ATOM      4  N   UNL     1       7.575   4.363  16.916  0.00  0.00    +0.000 NA
ATOM      5  N   UNL     1       8.073   4.771  18.100  0.00  0.00    +0.000 N 
ATOM      6  C   UNL     1       7.116   5.213  18.981  0.00  0.00    +0.000 A 
ATOM      7  C   UNL     1       5.915   5.071  18.323  0.00  0.00    +0.000 A 
ATOM      8  C   UNL     1       4.510   5.413  18.686  0.00  0.00    +0.000 C 
ATOM      9  O   UNL     1       3.540   5.074  17.659  0.00  0.00    +0.000 OA
ATOM     10  H   UNL     1       9.077   4.738  18.226  0.00  0.00    +0.000 HD
ENDROOT
BRANCH   1  12
ATOM     11  C   UNL     1       2.261   2.413  17.709  0.00  0.00    +0.000 C 
ATOM     12  C   UNL     1       3.680   2.658  17.203  0.00  0.00    +0.000 C 
ENDBRANCH   1  12
BRANCH   6  13
ATOM     13  O   UNL     1       7.391   5.682  20.194  0.00  0.00    +0.000 OA
ATOM     14  H   UNL     1       8.147   6.291  20.153  0.00  0.00    +0.000 HD
ENDBRANCH   6  13
BRANCH   8  15
ATOM     15  C   UNL     1       4.064   4.864  20.056  0.00  0.00    +0.000 C 
BRANCH  15  16
ATOM     16  C   UNL     1       2.534   4.782  20.264  0.00  0.00    +0.000 C 
ATOM     17  C   UNL     1       2.207   3.815  21.410  0.00  0.00    +0.000 C 
ATOM     18  C   UNL     1       1.894   6.140  20.565  0.00  0.00    +0.000 C 
ENDBRANCH  15  16
ENDBRANCH   8  15
TORSDOF 4
ENDMDL
MODEL 8
REMARK VINA RESULT:      -6.3      2.049      4.039
REMARK  Name = 
REMARK  7 active torsions:
REMARK  status: ('A' for Active; 'I' for Inactive)
REMARK    1  A    between atoms: C_1  and  C_2
REMARK    2  A    between atoms: C_2  and  C_3
REMARK    3  A    between atoms: C_8  and  O_9
REMARK    4  A    between atoms: C_11  and  C_12
REMARK    5  A    between atoms: C_12  and  C_13
REMARK    6  A    between atoms: C_13  and  C_14
REMARK    7  A    between atoms: C_13  and  C_15
REMARK                            x       y       z     vdW  Elec       q    Type
REMARK                         _______ _______ _______ _____ _____    ______ ____
ROOT
ATOM      1  C   UNL     1       4.836   5.031  18.499  0.00  0.00    +0.000 C 
ATOM      2  C   UNL     1       4.908   3.490  18.480  0.00  0.00    +0.000 C 
ATOM      3  C   UNL     1       3.566   2.937  18.752  0.00  0.00    +0.000 A 
ATOM      4  N   UNL     1       3.151   1.727  18.381  0.00  0.00    +0.000 NA
ATOM      5  N   UNL     1       1.914   1.658  18.910  0.00  0.00    +0.000 N 
ATOM      6  C   UNL     1       1.541   2.789  19.595  0.00  0.00    +0.000 A 
ATOM      7  C   UNL     1       2.608   3.652  19.492  0.00  0.00    +0.000 A 
ATOM      8  C   UNL     1       2.876   5.009  20.048  0.00  0.00    +0.000 C 
ATOM      9  O   UNL     1       4.166   5.556  19.667  0.00  0.00    +0.000 OA
ATOM     10  H   UNL     1       1.393   0.800  18.780  0.00  0.00    +0.000 HD
ENDROOT
BRANCH   1  12
ATOM     11  C   UNL     1       5.236   6.690  16.599  0.00  0.00    +0.000 C 
ATOM     12  C   UNL     1       4.285   5.665  17.210  0.00  0.00    +0.000 C 
ENDBRANCH   1  12
BRANCH   6  13
ATOM     13  O   UNL     1       0.373   2.923  20.215  0.00  0.00    +0.000 OA
ATOM     14  H   UNL     1       0.355   2.373  21.017  0.00  0.00    +0.000 HD
ENDBRANCH   6  13
BRANCH   8  15
ATOM     15  C   UNL     1       1.753   6.031  19.780  0.00  0.00    +0.000 C 
BRANCH  15  16
ATOM     16  C   UNL     1       2.167   7.514  19.921  0.00  0.00    +0.000 C 
ATOM     17  C   UNL     1       2.066   8.222  18.564  0.00  0.00    +0.000 C 
ATOM     18  C   UNL     1       1.322   8.280  20.942  0.00  0.00    +0.000 C 
ENDBRANCH  15  16
ENDBRANCH   8  15
TORSDOF 4
ENDMDL
MODEL 9
REMARK VINA RESULT:      -6.3      2.249      3.687
REMARK  Name = 
REMARK  7 active torsions:
REMARK  status: ('A' for Active; 'I' for Inactive)
REMARK    1  A    between atoms: C_1  and  C_2
REMARK    2  A    between atoms: C_2  and  C_3
REMARK    3  A    between atoms: C_8  and  O_9
REMARK    4  A    between atoms: C_11  and  C_12
REMARK    5  A    between atoms: C_12  and  C_13
REMARK    6  A    between atoms: C_13  and  C_14
REMARK    7  A    between atoms: C_13  and  C_15
REMARK                            x       y       z     vdW  Elec       q    Type
REMARK                         _______ _______ _______ _____ _____    ______ ____
ROOT
ATOM      1  C   UNL     1       3.209   2.614  19.449  0.00  0.00    +0.000 C 
ATOM      2  C   UNL     1       2.751   3.734  20.407  0.00  0.00    +0.000 C 
ATOM      3  C   UNL     1       2.804   5.030  19.700  0.00  0.00    +0.000 A 
ATOM      4  N   UNL     1       2.086   6.104  20.024  0.00  0.00    +0.000 NA
ATOM      5  N   UNL     1       2.528   7.034  19.156  0.00  0.00    +0.000 N 
ATOM      6  C   UNL     1       3.495   6.574  18.295  0.00  0.00    +0.000 A 
ATOM      7  C   UNL     1       3.683   5.250  18.625  0.00  0.00    +0.000 A 
ATOM      8  C   UNL     1       4.615   4.200  18.125  0.00  0.00    +0.000 C 
ATOM      9  O   UNL     1       4.453   2.912  18.777  0.00  0.00    +0.000 OA
ATOM     10  H   UNL     1       2.139   7.966  19.224  0.00  0.00    +0.000 HD
ENDROOT
BRANCH   1  12
ATOM     11  C   UNL     1       0.716   2.414  18.936  0.00  0.00    +0.000 C 
ATOM     12  C   UNL     1       2.137   2.144  18.450  0.00  0.00    +0.000 C 
ENDBRANCH   1  12
BRANCH   6  13
ATOM     13  O   UNL     1       4.085   7.331  17.376  0.00  0.00    +0.000 OA
ATOM     14  H   UNL     1       3.659   7.201  16.512  0.00  0.00    +0.000 HD
ENDBRANCH   6  13
BRANCH   8  15
ATOM     15  C   UNL     1       4.611   4.035  16.592  0.00  0.00    +0.000 C 
BRANCH  15  16
ATOM     16  C   UNL     1       5.832   4.643  15.863  0.00  0.00    +0.000 C 
ATOM     17  C   UNL     1       7.075   4.560  16.758  0.00  0.00    +0.000 C 
ATOM     18  C   UNL     1       6.137   3.959  14.528  0.00  0.00    +0.000 C 
ENDBRANCH  15  16
ENDBRANCH   8  15
TORSDOF 4
ENDMDL
