MODEL 1
REMARK VINA RESULT:      -5.8      0.000      0.000
REMARK  Name = 
REMARK  8 active torsions:
REMARK  status: ('A' for Active; 'I' for Inactive)
REMARK    1  A    between atoms: C_1  and  O_2
REMARK    2  A    between atoms: O_2  and  C_3
REMARK    3  A    between atoms: C_10  and  C_11
REMARK    4  A    between atoms: C_12  and  S_13
REMARK    5  A    between atoms: C_12  and  S_15
REMARK    6  A    between atoms: S_13  and  C_14
REMARK    7  A    between atoms: S_15  and  C_16
REMARK    8  A    between atoms: N_17  and  C_18
REMARK                            x       y       z     vdW  Elec       q    Type
REMARK                         _______ _______ _______ _____ _____    ______ ____
ROOT
ATOM      1  C   UNL     1       0.258   9.792  20.935  0.00  0.00    +0.000 A 
ATOM      2  C   UNL     1       0.419   8.617  21.666  0.00  0.00    +0.000 A 
ATOM      3  C   UNL     1       1.213   7.575  21.187  0.00  0.00    +0.000 A 
ATOM      4  C   UNL     1       1.846   7.657  19.930  0.00  0.00    +0.000 A 
ATOM      5  C   UNL     1       1.644   8.849  19.167  0.00  0.00    +0.000 A 
ATOM      6  C   UNL     1       2.180   8.949  17.884  0.00  0.00    +0.000 A 
ATOM      7  C   UNL     1       2.826   7.858  17.326  0.00  0.00    +0.000 A 
ATOM      8  C   UNL     1       3.011   6.695  18.087  0.00  0.00    +0.000 A 
ATOM      9  N   UNL     1       2.596   6.632  19.397  0.00  0.00    +0.000 N 
ATOM     10  C   UNL     1       2.977   5.424  20.167  0.00  0.00    +0.000 C 
ATOM     11  C   UNL     1       0.884   9.906  19.679  0.00  0.00    +0.000 A 
ENDROOT
BRANCH   1  13
ATOM     12  C   UNL     1      -0.870  10.892  22.778  0.00  0.00    +0.000 C 
ATOM     13  O   UNL     1      -0.531  10.767  21.446  0.00  0.00    +0.000 OA
ENDBRANCH   1  13
BRANCH   8  14
ATOM     14  C   UNL     1       3.632   5.521  17.431  0.00  0.00    +0.000 C 
ATOM     15  C   UNL     1       4.923   5.528  17.032  0.00  0.00    +0.000 C 
BRANCH  15  16
ATOM     16  S   UNL     1       6.071   6.915  17.349  0.00  0.00    +0.000 S 
ATOM     17  C   UNL     1       7.474   6.118  18.235  0.00  0.00    +0.000 C 
ENDBRANCH  15  16
BRANCH  15  18
ATOM     18  S   UNL     1       5.601   4.033  16.279  0.00  0.00    +0.000 S 
ATOM     19  C   UNL     1       6.260   4.796  14.760  0.00  0.00    +0.000 C 
ENDBRANCH  15  18
ENDBRANCH   8  14
TORSDOF 4
ENDMDL
MODEL 2
REMARK VINA RESULT:      -5.7      3.979      6.898
REMARK  Name = 
REMARK  8 active torsions:
REMARK  status: ('A' for Active; 'I' for Inactive)
REMARK    1  A    between atoms: C_1  and  O_2
REMARK    2  A    between atoms: O_2  and  C_3
REMARK    3  A    between atoms: C_10  and  C_11
REMARK    4  A    between atoms: C_12  and  S_13
REMARK    5  A    between atoms: C_12  and  S_15
REMARK    6  A    between atoms: S_13  and  C_14
REMARK    7  A    between atoms: S_15  and  C_16
REMARK    8  A    between atoms: N_17  and  C_18
REMARK                            x       y       z     vdW  Elec       q    Type
REMARK                         _______ _______ _______ _____ _____    ______ ____
ROOT
ATOM      1  C   UNL     1       3.254   4.851  19.144  0.00  0.00    +0.000 A 
ATOM      2  C   UNL     1       2.656   5.035  20.388  0.00  0.00    +0.000 A 
ATOM      3  C   UNL     1       1.972   6.213  20.691  0.00  0.00    +0.000 A 
ATOM      4  C   UNL     1       1.895   7.272  19.764  0.00  0.00    +0.000 A 
ATOM      5  C   UNL     1       2.545   7.093  18.503  0.00  0.00    +0.000 A 
ATOM      6  C   UNL     1       2.570   8.139  17.583  0.00  0.00    +0.000 A 
ATOM      7  C   UNL     1       2.043   9.372  17.933  0.00  0.00    +0.000 A 
ATOM      8  C   UNL     1       1.414   9.531  19.175  0.00  0.00    +0.000 A 
ATOM      9  N   UNL     1       1.274   8.470  20.040  0.00  0.00    +0.000 N 
ATOM     10  C   UNL     1       0.456   8.696  21.255  0.00  0.00    +0.000 C 
ATOM     11  C   UNL     1       3.188   5.889  18.194  0.00  0.00    +0.000 A 
ENDROOT
BRANCH   1  13
ATOM     12  C   UNL     1       4.048   2.662  19.819  0.00  0.00    +0.000 C 
ATOM     13  O   UNL     1       3.912   3.691  18.909  0.00  0.00    +0.000 OA
ENDBRANCH   1  13
BRANCH   8  14
ATOM     14  C   UNL     1       0.937  10.883  19.550  0.00  0.00    +0.000 C 
ATOM     15  C   UNL     1      -0.238  11.373  19.098  0.00  0.00    +0.000 C 
BRANCH  15  16
ATOM     16  S   UNL     1      -1.414  10.407  18.083  0.00  0.00    +0.000 S 
ATOM     17  C   UNL     1      -2.943  11.432  18.106  0.00  0.00    +0.000 C 
ENDBRANCH  15  16
BRANCH  15  18
ATOM     18  S   UNL     1      -0.753  13.016  19.643  0.00  0.00    +0.000 S 
ATOM     19  C   UNL     1      -0.848  12.668  21.429  0.00  0.00    +0.000 C 
ENDBRANCH  15  18
ENDBRANCH   8  14
TORSDOF 4
ENDMDL
MODEL 3
REMARK VINA RESULT:      -5.5      3.875      7.028
REMARK  Name = 
REMARK  8 active torsions:
REMARK  status: ('A' for Active; 'I' for Inactive)
REMARK    1  A    between atoms: C_1  and  O_2
REMARK    2  A    between atoms: O_2  and  C_3
REMARK    3  A    between atoms: C_10  and  C_11
REMARK    4  A    between atoms: C_12  and  S_13
REMARK    5  A    between atoms: C_12  and  S_15
REMARK    6  A    between atoms: S_13  and  C_14
REMARK    7  A    between atoms: S_15  and  C_16
REMARK    8  A    between atoms: N_17  and  C_18
REMARK                            x       y       z     vdW  Elec       q    Type
REMARK                         _______ _______ _______ _____ _____    ______ ____
ROOT
ATOM      1  C   UNL     1       3.881   5.386  18.381  0.00  0.00    +0.000 A 
ATOM      2  C   UNL     1       3.430   5.248  19.692  0.00  0.00    +0.000 A 
ATOM      3  C   UNL     1       2.595   6.204  20.271  0.00  0.00    +0.000 A 
ATOM      4  C   UNL     1       2.212   7.362  19.565  0.00  0.00    +0.000 A 
ATOM      5  C   UNL     1       2.711   7.518  18.234  0.00  0.00    +0.000 A 
ATOM      6  C   UNL     1       2.430   8.683  17.522  0.00  0.00    +0.000 A 
ATOM      7  C   UNL     1       1.745   9.716  18.142  0.00  0.00    +0.000 A 
ATOM      8  C   UNL     1       1.268   9.547  19.448  0.00  0.00    +0.000 A 
ATOM      9  N   UNL     1       1.431   8.355  20.116  0.00  0.00    +0.000 N 
ATOM     10  C   UNL     1       0.754   8.218  21.426  0.00  0.00    +0.000 C 
ATOM     11  C   UNL     1       3.509   6.530  17.649  0.00  0.00    +0.000 A 
ENDROOT
BRANCH   1  13
ATOM     12  C   UNL     1       5.096   4.350  16.557  0.00  0.00    +0.000 C 
ATOM     13  O   UNL     1       4.696   4.430  17.875  0.00  0.00    +0.000 OA
ENDBRANCH   1  13
BRANCH   8  14
ATOM     14  C   UNL     1       0.614  10.702  20.109  0.00  0.00    +0.000 C 
ATOM     15  C   UNL     1      -0.620  11.121  19.752  0.00  0.00    +0.000 C 
BRANCH  15  16
ATOM     16  S   UNL     1      -1.660  10.265  18.515  0.00  0.00    +0.000 S 
ATOM     17  C   UNL     1      -2.159  11.614  17.366  0.00  0.00    +0.000 C 
ENDBRANCH  15  16
BRANCH  15  18
ATOM     18  S   UNL     1      -1.350  12.511  20.643  0.00  0.00    +0.000 S 
ATOM     19  C   UNL     1      -0.991  11.939  22.336  0.00  0.00    +0.000 C 
ENDBRANCH  15  18
ENDBRANCH   8  14
TORSDOF 4
ENDMDL
MODEL 4
REMARK VINA RESULT:      -5.5      1.324      1.677
REMARK  Name = 
REMARK  8 active torsions:
REMARK  status: ('A' for Active; 'I' for Inactive)
REMARK    1  A    between atoms: C_1  and  O_2
REMARK    2  A    between atoms: O_2  and  C_3
REMARK    3  A    between atoms: C_10  and  C_11
REMARK    4  A    between atoms: C_12  and  S_13
REMARK    5  A    between atoms: C_12  and  S_15
REMARK    6  A    between atoms: S_13  and  C_14
REMARK    7  A    between atoms: S_15  and  C_16
REMARK    8  A    between atoms: N_17  and  C_18
REMARK                            x       y       z     vdW  Elec       q    Type
REMARK                         _______ _______ _______ _____ _____    ______ ____
ROOT
ATOM      1  C   UNL     1       0.474  10.607  20.960  0.00  0.00    +0.000 A 
ATOM      2  C   UNL     1       0.380   9.511  21.815  0.00  0.00    +0.000 A 
ATOM      3  C   UNL     1       0.896   8.268  21.450  0.00  0.00    +0.000 A 
ATOM      4  C   UNL     1       1.495   8.067  20.190  0.00  0.00    +0.000 A 
ATOM      5  C   UNL     1       1.553   9.185  19.302  0.00  0.00    +0.000 A 
ATOM      6  C   UNL     1       2.060   9.021  18.014  0.00  0.00    +0.000 A 
ATOM      7  C   UNL     1       2.420   7.757  17.577  0.00  0.00    +0.000 A 
ATOM      8  C   UNL     1       2.352   6.670  18.460  0.00  0.00    +0.000 A 
ATOM      9  N   UNL     1       1.972   6.844  19.771  0.00  0.00    +0.000 N 
ATOM     10  C   UNL     1       2.085   5.669  20.666  0.00  0.00    +0.000 C 
ATOM     11  C   UNL     1       1.073  10.439  19.697  0.00  0.00    +0.000 A 
ENDROOT
BRANCH   1  13
ATOM     12  C   UNL     1      -1.364  12.174  21.178  0.00  0.00    +0.000 C 
ATOM     13  O   UNL     1      -0.052  11.788  21.365  0.00  0.00    +0.000 OA
ENDBRANCH   1  13
BRANCH   8  14
ATOM     14  C   UNL     1       2.665   5.320  17.934  0.00  0.00    +0.000 C 
ATOM     15  C   UNL     1       3.930   4.845  17.901  0.00  0.00    +0.000 C 
BRANCH  15  16
ATOM     16  S   UNL     1       5.366   5.743  18.590  0.00  0.00    +0.000 S 
ATOM     17  C   UNL     1       6.073   6.609  17.128  0.00  0.00    +0.000 C 
ENDBRANCH  15  16
BRANCH  15  18
ATOM     18  S   UNL     1       4.206   3.172  17.280  0.00  0.00    +0.000 S 
ATOM     19  C   UNL     1       2.640   2.433  17.848  0.00  0.00    +0.000 C 
ENDBRANCH  15  18
ENDBRANCH   8  14
TORSDOF 4
ENDMDL
MODEL 5
REMARK VINA RESULT:      -5.5      5.086      7.473
REMARK  Name = 
REMARK  8 active torsions:
REMARK  status: ('A' for Active; 'I' for Inactive)
REMARK    1  A    between atoms: C_1  and  O_2
REMARK    2  A    between atoms: O_2  and  C_3
REMARK    3  A    between atoms: C_10  and  C_11
REMARK    4  A    between atoms: C_12  and  S_13
REMARK    5  A    between atoms: C_12  and  S_15
REMARK    6  A    between atoms: S_13  and  C_14
REMARK    7  A    between atoms: S_15  and  C_16
REMARK    8  A    between atoms: N_17  and  C_18
REMARK                            x       y       z     vdW  Elec       q    Type
REMARK                         _______ _______ _______ _____ _____    ______ ____
ROOT
ATOM      1  C   UNL     1       7.112   5.226  14.792  0.00  0.00    +0.000 A 
ATOM      2  C   UNL     1       5.926   4.613  14.393  0.00  0.00    +0.000 A 
ATOM      3  C   UNL     1       4.871   4.437  15.288  0.00  0.00    +0.000 A 
ATOM      4  C   UNL     1       4.981   4.835  16.635  0.00  0.00    +0.000 A 
ATOM      5  C   UNL     1       6.215   5.428  17.048  0.00  0.00    +0.000 A 
ATOM      6  C   UNL     1       6.407   5.765  18.387  0.00  0.00    +0.000 A 
ATOM      7  C   UNL     1       5.436   5.441  19.321  0.00  0.00    +0.000 A 
ATOM      8  C   UNL     1       4.234   4.857  18.898  0.00  0.00    +0.000 A 
ATOM      9  N   UNL     1       3.983   4.634  17.564  0.00  0.00    +0.000 N 
ATOM     10  C   UNL     1       2.626   4.163  17.203  0.00  0.00    +0.000 C 
ATOM     11  C   UNL     1       7.249   5.641  16.130  0.00  0.00    +0.000 A 
ENDROOT
BRANCH   1  13
ATOM     12  C   UNL     1       7.938   5.297  12.514  0.00  0.00    +0.000 C 
ATOM     13  O   UNL     1       8.105   5.363  13.882  0.00  0.00    +0.000 OA
ENDBRANCH   1  13
BRANCH   8  14
ATOM     14  C   UNL     1       3.253   4.448  19.932  0.00  0.00    +0.000 C 
ATOM     15  C   UNL     1       3.263   3.210  20.472  0.00  0.00    +0.000 C 
BRANCH  15  16
ATOM     16  S   UNL     1       4.530   1.949  20.088  0.00  0.00    +0.000 S 
ATOM     17  C   UNL     1       3.875   1.130  18.574  0.00  0.00    +0.000 C 
ENDBRANCH  15  16
BRANCH  15  18
ATOM     18  S   UNL     1       2.053   2.819  21.754  0.00  0.00    +0.000 S 
ATOM     19  C   UNL     1       0.552   2.946  20.729  0.00  0.00    +0.000 C 
ENDBRANCH  15  18
ENDBRANCH   8  14
TORSDOF 4
ENDMDL
MODEL 6
REMARK VINA RESULT:      -5.4      2.380      3.629
REMARK  Name = 
REMARK  8 active torsions:
REMARK  status: ('A' for Active; 'I' for Inactive)
REMARK    1  A    between atoms: C_1  and  O_2
REMARK    2  A    between atoms: O_2  and  C_3
REMARK    3  A    between atoms: C_10  and  C_11
REMARK    4  A    between atoms: C_12  and  S_13
REMARK    5  A    between atoms: C_12  and  S_15
REMARK    6  A    between atoms: S_13  and  C_14
REMARK    7  A    between atoms: S_15  and  C_16
REMARK    8  A    between atoms: N_17  and  C_18
REMARK                            x       y       z     vdW  Elec       q    Type
REMARK                         _______ _______ _______ _____ _____    ______ ____
ROOT
ATOM      1  C   UNL     1       0.094  11.242  19.887  0.00  0.00    +0.000 A 
ATOM      2  C   UNL     1       0.825  11.228  18.701  0.00  0.00    +0.000 A 
ATOM      3  C   UNL     1       1.543  10.096  18.312  0.00  0.00    +0.000 A 
ATOM      4  C   UNL     1       1.586   8.944  19.122  0.00  0.00    +0.000 A 
ATOM      5  C   UNL     1       0.867   8.980  20.357  0.00  0.00    +0.000 A 
ATOM      6  C   UNL     1       0.943   7.899  21.234  0.00  0.00    +0.000 A 
ATOM      7  C   UNL     1       1.786   6.839  20.942  0.00  0.00    +0.000 A 
ATOM      8  C   UNL     1       2.488   6.823  19.729  0.00  0.00    +0.000 A 
ATOM      9  N   UNL     1       2.323   7.825  18.800  0.00  0.00    +0.000 N 
ATOM     10  C   UNL     1       2.981   7.640  17.485  0.00  0.00    +0.000 C 
ATOM     11  C   UNL     1       0.113  10.103  20.714  0.00  0.00    +0.000 A 
ENDROOT
BRANCH   1  13
ATOM     12  C   UNL     1       0.014  13.576  20.540  0.00  0.00    +0.000 C 
ATOM     13  O   UNL     1      -0.577  12.371  20.217  0.00  0.00    +0.000 OA
ENDBRANCH   1  13
BRANCH   8  14
ATOM     14  C   UNL     1       3.443   5.716  19.487  0.00  0.00    +0.000 C 
ATOM     15  C   UNL     1       3.046   4.424  19.472  0.00  0.00    +0.000 C 
BRANCH  15  16
ATOM     16  S   UNL     1       1.301   3.900  19.633  0.00  0.00    +0.000 S 
ATOM     17  C   UNL     1       1.290   2.914  21.187  0.00  0.00    +0.000 C 
ENDBRANCH  15  16
BRANCH  15  18
ATOM     18  S   UNL     1       4.277   3.148  19.129  0.00  0.00    +0.000 S 
ATOM     19  C   UNL     1       3.246   2.086  18.065  0.00  0.00    +0.000 C 
ENDBRANCH  15  18
ENDBRANCH   8  14
TORSDOF 4
ENDMDL
MODEL 7
REMARK VINA RESULT:      -5.4      1.993      2.667
REMARK  Name = 
REMARK  8 active torsions:
REMARK  status: ('A' for Active; 'I' for Inactive)
REMARK    1  A    between atoms: C_1  and  O_2
REMARK    2  A    between atoms: O_2  and  C_3
REMARK    3  A    between atoms: C_10  and  C_11
REMARK    4  A    between atoms: C_12  and  S_13
REMARK    5  A    between atoms: C_12  and  S_15
REMARK    6  A    between atoms: S_13  and  C_14
REMARK    7  A    between atoms: S_15  and  C_16
REMARK    8  A    between atoms: N_17  and  C_18
REMARK                            x       y       z     vdW  Elec       q    Type
REMARK                         _______ _______ _______ _____ _____    ______ ____
ROOT
ATOM      1  C   UNL     1       1.038  10.965  19.047  0.00  0.00    +0.000 A 
ATOM      2  C   UNL     1       0.555  10.326  20.187  0.00  0.00    +0.000 A 
ATOM      3  C   UNL     1       0.885   8.999  20.462  0.00  0.00    +0.000 A 
ATOM      4  C   UNL     1       1.682   8.246  19.577  0.00  0.00    +0.000 A 
ATOM      5  C   UNL     1       2.141   8.895  18.389  0.00  0.00    +0.000 A 
ATOM      6  C   UNL     1       2.864   8.172  17.441  0.00  0.00    +0.000 A 
ATOM      7  C   UNL     1       3.055   6.811  17.617  0.00  0.00    +0.000 A 
ATOM      8  C   UNL     1       2.594   6.191  18.786  0.00  0.00    +0.000 A 
ATOM      9  N   UNL     1       1.989   6.919  19.785  0.00  0.00    +0.000 N 
ATOM     10  C   UNL     1       1.682   6.205  21.047  0.00  0.00    +0.000 C 
ATOM     11  C   UNL     1       1.843  10.240  18.147  0.00  0.00    +0.000 A 
ENDROOT
BRANCH   1  13
ATOM     12  C   UNL     1      -0.578  12.667  18.439  0.00  0.00    +0.000 C 
ATOM     13  O   UNL     1       0.679  12.252  18.827  0.00  0.00    +0.000 OA
ENDBRANCH   1  13
BRANCH   8  14
ATOM     14  C   UNL     1       2.740   4.720  18.903  0.00  0.00    +0.000 C 
ATOM     15  C   UNL     1       3.951   4.134  19.037  0.00  0.00    +0.000 C 
BRANCH  15  16
ATOM     16  S   UNL     1       5.514   5.069  19.201  0.00  0.00    +0.000 S 
ATOM     17  C   UNL     1       6.378   4.744  17.609  0.00  0.00    +0.000 C 
ENDBRANCH  15  16
BRANCH  15  18
ATOM     18  S   UNL     1       4.024   2.339  19.213  0.00  0.00    +0.000 S 
ATOM     19  C   UNL     1       2.242   1.998  19.042  0.00  0.00    +0.000 C 
ENDBRANCH  15  18
ENDBRANCH   8  14
TORSDOF 4
ENDMDL
MODEL 8
REMARK VINA RESULT:      -5.3      4.222      7.701
REMARK  Name = 
REMARK  8 active torsions:
REMARK  status: ('A' for Active; 'I' for Inactive)
REMARK    1  A    between atoms: C_1  and  O_2
REMARK    2  A    between atoms: O_2  and  C_3
REMARK    3  A    between atoms: C_10  and  C_11
REMARK    4  A    between atoms: C_12  and  S_13
REMARK    5  A    between atoms: C_12  and  S_15
REMARK    6  A    between atoms: S_13  and  C_14
REMARK    7  A    between atoms: S_15  and  C_16
REMARK    8  A    between atoms: N_17  and  C_18
REMARK                            x       y       z     vdW  Elec       q    Type
REMARK                         _______ _______ _______ _____ _____    ______ ____
ROOT
ATOM      1  C   UNL     1       7.330   5.113  14.342  0.00  0.00    +0.000 A 
ATOM      2  C   UNL     1       6.216   4.344  14.016  0.00  0.00    +0.000 A 
ATOM      3  C   UNL     1       5.253   4.030  14.976  0.00  0.00    +0.000 A 
ATOM      4  C   UNL     1       5.394   4.444  16.315  0.00  0.00    +0.000 A 
ATOM      5  C   UNL     1       6.560   5.200  16.652  0.00  0.00    +0.000 A 
ATOM      6  C   UNL     1       6.790   5.565  17.977  0.00  0.00    +0.000 A 
ATOM      7  C   UNL     1       5.932   5.116  18.969  0.00  0.00    +0.000 A 
ATOM      8  C   UNL     1       4.796   4.372  18.621  0.00  0.00    +0.000 A 
ATOM      9  N   UNL     1       4.494   4.113  17.304  0.00  0.00    +0.000 N 
ATOM     10  C   UNL     1       3.192   3.461  17.028  0.00  0.00    +0.000 C 
ATOM     11  C   UNL     1       7.495   5.548  15.671  0.00  0.00    +0.000 A 
ENDROOT
BRANCH   1  13
ATOM     12  C   UNL     1       7.934   5.565  12.038  0.00  0.00    +0.000 C 
ATOM     13  O   UNL     1       8.236   5.380  13.371  0.00  0.00    +0.000 OA
ENDBRANCH   1  13
BRANCH   8  14
ATOM     14  C   UNL     1       3.948   3.839  19.713  0.00  0.00    +0.000 C 
ATOM     15  C   UNL     1       2.948   4.566  20.257  0.00  0.00    +0.000 C 
BRANCH  15  16
ATOM     16  S   UNL     1       2.454   6.219  19.651  0.00  0.00    +0.000 S 
ATOM     17  C   UNL     1       1.366   6.860  20.991  0.00  0.00    +0.000 C 
ENDBRANCH  15  16
BRANCH  15  18
ATOM     18  S   UNL     1       1.943   3.814  21.555  0.00  0.00    +0.000 S 
ATOM     19  C   UNL     1       1.381   2.354  20.622  0.00  0.00    +0.000 C 
ENDBRANCH  15  18
ENDBRANCH   8  14
TORSDOF 4
ENDMDL
MODEL 9
REMARK VINA RESULT:      -5.3      1.394      2.714
REMARK  Name = 
REMARK  8 active torsions:
REMARK  status: ('A' for Active; 'I' for Inactive)
REMARK    1  A    between atoms: C_1  and  O_2
REMARK    2  A    between atoms: O_2  and  C_3
REMARK    3  A    between atoms: C_10  and  C_11
REMARK    4  A    between atoms: C_12  and  S_13
REMARK    5  A    between atoms: C_12  and  S_15
REMARK    6  A    between atoms: S_13  and  C_14
REMARK    7  A    between atoms: S_15  and  C_16
REMARK    8  A    between atoms: N_17  and  C_18
REMARK                            x       y       z     vdW  Elec       q    Type
REMARK                         _______ _______ _______ _____ _____    ______ ____
ROOT
ATOM      1  C   UNL     1       0.067   9.065  21.651  0.00  0.00    +0.000 A 
ATOM      2  C   UNL     1       0.491   9.849  20.580  0.00  0.00    +0.000 A 
ATOM      3  C   UNL     1       1.300   9.319  19.575  0.00  0.00    +0.000 A 
ATOM      4  C   UNL     1       1.750   7.984  19.629  0.00  0.00    +0.000 A 
ATOM      5  C   UNL     1       1.346   7.197  20.751  0.00  0.00    +0.000 A 
ATOM      6  C   UNL     1       1.829   5.897  20.895  0.00  0.00    +0.000 A 
ATOM      7  C   UNL     1       2.767   5.412  19.998  0.00  0.00    +0.000 A 
ATOM      8  C   UNL     1       3.156   6.200  18.906  0.00  0.00    +0.000 A 
ATOM      9  N   UNL     1       2.591   7.436  18.685  0.00  0.00    +0.000 N 
ATOM     10  C   UNL     1       2.947   8.123  17.422  0.00  0.00    +0.000 C 
ATOM     11  C   UNL     1       0.496   7.726  21.728  0.00  0.00    +0.000 A 
ENDROOT
BRANCH   1  13
ATOM     12  C   UNL     1      -0.808  10.993  22.832  0.00  0.00    +0.000 C 
ATOM     13  O   UNL     1      -0.711   9.637  22.601  0.00  0.00    +0.000 OA
ENDBRANCH   1  13
BRANCH   8  14
ATOM     14  C   UNL     1       4.222   5.684  18.015  0.00  0.00    +0.000 C 
ATOM     15  C   UNL     1       4.080   4.526  17.333  0.00  0.00    +0.000 C 
BRANCH  15  16
ATOM     16  S   UNL     1       2.545   3.532  17.337  0.00  0.00    +0.000 S 
ATOM     17  C   UNL     1       3.057   1.956  18.140  0.00  0.00    +0.000 C 
ENDBRANCH  15  16
BRANCH  15  18
ATOM     18  S   UNL     1       5.418   4.000  16.240  0.00  0.00    +0.000 S 
ATOM     19  C   UNL     1       5.705   5.597  15.411  0.00  0.00    +0.000 C 
ENDBRANCH  15  18
ENDBRANCH   8  14
TORSDOF 4
ENDMDL
