MODEL 1
REMARK VINA RESULT:      -8.1      0.000      0.000
REMARK  Name = 
REMARK  7 active torsions:
REMARK  status: ('A' for Active; 'I' for Inactive)
REMARK    1  A    between atoms: C_1  and  C_2
REMARK    2  A    between atoms: N_4  and  C_5
REMARK    3  A    between atoms: N_4  and  C_11
REMARK    4  A    between atoms: C_13  and  C_14
REMARK    5  A    between atoms: C_16  and  C_18
REMARK    6  A    between atoms: C_21  and  C_22
REMARK    7  A    between atoms: C_23  and  C_24
REMARK                            x       y       z     vdW  Elec       q    Type
REMARK                         _______ _______ _______ _____ _____    ______ ____
ROOT
ATOM      1  C   UNL     1      -1.727  11.194  18.039  0.00  0.00    +0.000 C 
ATOM      2  C   UNL     1      -1.730  12.396  18.972  0.00  0.00    +0.000 C 
ATOM      3  C   UNL     1      -0.713  12.451  20.051  0.00  0.00    +0.000 C 
ATOM      4  C   UNL     1       0.665  12.725  19.391  0.00  0.00    +0.000 C 
ATOM      5  N   UNL     1      -0.823  11.319  20.992  0.00  0.00    +0.000 N 
ATOM      6  C   UNL     1      -0.746  11.459  22.382  0.00  0.00    +0.000 C 
ATOM      7  O   UNL     1      -0.368  10.645  23.220  0.00  0.00    +0.000 OA
ATOM      8  C   UNL     1      -0.590  10.078  20.331  0.00  0.00    +0.000 A 
ATOM      9  C   UNL     1       0.224   9.133  21.026  0.00  0.00    +0.000 A 
ATOM     10  C   UNL     1       1.375   8.658  20.417  0.00  0.00    +0.000 A 
ATOM     11  C   UNL     1       1.537   8.979  19.077  0.00  0.00    +0.000 A 
ATOM     12  C   UNL     1       0.501   9.615  18.310  0.00  0.00    +0.000 A 
ATOM     13  C   UNL     1      -0.665  10.149  18.914  0.00  0.00    +0.000 A 
ENDROOT
BRANCH   6  14
ATOM     14  C   UNL     1      -1.374  12.684  22.973  0.00  0.00    +0.000 A 
ATOM     15  C   UNL     1      -2.685  12.538  23.348  0.00  0.00    +0.000 A 
ATOM     16  C   UNL     1      -3.293  13.571  24.031  0.00  0.00    +0.000 A 
ATOM     17  C   UNL     1      -2.582  14.751  24.288  0.00  0.00    +0.000 A 
ATOM     18  C   UNL     1      -3.026  15.580  25.454  0.00  0.00    +0.000 C 
ATOM     19  C   UNL     1      -1.377  15.006  23.620  0.00  0.00    +0.000 A 
ATOM     20  C   UNL     1      -0.731  16.354  23.487  0.00  0.00    +0.000 C 
ATOM     21  C   UNL     1      -0.709  13.911  23.091  0.00  0.00    +0.000 A 
ENDBRANCH   6  14
BRANCH   1  25
ATOM     22  C   UNL     1      -2.905  10.775  15.259  0.00  0.00    +0.000 C 
ATOM     23  C   UNL     1      -3.838  11.277  16.326  0.00  0.00    +0.000 C 
ATOM     24  O   UNL     1      -4.997  11.527  15.982  0.00  0.00    +0.000 OA
ATOM     25  N   UNL     1      -3.317  11.446  17.635  0.00  0.00    +0.000 N 
BRANCH  25  26
ATOM     26  C   UNL     1      -4.346  11.597  18.746  0.00  0.00    +0.000 A 
ATOM     27  C   UNL     1      -5.510  10.775  18.829  0.00  0.00    +0.000 A 
ATOM     28  C   UNL     1      -6.566  10.992  19.740  0.00  0.00    +0.000 A 
ATOM     29  C   UNL     1      -6.496  12.015  20.658  0.00  0.00    +0.000 A 
ATOM     30  C   UNL     1      -5.316  12.767  20.693  0.00  0.00    +0.000 A 
ATOM     31  C   UNL     1      -4.252  12.547  19.770  0.00  0.00    +0.000 A 
ENDBRANCH  25  26
ENDBRANCH   1  25
TORSDOF 3
ENDMDL
MODEL 2
REMARK VINA RESULT:      -8.1      0.703      1.420
REMARK  Name = 
REMARK  7 active torsions:
REMARK  status: ('A' for Active; 'I' for Inactive)
REMARK    1  A    between atoms: C_1  and  C_2
REMARK    2  A    between atoms: N_4  and  C_5
REMARK    3  A    between atoms: N_4  and  C_11
REMARK    4  A    between atoms: C_13  and  C_14
REMARK    5  A    between atoms: C_16  and  C_18
REMARK    6  A    between atoms: C_21  and  C_22
REMARK    7  A    between atoms: C_23  and  C_24
REMARK                            x       y       z     vdW  Elec       q    Type
REMARK                         _______ _______ _______ _____ _____    ______ ____
ROOT
ATOM      1  C   UNL     1      -1.759  11.051  18.039  0.00  0.00    +0.000 C 
ATOM      2  C   UNL     1      -1.919  12.252  18.958  0.00  0.00    +0.000 C 
ATOM      3  C   UNL     1      -1.011  12.370  20.125  0.00  0.00    +0.000 C 
ATOM      4  C   UNL     1       0.404  12.723  19.593  0.00  0.00    +0.000 C 
ATOM      5  N   UNL     1      -1.141  11.235  21.060  0.00  0.00    +0.000 N 
ATOM      6  C   UNL     1      -1.200  11.383  22.451  0.00  0.00    +0.000 C 
ATOM      7  O   UNL     1      -0.855  10.595  23.326  0.00  0.00    +0.000 OA
ATOM      8  C   UNL     1      -0.775  10.009  20.434  0.00  0.00    +0.000 A 
ATOM      9  C   UNL     1       0.026   9.116  21.208  0.00  0.00    +0.000 A 
ATOM     10  C   UNL     1       1.254   8.708  20.712  0.00  0.00    +0.000 A 
ATOM     11  C   UNL     1       1.520   9.035  19.390  0.00  0.00    +0.000 A 
ATOM     12  C   UNL     1       0.524   9.606  18.526  0.00  0.00    +0.000 A 
ATOM     13  C   UNL     1      -0.723  10.071  19.016  0.00  0.00    +0.000 A 
ENDROOT
BRANCH   6  14
ATOM     14  C   UNL     1      -1.952  12.570  22.971  0.00  0.00    +0.000 A 
ATOM     15  C   UNL     1      -1.167  13.587  23.452  0.00  0.00    +0.000 A 
ATOM     16  C   UNL     1      -1.774  14.771  23.815  0.00  0.00    +0.000 A 
ATOM     17  C   UNL     1      -3.166  14.897  23.727  0.00  0.00    +0.000 A 
ATOM     18  C   UNL     1      -3.723  16.281  23.580  0.00  0.00    +0.000 C 
ATOM     19  C   UNL     1      -3.966  13.760  23.552  0.00  0.00    +0.000 A 
ATOM     20  C   UNL     1      -5.438  13.687  23.837  0.00  0.00    +0.000 C 
ATOM     21  C   UNL     1      -3.350  12.635  23.024  0.00  0.00    +0.000 A 
ENDBRANCH   6  14
BRANCH   1  25
ATOM     22  C   UNL     1      -2.668  10.452  15.191  0.00  0.00    +0.000 C 
ATOM     23  C   UNL     1      -3.712  10.955  16.148  0.00  0.00    +0.000 C 
ATOM     24  O   UNL     1      -4.847  11.133  15.695  0.00  0.00    +0.000 OA
ATOM     25  N   UNL     1      -3.316  11.206  17.487  0.00  0.00    +0.000 N 
BRANCH  25  26
ATOM     26  C   UNL     1      -4.445  11.356  18.498  0.00  0.00    +0.000 A 
ATOM     27  C   UNL     1      -5.510  10.411  18.601  0.00  0.00    +0.000 A 
ATOM     28  C   UNL     1      -6.656  10.600  19.403  0.00  0.00    +0.000 A 
ATOM     29  C   UNL     1      -6.781  11.723  20.190  0.00  0.00    +0.000 A 
ATOM     30  C   UNL     1      -5.701  12.614  20.212  0.00  0.00    +0.000 A 
ATOM     31  C   UNL     1      -4.546  12.422  19.399  0.00  0.00    +0.000 A 
ENDBRANCH  25  26
ENDBRANCH   1  25
TORSDOF 3
ENDMDL
MODEL 3
REMARK VINA RESULT:      -7.8      2.507      7.521
REMARK  Name = 
REMARK  7 active torsions:
REMARK  status: ('A' for Active; 'I' for Inactive)
REMARK    1  A    between atoms: C_1  and  C_2
REMARK    2  A    between atoms: N_4  and  C_5
REMARK    3  A    between atoms: N_4  and  C_11
REMARK    4  A    between atoms: C_13  and  C_14
REMARK    5  A    between atoms: C_16  and  C_18
REMARK    6  A    between atoms: C_21  and  C_22
REMARK    7  A    between atoms: C_23  and  C_24
REMARK                            x       y       z     vdW  Elec       q    Type
REMARK                         _______ _______ _______ _____ _____    ______ ____
ROOT
ATOM      1  C   UNL     1      -3.378  15.310  22.797  0.00  0.00    +0.000 C 
ATOM      2  C   UNL     1      -3.300  14.868  21.344  0.00  0.00    +0.000 C 
ATOM      3  C   UNL     1      -4.549  14.430  20.674  0.00  0.00    +0.000 C 
ATOM      4  C   UNL     1      -5.431  15.686  20.444  0.00  0.00    +0.000 C 
ATOM      5  N   UNL     1      -5.162  13.258  21.330  0.00  0.00    +0.000 N 
ATOM      6  C   UNL     1      -5.671  12.158  20.630  0.00  0.00    +0.000 C 
ATOM      7  O   UNL     1      -6.568  11.385  20.952  0.00  0.00    +0.000 OA
ATOM      8  C   UNL     1      -5.550  13.563  22.667  0.00  0.00    +0.000 A 
ATOM      9  C   UNL     1      -6.823  13.069  23.086  0.00  0.00    +0.000 A 
ATOM     10  C   UNL     1      -7.775  13.964  23.548  0.00  0.00    +0.000 A 
ATOM     11  C   UNL     1      -7.339  15.262  23.771  0.00  0.00    +0.000 A 
ATOM     12  C   UNL     1      -5.951  15.628  23.699  0.00  0.00    +0.000 A 
ATOM     13  C   UNL     1      -4.964  14.747  23.189  0.00  0.00    +0.000 A 
ENDROOT
BRANCH   6  14
ATOM     14  C   UNL     1      -4.918  11.730  19.407  0.00  0.00    +0.000 A 
ATOM     15  C   UNL     1      -5.701  11.387  18.335  0.00  0.00    +0.000 A 
ATOM     16  C   UNL     1      -5.086  11.121  17.129  0.00  0.00    +0.000 A 
ATOM     17  C   UNL     1      -3.689  11.165  17.034  0.00  0.00    +0.000 A 
ATOM     18  C   UNL     1      -3.101  11.428  15.681  0.00  0.00    +0.000 C 
ATOM     19  C   UNL     1      -2.905  11.191  18.194  0.00  0.00    +0.000 A 
ATOM     20  C   UNL     1      -1.447  10.841  18.261  0.00  0.00    +0.000 C 
ATOM     21  C   UNL     1      -3.521  11.628  19.358  0.00  0.00    +0.000 A 
ENDBRANCH   6  14
BRANCH   1  25
ATOM     22  C   UNL     1      -1.479  17.096  24.377  0.00  0.00    +0.000 C 
ATOM     23  C   UNL     1      -0.887  15.872  23.735  0.00  0.00    +0.000 C 
ATOM     24  O   UNL     1       0.330  15.710  23.856  0.00  0.00    +0.000 OA
ATOM     25  N   UNL     1      -1.762  15.010  23.024  0.00  0.00    +0.000 N 
BRANCH  25  26
ATOM     26  C   UNL     1      -1.218  13.624  22.708  0.00  0.00    +0.000 A 
ATOM     27  C   UNL     1      -0.199  13.405  21.733  0.00  0.00    +0.000 A 
ATOM     28  C   UNL     1       0.211  12.128  21.293  0.00  0.00    +0.000 A 
ATOM     29  C   UNL     1      -0.339  10.992  21.840  0.00  0.00    +0.000 A 
ATOM     30  C   UNL     1      -1.253  11.161  22.887  0.00  0.00    +0.000 A 
ATOM     31  C   UNL     1      -1.667  12.451  23.328  0.00  0.00    +0.000 A 
ENDBRANCH  25  26
ENDBRANCH   1  25
TORSDOF 3
ENDMDL
MODEL 4
REMARK VINA RESULT:      -7.7      2.407      6.010
REMARK  Name = 
REMARK  7 active torsions:
REMARK  status: ('A' for Active; 'I' for Inactive)
REMARK    1  A    between atoms: C_1  and  C_2
REMARK    2  A    between atoms: N_4  and  C_5
REMARK    3  A    between atoms: N_4  and  C_11
REMARK    4  A    between atoms: C_13  and  C_14
REMARK    5  A    between atoms: C_16  and  C_18
REMARK    6  A    between atoms: C_21  and  C_22
REMARK    7  A    between atoms: C_23  and  C_24
REMARK                            x       y       z     vdW  Elec       q    Type
REMARK                         _______ _______ _______ _____ _____    ______ ____
ROOT
ATOM      1  C   UNL     1      -2.715  12.865  20.015  0.00  0.00    +0.000 C 
ATOM      2  C   UNL     1      -1.933  11.601  20.337  0.00  0.00    +0.000 C 
ATOM      3  C   UNL     1      -0.474  11.720  20.581  0.00  0.00    +0.000 C 
ATOM      4  C   UNL     1      -0.278  12.422  21.952  0.00  0.00    +0.000 C 
ATOM      5  N   UNL     1       0.253  12.254  19.413  0.00  0.00    +0.000 N 
ATOM      6  C   UNL     1       1.462  11.724  18.948  0.00  0.00    +0.000 C 
ATOM      7  O   UNL     1       2.370  12.287  18.343  0.00  0.00    +0.000 OA
ATOM      8  C   UNL     1      -0.175  13.577  19.103  0.00  0.00    +0.000 A 
ATOM      9  C   UNL     1       0.850  14.514  18.771  0.00  0.00    +0.000 A 
ATOM     10  C   UNL     1       0.965  15.678  19.514  0.00  0.00    +0.000 A 
ATOM     11  C   UNL     1      -0.070  15.947  20.397  0.00  0.00    +0.000 A 
ATOM     12  C   UNL     1      -1.277  15.166  20.425  0.00  0.00    +0.000 A 
ATOM     13  C   UNL     1      -1.404  13.950  19.709  0.00  0.00    +0.000 A 
ENDROOT
BRANCH   6  14
ATOM     14  C   UNL     1       1.617  10.235  19.016  0.00  0.00    +0.000 A 
ATOM     15  C   UNL     1       1.913   9.628  17.822  0.00  0.00    +0.000 A 
ATOM     16  C   UNL     1       2.213   8.283  17.825  0.00  0.00    +0.000 A 
ATOM     17  C   UNL     1       2.170   7.560  19.025  0.00  0.00    +0.000 A 
ATOM     18  C   UNL     1       3.003   6.318  19.110  0.00  0.00    +0.000 C 
ATOM     19  C   UNL     1       1.554   8.112  20.156  0.00  0.00    +0.000 A 
ATOM     20  C   UNL     1       1.083   7.334  21.350  0.00  0.00    +0.000 C 
ATOM     21  C   UNL     1       1.423   9.492  20.188  0.00  0.00    +0.000 A 
ENDBRANCH   6  14
BRANCH   1  25
ATOM     22  C   UNL     1      -5.681  13.083  20.683  0.00  0.00    +0.000 C 
ATOM     23  C   UNL     1      -5.292  12.081  19.632  0.00  0.00    +0.000 C 
ATOM     24  O   UNL     1      -6.197  11.389  19.157  0.00  0.00    +0.000 OA
ATOM     25  N   UNL     1      -3.920  11.989  19.283  0.00  0.00    +0.000 N 
BRANCH  25  26
ATOM     26  C   UNL     1      -3.611  11.250  17.988  0.00  0.00    +0.000 A 
ATOM     27  C   UNL     1      -2.628  10.217  17.912  0.00  0.00    +0.000 A 
ATOM     28  C   UNL     1      -2.196   9.628  16.705  0.00  0.00    +0.000 A 
ATOM     29  C   UNL     1      -2.759  10.000  15.506  0.00  0.00    +0.000 A 
ATOM     30  C   UNL     1      -3.813  10.919  15.550  0.00  0.00    +0.000 A 
ATOM     31  C   UNL     1      -4.247  11.515  16.770  0.00  0.00    +0.000 A 
ENDBRANCH  25  26
ENDBRANCH   1  25
TORSDOF 3
ENDMDL
MODEL 5
REMARK VINA RESULT:      -7.7      2.394      6.434
REMARK  Name = 
REMARK  7 active torsions:
REMARK  status: ('A' for Active; 'I' for Inactive)
REMARK    1  A    between atoms: C_1  and  C_2
REMARK    2  A    between atoms: N_4  and  C_5
REMARK    3  A    between atoms: N_4  and  C_11
REMARK    4  A    between atoms: C_13  and  C_14
REMARK    5  A    between atoms: C_16  and  C_18
REMARK    6  A    between atoms: C_21  and  C_22
REMARK    7  A    between atoms: C_23  and  C_24
REMARK                            x       y       z     vdW  Elec       q    Type
REMARK                         _______ _______ _______ _____ _____    ______ ____
ROOT
ATOM      1  C   UNL     1      -0.641  14.705  21.559  0.00  0.00    +0.000 C 
ATOM      2  C   UNL     1      -1.809  14.818  20.592  0.00  0.00    +0.000 C 
ATOM      3  C   UNL     1      -3.175  14.961  21.154  0.00  0.00    +0.000 C 
ATOM      4  C   UNL     1      -3.292  16.385  21.763  0.00  0.00    +0.000 C 
ATOM      5  N   UNL     1      -3.566  13.810  21.992  0.00  0.00    +0.000 N 
ATOM      6  C   UNL     1      -4.821  13.195  21.922  0.00  0.00    +0.000 C 
ATOM      7  O   UNL     1      -5.434  12.591  22.797  0.00  0.00    +0.000 OA
ATOM      8  C   UNL     1      -2.713  13.688  23.127  0.00  0.00    +0.000 A 
ATOM      9  C   UNL     1      -3.351  13.390  24.369  0.00  0.00    +0.000 A 
ATOM     10  C   UNL     1      -3.176  14.251  25.441  0.00  0.00    +0.000 A 
ATOM     11  C   UNL     1      -2.212  15.236  25.285  0.00  0.00    +0.000 A 
ATOM     12  C   UNL     1      -1.322  15.267  24.158  0.00  0.00    +0.000 A 
ATOM     13  C   UNL     1      -1.504  14.427  23.030  0.00  0.00    +0.000 A 
ENDROOT
BRANCH   6  14
ATOM     14  C   UNL     1      -5.440  13.078  20.563  0.00  0.00    +0.000 A 
ATOM     15  C   UNL     1      -6.656  13.697  20.425  0.00  0.00    +0.000 A 
ATOM     16  C   UNL     1      -7.225  13.760  19.171  0.00  0.00    +0.000 A 
ATOM     17  C   UNL     1      -6.578  13.162  18.081  0.00  0.00    +0.000 A 
ATOM     18  C   UNL     1      -6.890  13.699  16.717  0.00  0.00    +0.000 C 
ATOM     19  C   UNL     1      -5.522  12.266  18.294  0.00  0.00    +0.000 A 
ATOM     20  C   UNL     1      -5.017  11.271  17.291  0.00  0.00    +0.000 C 
ATOM     21  C   UNL     1      -4.865  12.350  19.513  0.00  0.00    +0.000 A 
ENDBRANCH   6  14
BRANCH   1  25
ATOM     22  C   UNL     1       2.313  15.296  21.089  0.00  0.00    +0.000 C 
ATOM     23  C   UNL     1       1.668  14.286  20.182  0.00  0.00    +0.000 C 
ATOM     24  O   UNL     1       2.370  13.810  19.285  0.00  0.00    +0.000 OA
ATOM     25  N   UNL     1       0.302  13.972  20.406  0.00  0.00    +0.000 N 
BRANCH  25  26
ATOM     26  C   UNL     1      -0.211  12.709  19.729  0.00  0.00    +0.000 A 
ATOM     27  C   UNL     1      -0.815  12.726  18.435  0.00  0.00    +0.000 A 
ATOM     28  C   UNL     1      -1.451  11.611  17.848  0.00  0.00    +0.000 A 
ATOM     29  C   UNL     1      -1.476  10.399  18.498  0.00  0.00    +0.000 A 
ATOM     30  C   UNL     1      -0.787  10.308  19.713  0.00  0.00    +0.000 A 
ATOM     31  C   UNL     1      -0.147  11.435  20.306  0.00  0.00    +0.000 A 
ENDBRANCH  25  26
ENDBRANCH   1  25
TORSDOF 3
ENDMDL
MODEL 6
REMARK VINA RESULT:      -7.6      2.307      3.499
REMARK  Name = 
REMARK  7 active torsions:
REMARK  status: ('A' for Active; 'I' for Inactive)
REMARK    1  A    between atoms: C_1  and  C_2
REMARK    2  A    between atoms: N_4  and  C_5
REMARK    3  A    between atoms: N_4  and  C_11
REMARK    4  A    between atoms: C_13  and  C_14
REMARK    5  A    between atoms: C_16  and  C_18
REMARK    6  A    between atoms: C_21  and  C_22
REMARK    7  A    between atoms: C_23  and  C_24
REMARK                            x       y       z     vdW  Elec       q    Type
REMARK                         _______ _______ _______ _____ _____    ______ ____
ROOT
ATOM      1  C   UNL     1      -1.814  10.575  18.602  0.00  0.00    +0.000 C 
ATOM      2  C   UNL     1      -1.101  11.855  18.194  0.00  0.00    +0.000 C 
ATOM      3  C   UNL     1       0.078  12.287  18.985  0.00  0.00    +0.000 C 
ATOM      4  C   UNL     1       1.243  11.310  18.672  0.00  0.00    +0.000 C 
ATOM      5  N   UNL     1      -0.254  12.545  20.400  0.00  0.00    +0.000 N 
ATOM      6  C   UNL     1       0.207  13.659  21.111  0.00  0.00    +0.000 C 
ATOM      7  O   UNL     1       0.410  13.777  22.315  0.00  0.00    +0.000 OA
ATOM      8  C   UNL     1      -0.714  11.361  21.044  0.00  0.00    +0.000 A 
ATOM      9  C   UNL     1      -0.215  11.120  22.360  0.00  0.00    +0.000 A 
ATOM     10  C   UNL     1       0.457   9.936  22.620  0.00  0.00    +0.000 A 
ATOM     11  C   UNL     1       0.407   8.971  21.624  0.00  0.00    +0.000 A 
ATOM     12  C   UNL     1      -0.431   9.108  20.465  0.00  0.00    +0.000 A 
ATOM     13  C   UNL     1      -1.094  10.322  20.153  0.00  0.00    +0.000 A 
ENDROOT
BRANCH   6  14
ATOM     14  C   UNL     1       0.296  14.951  20.356  0.00  0.00    +0.000 A 
ATOM     15  C   UNL     1       1.566  15.443  20.199  0.00  0.00    +0.000 A 
ATOM     16  C   UNL     1       1.748  16.549  19.395  0.00  0.00    +0.000 A 
ATOM     17  C   UNL     1       0.642  17.166  18.795  0.00  0.00    +0.000 A 
ATOM     18  C   UNL     1       0.889  17.956  17.546  0.00  0.00    +0.000 C 
ATOM     19  C   UNL     1      -0.655  16.856  19.226  0.00  0.00    +0.000 A 
ATOM     20  C   UNL     1      -1.872  17.698  18.977  0.00  0.00    +0.000 C 
ATOM     21  C   UNL     1      -0.825  15.649  19.887  0.00  0.00    +0.000 A 
ENDBRANCH   6  14
BRANCH   1  25
ATOM     22  C   UNL     1      -2.490  10.009  15.684  0.00  0.00    +0.000 C 
ATOM     23  C   UNL     1      -3.490  10.809  16.472  0.00  0.00    +0.000 C 
ATOM     24  O   UNL     1      -4.483  11.218  15.864  0.00  0.00    +0.000 OA
ATOM     25  N   UNL     1      -3.209  11.054  17.841  0.00  0.00    +0.000 N 
BRANCH  25  26
ATOM     26  C   UNL     1      -4.381  11.535  18.685  0.00  0.00    +0.000 A 
ATOM     27  C   UNL     1      -4.243  12.551  19.678  0.00  0.00    +0.000 A 
ATOM     28  C   UNL     1      -5.260  12.904  20.592  0.00  0.00    +0.000 A 
ATOM     29  C   UNL     1      -6.493  12.297  20.532  0.00  0.00    +0.000 A 
ATOM     30  C   UNL     1      -6.710  11.384  19.493  0.00  0.00    +0.000 A 
ATOM     31  C   UNL     1      -5.681  11.027  18.573  0.00  0.00    +0.000 A 
ENDBRANCH  25  26
ENDBRANCH   1  25
TORSDOF 3
ENDMDL
MODEL 7
REMARK VINA RESULT:      -7.6      3.105      5.703
REMARK  Name = 
REMARK  7 active torsions:
REMARK  status: ('A' for Active; 'I' for Inactive)
REMARK    1  A    between atoms: C_1  and  C_2
REMARK    2  A    between atoms: N_4  and  C_5
REMARK    3  A    between atoms: N_4  and  C_11
REMARK    4  A    between atoms: C_13  and  C_14
REMARK    5  A    between atoms: C_16  and  C_18
REMARK    6  A    between atoms: C_21  and  C_22
REMARK    7  A    between atoms: C_23  and  C_24
REMARK                            x       y       z     vdW  Elec       q    Type
REMARK                         _______ _______ _______ _____ _____    ______ ____
ROOT
ATOM      1  C   UNL     1       1.577  13.195  19.966  0.00  0.00    +0.000 C 
ATOM      2  C   UNL     1       0.603  13.350  21.124  0.00  0.00    +0.000 C 
ATOM      3  C   UNL     1      -0.518  12.383  21.233  0.00  0.00    +0.000 C 
ATOM      4  C   UNL     1       0.076  11.014  21.663  0.00  0.00    +0.000 C 
ATOM      5  N   UNL     1      -1.412  12.417  20.059  0.00  0.00    +0.000 N 
ATOM      6  C   UNL     1      -2.808  12.405  20.151  0.00  0.00    +0.000 C 
ATOM      7  O   UNL     1      -3.631  11.981  19.345  0.00  0.00    +0.000 OA
ATOM      8  C   UNL     1      -0.717  12.041  18.874  0.00  0.00    +0.000 A 
ATOM      9  C   UNL     1      -1.410  11.164  17.984  0.00  0.00    +0.000 A 
ATOM     10  C   UNL     1      -0.832   9.952  17.646  0.00  0.00    +0.000 A 
ATOM     11  C   UNL     1       0.488   9.772  18.034  0.00  0.00    +0.000 A 
ATOM     12  C   UNL     1       1.273  10.836  18.597  0.00  0.00    +0.000 A 
ATOM     13  C   UNL     1       0.698  12.070  18.992  0.00  0.00    +0.000 A 
ENDROOT
BRANCH   6  14
ATOM     14  C   UNL     1      -3.417  13.171  21.286  0.00  0.00    +0.000 A 
ATOM     15  C   UNL     1      -3.434  14.532  21.123  0.00  0.00    +0.000 A 
ATOM     16  C   UNL     1      -4.104  15.299  22.053  0.00  0.00    +0.000 A 
ATOM     17  C   UNL     1      -4.712  14.684  23.156  0.00  0.00    +0.000 A 
ATOM     18  C   UNL     1      -5.852  15.408  23.804  0.00  0.00    +0.000 C 
ATOM     19  C   UNL     1      -4.407  13.354  23.476  0.00  0.00    +0.000 A 
ATOM     20  C   UNL     1      -4.652  12.709  24.809  0.00  0.00    +0.000 C 
ATOM     21  C   UNL     1      -3.888  12.567  22.459  0.00  0.00    +0.000 A 
ENDBRANCH   6  14
BRANCH   1  25
ATOM     22  C   UNL     1       3.991  14.205  21.530  0.00  0.00    +0.000 C 
ATOM     23  C   UNL     1       3.145  15.239  20.841  0.00  0.00    +0.000 C 
ATOM     24  O   UNL     1       3.463  16.421  21.002  0.00  0.00    +0.000 OA
ATOM     25  N   UNL     1       2.036  14.786  20.080  0.00  0.00    +0.000 N 
BRANCH  25  26
ATOM     26  C   UNL     1       1.432  15.799  19.117  0.00  0.00    +0.000 A 
ATOM     27  C   UNL     1       2.216  16.497  18.149  0.00  0.00    +0.000 A 
ATOM     28  C   UNL     1       1.729  17.559  17.358  0.00  0.00    +0.000 A 
ATOM     29  C   UNL     1       0.414  17.952  17.450  0.00  0.00    +0.000 A 
ATOM     30  C   UNL     1      -0.419  17.211  18.296  0.00  0.00    +0.000 A 
ATOM     31  C   UNL     1       0.075  16.140  19.096  0.00  0.00    +0.000 A 
ENDBRANCH  25  26
ENDBRANCH   1  25
TORSDOF 3
ENDMDL
MODEL 8
REMARK VINA RESULT:      -7.6      2.230      5.943
REMARK  Name = 
REMARK  7 active torsions:
REMARK  status: ('A' for Active; 'I' for Inactive)
REMARK    1  A    between atoms: C_1  and  C_2
REMARK    2  A    between atoms: N_4  and  C_5
REMARK    3  A    between atoms: N_4  and  C_11
REMARK    4  A    between atoms: C_13  and  C_14
REMARK    5  A    between atoms: C_16  and  C_18
REMARK    6  A    between atoms: C_21  and  C_22
REMARK    7  A    between atoms: C_23  and  C_24
REMARK                            x       y       z     vdW  Elec       q    Type
REMARK                         _______ _______ _______ _____ _____    ______ ____
ROOT
ATOM      1  C   UNL     1      -5.773  14.345  21.995  0.00  0.00    +0.000 C 
ATOM      2  C   UNL     1      -4.949  13.068  21.930  0.00  0.00    +0.000 C 
ATOM      3  C   UNL     1      -3.755  12.956  22.805  0.00  0.00    +0.000 C 
ATOM      4  C   UNL     1      -4.252  12.789  24.267  0.00  0.00    +0.000 C 
ATOM      5  N   UNL     1      -2.748  13.998  22.525  0.00  0.00    +0.000 N 
ATOM      6  C   UNL     1      -1.376  13.742  22.434  0.00  0.00    +0.000 C 
ATOM      7  O   UNL     1      -0.433  14.492  22.665  0.00  0.00    +0.000 OA
ATOM      8  C   UNL     1      -3.271  15.299  22.782  0.00  0.00    +0.000 A 
ATOM      9  C   UNL     1      -2.402  16.208  23.458  0.00  0.00    +0.000 A 
ATOM     10  C   UNL     1      -2.816  16.774  24.653  0.00  0.00    +0.000 A 
ATOM     11  C   UNL     1      -4.146  16.576  24.997  0.00  0.00    +0.000 A 
ATOM     12  C   UNL     1      -5.089  15.973  24.096  0.00  0.00    +0.000 A 
ATOM     13  C   UNL     1      -4.686  15.348  22.889  0.00  0.00    +0.000 A 
ENDROOT
BRANCH   6  14
ATOM     14  C   UNL     1      -0.972  12.448  21.793  0.00  0.00    +0.000 A 
ATOM     15  C   UNL     1      -1.056  12.430  20.424  0.00  0.00    +0.000 A 
ATOM     16  C   UNL     1      -0.568  11.330  19.750  0.00  0.00    +0.000 A 
ATOM     17  C   UNL     1      -0.040  10.249  20.468  0.00  0.00    +0.000 A 
ATOM     18  C   UNL     1       0.949   9.373  19.763  0.00  0.00    +0.000 C 
ATOM     19  C   UNL     1      -0.262  10.145  21.848  0.00  0.00    +0.000 A 
ATOM     20  C   UNL     1      -0.117   8.888  22.654  0.00  0.00    +0.000 C 
ATOM     21  C   UNL     1      -0.589  11.314  22.520  0.00  0.00    +0.000 A 
ENDBRANCH   6  14
BRANCH   1  25
ATOM     22  C   UNL     1      -5.899  16.418  19.764  0.00  0.00    +0.000 C 
ATOM     23  C   UNL     1      -6.479  15.063  19.468  0.00  0.00    +0.000 C 
ATOM     24  O   UNL     1      -7.005  14.909  18.362  0.00  0.00    +0.000 OA
ATOM     25  N   UNL     1      -6.398  14.074  20.482  0.00  0.00    +0.000 N 
BRANCH  25  26
ATOM     26  C   UNL     1      -6.653  12.641  20.036  0.00  0.00    +0.000 A 
ATOM     27  C   UNL     1      -7.552  11.772  20.725  0.00  0.00    +0.000 A 
ATOM     28  C   UNL     1      -7.687  10.395  20.447  0.00  0.00    +0.000 A 
ATOM     29  C   UNL     1      -6.968   9.816  19.426  0.00  0.00    +0.000 A 
ATOM     30  C   UNL     1      -6.169  10.658  18.645  0.00  0.00    +0.000 A 
ATOM     31  C   UNL     1      -6.031  12.048  18.930  0.00  0.00    +0.000 A 
ENDBRANCH  25  26
ENDBRANCH   1  25
TORSDOF 3
ENDMDL
MODEL 9
REMARK VINA RESULT:      -7.5      2.283      3.608
REMARK  Name = 
REMARK  7 active torsions:
REMARK  status: ('A' for Active; 'I' for Inactive)
REMARK    1  A    between atoms: C_1  and  C_2
REMARK    2  A    between atoms: N_4  and  C_5
REMARK    3  A    between atoms: N_4  and  C_11
REMARK    4  A    between atoms: C_13  and  C_14
REMARK    5  A    between atoms: C_16  and  C_18
REMARK    6  A    between atoms: C_21  and  C_22
REMARK    7  A    between atoms: C_23  and  C_24
REMARK                            x       y       z     vdW  Elec       q    Type
REMARK                         _______ _______ _______ _____ _____    ______ ____
ROOT
ATOM      1  C   UNL     1      -1.873  10.398  18.595  0.00  0.00    +0.000 C 
ATOM      2  C   UNL     1      -1.085  11.588  18.069  0.00  0.00    +0.000 C 
ATOM      3  C   UNL     1       0.132  12.007  18.807  0.00  0.00    +0.000 C 
ATOM      4  C   UNL     1       1.226  10.931  18.569  0.00  0.00    +0.000 C 
ATOM      5  N   UNL     1      -0.160  12.409  20.197  0.00  0.00    +0.000 N 
ATOM      6  C   UNL     1       0.385  13.546  20.803  0.00  0.00    +0.000 C 
ATOM      7  O   UNL     1       0.614  13.754  21.990  0.00  0.00    +0.000 OA
ATOM      8  C   UNL     1      -0.686  11.318  20.947  0.00  0.00    +0.000 A 
ATOM      9  C   UNL     1      -0.183  11.159  22.274  0.00  0.00    +0.000 A 
ATOM     10  C   UNL     1       0.414   9.960  22.629  0.00  0.00    +0.000 A 
ATOM     11  C   UNL     1       0.286   8.918  21.723  0.00  0.00    +0.000 A 
ATOM     12  C   UNL     1      -0.560   9.010  20.564  0.00  0.00    +0.000 A 
ATOM     13  C   UNL     1      -1.147  10.233  20.154  0.00  0.00    +0.000 A 
ENDROOT
BRANCH   6  14
ATOM     14  C   UNL     1       0.547  14.759  19.938  0.00  0.00    +0.000 A 
ATOM     15  C   UNL     1      -0.621  15.410  19.630  0.00  0.00    +0.000 A 
ATOM     16  C   UNL     1      -0.546  16.614  18.960  0.00  0.00    +0.000 A 
ATOM     17  C   UNL     1       0.702  17.122  18.575  0.00  0.00    +0.000 A 
ATOM     18  C   UNL     1       0.810  18.603  18.378  0.00  0.00    +0.000 C 
ATOM     19  C   UNL     1       1.836  16.299  18.604  0.00  0.00    +0.000 A 
ATOM     20  C   UNL     1       3.115  16.564  17.865  0.00  0.00    +0.000 C 
ATOM     21  C   UNL     1       1.780  15.183  19.425  0.00  0.00    +0.000 A 
ENDBRANCH   6  14
BRANCH   1  25
ATOM     22  C   UNL     1      -2.503   9.851  15.662  0.00  0.00    +0.000 C 
ATOM     23  C   UNL     1      -3.504  10.665  16.434  0.00  0.00    +0.000 C 
ATOM     24  O   UNL     1      -4.479  11.090  15.808  0.00  0.00    +0.000 OA
ATOM     25  N   UNL     1      -3.246  10.901  17.809  0.00  0.00    +0.000 N 
BRANCH  25  26
ATOM     26  C   UNL     1      -4.426  11.399  18.631  0.00  0.00    +0.000 A 
ATOM     27  C   UNL     1      -4.297  12.435  19.605  0.00  0.00    +0.000 A 
ATOM     28  C   UNL     1      -5.323  12.806  20.501  0.00  0.00    +0.000 A 
ATOM     29  C   UNL     1      -6.556  12.198  20.442  0.00  0.00    +0.000 A 
ATOM     30  C   UNL     1      -6.762  11.264  19.420  0.00  0.00    +0.000 A 
ATOM     31  C   UNL     1      -5.724  10.888  18.518  0.00  0.00    +0.000 A 
ENDBRANCH  25  26
ENDBRANCH   1  25
TORSDOF 3
ENDMDL
