MODEL 1
REMARK VINA RESULT:      -7.7      0.000      0.000
REMARK  Name = 
REMARK  9 active torsions:
REMARK  status: ('A' for Active; 'I' for Inactive)
REMARK    1  A    between atoms: C_1  and  O_2
REMARK    2  A    between atoms: O_2  and  C_3
REMARK    3  A    between atoms: C_3  and  C_4
REMARK    4  A    between atoms: C_4  and  N_5
REMARK    5  A    between atoms: C_7  and  C_8
REMARK    6  A    between atoms: C_8  and  C_10
REMARK    7  A    between atoms: N_12  and  C_13
REMARK    8  A    between atoms: C_16  and  O_17
REMARK    9  A    between atoms: O_17  and  C_18
REMARK                            x       y       z     vdW  Elec       q    Type
REMARK                         _______ _______ _______ _____ _____    ______ ____
ROOT
ATOM      1  C   UNL     1       2.582   7.678  18.083  0.00  0.00    +0.000 C 
ATOM      2  O   UNL     1       2.555   8.528  17.193  0.00  0.00    +0.000 OA
ENDROOT
BRANCH   1   5
ATOM      3  N   UNL     1       5.007   4.976  17.682  0.00  0.00    +0.000 N 
ATOM      4  C   UNL     1       4.694   6.304  17.815  0.00  0.00    +0.000 A 
ATOM      5  C   UNL     1       3.320   6.423  17.978  0.00  0.00    +0.000 A 
ATOM      6  C   UNL     1       2.800   5.092  18.004  0.00  0.00    +0.000 A 
ATOM      7  C   UNL     1       1.525   4.514  18.147  0.00  0.00    +0.000 A 
ATOM      8  C   UNL     1       1.429   3.123  18.107  0.00  0.00    +0.000 A 
ATOM      9  C   UNL     1       2.583   2.374  17.931  0.00  0.00    +0.000 A 
ATOM     10  N   UNL     1       3.829   2.873  17.790  0.00  0.00    +0.000 NA
ATOM     11  C   UNL     1       3.874   4.221  17.836  0.00  0.00    +0.000 A 
BRANCH   3  12
ATOM     12  C   UNL     1       6.323   4.452  17.363  0.00  0.00    +0.000 C 
BRANCH  12  13
ATOM     13  C   UNL     1       7.339   5.562  17.105  0.00  0.00    +0.000 C 
BRANCH  13  15
ATOM     14  C   UNL     1       7.047   4.695  14.942  0.00  0.00    +0.000 C 
ATOM     15  O   UNL     1       7.409   5.843  15.705  0.00  0.00    +0.000 OA
ENDBRANCH  13  15
ENDBRANCH  12  13
ENDBRANCH   3  12
ENDBRANCH   1   5
BRANCH   1  16
ATOM     16  C   UNL     1       1.860   8.020  19.389  0.00  0.00    +0.000 C 
ATOM     17  O   UNL     1       2.004   7.266  20.339  0.00  0.00    +0.000 OA
ATOM     18  N   UNL     1       1.115   9.187  19.334  0.00  0.00    +0.000 N 
ATOM     19  H   UNL     1       0.953   9.579  18.410  0.00  0.00    +0.000 HD
BRANCH  18  20
ATOM     20  C   UNL     1       0.489   9.796  20.445  0.00  0.00    +0.000 A 
ATOM     21  C   UNL     1       0.534   9.257  21.728  0.00  0.00    +0.000 A 
ATOM     22  C   UNL     1      -0.117   9.895  22.779  0.00  0.00    +0.000 A 
ATOM     23  C   UNL     1      -0.792  11.075  22.519  0.00  0.00    +0.000 A 
ATOM     24  N   UNL     1      -0.841  11.651  21.299  0.00  0.00    +0.000 NA
ATOM     25  C   UNL     1      -0.196  11.001  20.294  0.00  0.00    +0.000 A 
BRANCH  23  26
ATOM     26  O   UNL     1      -1.435  11.644  23.597  0.00  0.00    +0.000 OA
ATOM     27  C   UNL     1      -2.746  12.101  23.293  0.00  0.00    +0.000 C 
ENDBRANCH  23  26
ENDBRANCH  18  20
ENDBRANCH   1  16
TORSDOF 7
ENDMDL
MODEL 2
REMARK VINA RESULT:      -7.7      2.517      4.063
REMARK  Name = 
REMARK  9 active torsions:
REMARK  status: ('A' for Active; 'I' for Inactive)
REMARK    1  A    between atoms: C_1  and  O_2
REMARK    2  A    between atoms: O_2  and  C_3
REMARK    3  A    between atoms: C_3  and  C_4
REMARK    4  A    between atoms: C_4  and  N_5
REMARK    5  A    between atoms: C_7  and  C_8
REMARK    6  A    between atoms: C_8  and  C_10
REMARK    7  A    between atoms: N_12  and  C_13
REMARK    8  A    between atoms: C_16  and  O_17
REMARK    9  A    between atoms: O_17  and  C_18
REMARK                            x       y       z     vdW  Elec       q    Type
REMARK                         _______ _______ _______ _____ _____    ______ ____
ROOT
ATOM      1  C   UNL     1       3.413   3.784  18.056  0.00  0.00    +0.000 C 
ATOM      2  O   UNL     1       2.964   2.638  18.028  0.00  0.00    +0.000 OA
ENDROOT
BRANCH   1   5
ATOM      3  N   UNL     1       6.941   4.732  17.991  0.00  0.00    +0.000 N 
ATOM      4  C   UNL     1       5.797   4.392  18.666  0.00  0.00    +0.000 A 
ATOM      5  C   UNL     1       4.799   4.116  17.740  0.00  0.00    +0.000 A 
ATOM      6  C   UNL     1       5.400   4.241  16.449  0.00  0.00    +0.000 A 
ATOM      7  C   UNL     1       4.966   4.090  15.119  0.00  0.00    +0.000 A 
ATOM      8  C   UNL     1       5.890   4.319  14.099  0.00  0.00    +0.000 A 
ATOM      9  C   UNL     1       7.186   4.679  14.435  0.00  0.00    +0.000 A 
ATOM     10  N   UNL     1       7.657   4.837  15.690  0.00  0.00    +0.000 NA
ATOM     11  C   UNL     1       6.731   4.606  16.642  0.00  0.00    +0.000 A 
BRANCH   3  12
ATOM     12  C   UNL     1       8.165   5.214  18.605  0.00  0.00    +0.000 C 
BRANCH  12  13
ATOM     13  C   UNL     1       8.122   6.716  18.876  0.00  0.00    +0.000 C 
BRANCH  13  15
ATOM     14  C   UNL     1       7.940   8.755  17.726  0.00  0.00    +0.000 C 
ATOM     15  O   UNL     1       7.520   7.394  17.771  0.00  0.00    +0.000 OA
ENDBRANCH  13  15
ENDBRANCH  12  13
ENDBRANCH   3  12
ENDBRANCH   1   5
BRANCH   1  16
ATOM     16  C   UNL     1       2.421   4.908  18.364  0.00  0.00    +0.000 C 
ATOM     17  O   UNL     1       1.276   4.599  18.657  0.00  0.00    +0.000 OA
ATOM     18  N   UNL     1       2.963   6.180  18.275  0.00  0.00    +0.000 N 
ATOM     19  H   UNL     1       3.873   6.256  17.829  0.00  0.00    +0.000 HD
BRANCH  18  20
ATOM     20  C   UNL     1       2.299   7.366  18.660  0.00  0.00    +0.000 A 
ATOM     21  C   UNL     1       1.953   8.367  17.756  0.00  0.00    +0.000 A 
ATOM     22  C   UNL     1       1.314   9.521  18.198  0.00  0.00    +0.000 A 
ATOM     23  C   UNL     1       1.023   9.640  19.547  0.00  0.00    +0.000 A 
ATOM     24  N   UNL     1       1.314   8.686  20.457  0.00  0.00    +0.000 NA
ATOM     25  C   UNL     1       1.939   7.572  19.992  0.00  0.00    +0.000 A 
BRANCH  23  26
ATOM     26  O   UNL     1       0.413  10.816  19.923  0.00  0.00    +0.000 OA
ATOM     27  C   UNL     1      -0.138  11.538  18.830  0.00  0.00    +0.000 C 
ENDBRANCH  23  26
ENDBRANCH  18  20
ENDBRANCH   1  16
TORSDOF 7
ENDMDL
MODEL 3
REMARK VINA RESULT:      -7.7      0.835      1.142
REMARK  Name = 
REMARK  9 active torsions:
REMARK  status: ('A' for Active; 'I' for Inactive)
REMARK    1  A    between atoms: C_1  and  O_2
REMARK    2  A    between atoms: O_2  and  C_3
REMARK    3  A    between atoms: C_3  and  C_4
REMARK    4  A    between atoms: C_4  and  N_5
REMARK    5  A    between atoms: C_7  and  C_8
REMARK    6  A    between atoms: C_8  and  C_10
REMARK    7  A    between atoms: N_12  and  C_13
REMARK    8  A    between atoms: C_16  and  O_17
REMARK    9  A    between atoms: O_17  and  C_18
REMARK                            x       y       z     vdW  Elec       q    Type
REMARK                         _______ _______ _______ _____ _____    ______ ____
ROOT
ATOM      1  C   UNL     1       2.747   7.620  17.932  0.00  0.00    +0.000 C 
ATOM      2  O   UNL     1       2.778   8.532  17.106  0.00  0.00    +0.000 OA
ENDROOT
BRANCH   1   5
ATOM      3  N   UNL     1       4.945   4.797  17.195  0.00  0.00    +0.000 N 
ATOM      4  C   UNL     1       4.720   6.140  17.350  0.00  0.00    +0.000 A 
ATOM      5  C   UNL     1       3.399   6.328  17.734  0.00  0.00    +0.000 A 
ATOM      6  C   UNL     1       2.828   5.025  17.871  0.00  0.00    +0.000 A 
ATOM      7  C   UNL     1       1.569   4.513  18.232  0.00  0.00    +0.000 A 
ATOM      8  C   UNL     1       1.402   3.128  18.237  0.00  0.00    +0.000 A 
ATOM      9  C   UNL     1       2.476   2.321  17.890  0.00  0.00    +0.000 A 
ATOM     10  N   UNL     1       3.703   2.756  17.537  0.00  0.00    +0.000 NA
ATOM     11  C   UNL     1       3.818   4.100  17.547  0.00  0.00    +0.000 A 
BRANCH   3  12
ATOM     12  C   UNL     1       6.165   4.204  16.676  0.00  0.00    +0.000 C 
BRANCH  12  13
ATOM     13  C   UNL     1       7.415   4.915  17.188  0.00  0.00    +0.000 C 
BRANCH  13  15
ATOM     14  C   UNL     1       7.811   5.737  19.352  0.00  0.00    +0.000 C 
ATOM     15  O   UNL     1       7.648   4.567  18.555  0.00  0.00    +0.000 OA
ENDBRANCH  13  15
ENDBRANCH  12  13
ENDBRANCH   3  12
ENDBRANCH   1   5
BRANCH   1  16
ATOM     16  C   UNL     1       2.051   7.915  19.263  0.00  0.00    +0.000 C 
ATOM     17  O   UNL     1       2.294   7.186  20.212  0.00  0.00    +0.000 OA
ATOM     18  N   UNL     1       1.208   9.014  19.228  0.00  0.00    +0.000 N 
ATOM     19  H   UNL     1       0.978   9.381  18.308  0.00  0.00    +0.000 HD
BRANCH  18  20
ATOM     20  C   UNL     1       0.576   9.580  20.358  0.00  0.00    +0.000 A 
ATOM     21  C   UNL     1       0.788   9.118  21.655  0.00  0.00    +0.000 A 
ATOM     22  C   UNL     1       0.122   9.706  22.726  0.00  0.00    +0.000 A 
ATOM     23  C   UNL     1      -0.736  10.762  22.471  0.00  0.00    +0.000 A 
ATOM     24  N   UNL     1      -0.952  11.264  21.236  0.00  0.00    +0.000 NA
ATOM     25  C   UNL     1      -0.289  10.665  20.212  0.00  0.00    +0.000 A 
BRANCH  23  26
ATOM     26  O   UNL     1      -1.381  11.284  23.571  0.00  0.00    +0.000 OA
ATOM     27  C   UNL     1      -2.503  12.089  23.235  0.00  0.00    +0.000 C 
ENDBRANCH  23  26
ENDBRANCH  18  20
ENDBRANCH   1  16
TORSDOF 7
ENDMDL
MODEL 4
REMARK VINA RESULT:      -7.5      2.306      8.507
REMARK  Name = 
REMARK  9 active torsions:
REMARK  status: ('A' for Active; 'I' for Inactive)
REMARK    1  A    between atoms: C_1  and  O_2
REMARK    2  A    between atoms: O_2  and  C_3
REMARK    3  A    between atoms: C_3  and  C_4
REMARK    4  A    between atoms: C_4  and  N_5
REMARK    5  A    between atoms: C_7  and  C_8
REMARK    6  A    between atoms: C_8  and  C_10
REMARK    7  A    between atoms: N_12  and  C_13
REMARK    8  A    between atoms: C_16  and  O_17
REMARK    9  A    between atoms: O_17  and  C_18
REMARK                            x       y       z     vdW  Elec       q    Type
REMARK                         _______ _______ _______ _____ _____    ______ ____
ROOT
ATOM      1  C   UNL     1       1.567   9.742  18.229  0.00  0.00    +0.000 C 
ATOM      2  O   UNL     1       2.234  10.090  17.254  0.00  0.00    +0.000 OA
ENDROOT
BRANCH   1   5
ATOM      3  N   UNL     1      -0.734  11.871  20.105  0.00  0.00    +0.000 N 
ATOM      4  C   UNL     1       0.522  11.381  19.855  0.00  0.00    +0.000 A 
ATOM      5  C   UNL     1       0.455  10.521  18.766  0.00  0.00    +0.000 A 
ATOM      6  C   UNL     1      -0.899  10.550  18.311  0.00  0.00    +0.000 A 
ATOM      7  C   UNL     1      -1.624   9.936  17.273  0.00  0.00    +0.000 A 
ATOM      8  C   UNL     1      -2.984  10.226  17.162  0.00  0.00    +0.000 A 
ATOM      9  C   UNL     1      -3.559  11.101  18.072  0.00  0.00    +0.000 A 
ATOM     10  N   UNL     1      -2.915  11.719  19.084  0.00  0.00    +0.000 NA
ATOM     11  C   UNL     1      -1.604  11.409  19.151  0.00  0.00    +0.000 A 
BRANCH   3  12
ATOM     12  C   UNL     1      -1.102  12.697  21.240  0.00  0.00    +0.000 C 
BRANCH  12  13
ATOM     13  C   UNL     1      -1.701  11.878  22.380  0.00  0.00    +0.000 C 
BRANCH  13  15
ATOM     14  C   UNL     1      -0.490  10.016  23.142  0.00  0.00    +0.000 C 
ATOM     15  O   UNL     1      -0.664  11.426  23.254  0.00  0.00    +0.000 OA
ENDBRANCH  13  15
ENDBRANCH  12  13
ENDBRANCH   3  12
ENDBRANCH   1   5
BRANCH   1  16
ATOM     16  C   UNL     1       1.892   8.376  18.837  0.00  0.00    +0.000 C 
ATOM     17  O   UNL     1       1.586   8.179  20.003  0.00  0.00    +0.000 OA
ATOM     18  N   UNL     1       2.507   7.498  17.959  0.00  0.00    +0.000 N 
ATOM     19  H   UNL     1       2.861   7.896  17.093  0.00  0.00    +0.000 HD
BRANCH  18  20
ATOM     20  C   UNL     1       2.765   6.136  18.231  0.00  0.00    +0.000 A 
ATOM     21  C   UNL     1       1.861   5.120  17.930  0.00  0.00    +0.000 A 
ATOM     22  C   UNL     1       2.166   3.797  18.237  0.00  0.00    +0.000 A 
ATOM     23  C   UNL     1       3.386   3.521  18.831  0.00  0.00    +0.000 A 
ATOM     24  N   UNL     1       4.306   4.467  19.116  0.00  0.00    +0.000 NA
ATOM     25  C   UNL     1       3.976   5.749  18.806  0.00  0.00    +0.000 A 
BRANCH  23  26
ATOM     26  O   UNL     1       3.615   2.196  19.131  0.00  0.00    +0.000 OA
ATOM     27  C   UNL     1       4.468   2.013  20.253  0.00  0.00    +0.000 C 
ENDBRANCH  23  26
ENDBRANCH  18  20
ENDBRANCH   1  16
TORSDOF 7
ENDMDL
MODEL 5
REMARK VINA RESULT:      -7.5      2.363      3.737
REMARK  Name = 
REMARK  9 active torsions:
REMARK  status: ('A' for Active; 'I' for Inactive)
REMARK    1  A    between atoms: C_1  and  O_2
REMARK    2  A    between atoms: O_2  and  C_3
REMARK    3  A    between atoms: C_3  and  C_4
REMARK    4  A    between atoms: C_4  and  N_5
REMARK    5  A    between atoms: C_7  and  C_8
REMARK    6  A    between atoms: C_8  and  C_10
REMARK    7  A    between atoms: N_12  and  C_13
REMARK    8  A    between atoms: C_16  and  O_17
REMARK    9  A    between atoms: O_17  and  C_18
REMARK                            x       y       z     vdW  Elec       q    Type
REMARK                         _______ _______ _______ _____ _____    ______ ____
ROOT
ATOM      1  C   UNL     1       3.784   4.568  18.955  0.00  0.00    +0.000 C 
ATOM      2  O   UNL     1       3.571   3.429  19.374  0.00  0.00    +0.000 OA
ENDROOT
BRANCH   1   5
ATOM      3  N   UNL     1       7.070   5.954  18.163  0.00  0.00    +0.000 N 
ATOM      4  C   UNL     1       6.068   5.660  19.053  0.00  0.00    +0.000 A 
ATOM      5  C   UNL     1       5.056   4.991  18.377  0.00  0.00    +0.000 A 
ATOM      6  C   UNL     1       5.507   4.828  17.031  0.00  0.00    +0.000 A 
ATOM      7  C   UNL     1       4.988   4.244  15.861  0.00  0.00    +0.000 A 
ATOM      8  C   UNL     1       5.761   4.301  14.701  0.00  0.00    +0.000 A 
ATOM      9  C   UNL     1       7.000   4.925  14.750  0.00  0.00    +0.000 A 
ATOM     10  N   UNL     1       7.547   5.500  15.842  0.00  0.00    +0.000 NA
ATOM     11  C   UNL     1       6.765   5.420  16.938  0.00  0.00    +0.000 A 
BRANCH   3  12
ATOM     12  C   UNL     1       8.240   6.761  18.454  0.00  0.00    +0.000 C 
BRANCH  12  13
ATOM     13  C   UNL     1       8.071   8.208  17.997  0.00  0.00    +0.000 C 
BRANCH  13  15
ATOM     14  C   UNL     1       9.012  10.343  18.267  0.00  0.00    +0.000 C 
ATOM     15  O   UNL     1       8.763   9.085  18.890  0.00  0.00    +0.000 OA
ENDBRANCH  13  15
ENDBRANCH  12  13
ENDBRANCH   3  12
ENDBRANCH   1   5
BRANCH   1  16
ATOM     16  C   UNL     1       2.606   5.545  18.981  0.00  0.00    +0.000 C 
ATOM     17  O   UNL     1       1.553   5.189  18.475  0.00  0.00    +0.000 OA
ATOM     18  N   UNL     1       2.885   6.751  19.603  0.00  0.00    +0.000 N 
ATOM     19  H   UNL     1       3.865   6.949  19.791  0.00  0.00    +0.000 HD
BRANCH  18  20
ATOM     20  C   UNL     1       1.928   7.749  19.892  0.00  0.00    +0.000 A 
ATOM     21  C   UNL     1       1.260   7.827  21.111  0.00  0.00    +0.000 A 
ATOM     22  C   UNL     1       0.314   8.825  21.330  0.00  0.00    +0.000 A 
ATOM     23  C   UNL     1       0.070   9.736  20.317  0.00  0.00    +0.000 A 
ATOM     24  N   UNL     1       0.712   9.719  19.129  0.00  0.00    +0.000 NA
ATOM     25  C   UNL     1       1.627   8.730  18.947  0.00  0.00    +0.000 A 
BRANCH  23  26
ATOM     26  O   UNL     1      -0.893  10.684  20.588  0.00  0.00    +0.000 OA
ATOM     27  C   UNL     1      -0.384  12.010  20.621  0.00  0.00    +0.000 C 
ENDBRANCH  23  26
ENDBRANCH  18  20
ENDBRANCH   1  16
TORSDOF 7
ENDMDL
MODEL 6
REMARK VINA RESULT:      -7.4      1.408      3.424
REMARK  Name = 
REMARK  9 active torsions:
REMARK  status: ('A' for Active; 'I' for Inactive)
REMARK    1  A    between atoms: C_1  and  O_2
REMARK    2  A    between atoms: O_2  and  C_3
REMARK    3  A    between atoms: C_3  and  C_4
REMARK    4  A    between atoms: C_4  and  N_5
REMARK    5  A    between atoms: C_7  and  C_8
REMARK    6  A    between atoms: C_8  and  C_10
REMARK    7  A    between atoms: N_12  and  C_13
REMARK    8  A    between atoms: C_16  and  O_17
REMARK    9  A    between atoms: O_17  and  C_18
REMARK                            x       y       z     vdW  Elec       q    Type
REMARK                         _______ _______ _______ _____ _____    ______ ____
ROOT
ATOM      1  C   UNL     1       2.581   7.863  17.985  0.00  0.00    +0.000 C 
ATOM      2  O   UNL     1       2.662   8.737  17.121  0.00  0.00    +0.000 OA
ENDROOT
BRANCH   1   5
ATOM      3  N   UNL     1       3.324   4.290  17.826  0.00  0.00    +0.000 N 
ATOM      4  C   UNL     1       2.443   5.333  17.957  0.00  0.00    +0.000 A 
ATOM      5  C   UNL     1       3.146   6.525  17.836  0.00  0.00    +0.000 A 
ATOM      6  C   UNL     1       4.502   6.169  17.559  0.00  0.00    +0.000 A 
ATOM      7  C   UNL     1       5.697   6.872  17.322  0.00  0.00    +0.000 A 
ATOM      8  C   UNL     1       6.857   6.133  17.093  0.00  0.00    +0.000 A 
ATOM      9  C   UNL     1       6.785   4.748  17.107  0.00  0.00    +0.000 A 
ATOM     10  N   UNL     1       5.669   4.022  17.327  0.00  0.00    +0.000 NA
ATOM     11  C   UNL     1       4.573   4.778  17.543  0.00  0.00    +0.000 A 
BRANCH   3  12
ATOM     12  C   UNL     1       2.999   2.889  18.022  0.00  0.00    +0.000 C 
BRANCH  12  13
ATOM     13  C   UNL     1       1.630   2.699  18.670  0.00  0.00    +0.000 C 
BRANCH  13  15
ATOM     14  C   UNL     1       1.275   3.090  20.958  0.00  0.00    +0.000 C 
ATOM     15  O   UNL     1       1.784   2.175  19.991  0.00  0.00    +0.000 OA
ENDBRANCH  13  15
ENDBRANCH  12  13
ENDBRANCH   3  12
ENDBRANCH   1   5
BRANCH   1  16
ATOM     16  C   UNL     1       1.919   8.258  19.307  0.00  0.00    +0.000 C 
ATOM     17  O   UNL     1       2.134   7.562  20.287  0.00  0.00    +0.000 OA
ATOM     18  N   UNL     1       1.136   9.398  19.229  0.00  0.00    +0.000 N 
ATOM     19  H   UNL     1       0.914   9.733  18.295  0.00  0.00    +0.000 HD
BRANCH  18  20
ATOM     20  C   UNL     1       0.550  10.050  20.337  0.00  0.00    +0.000 A 
ATOM     21  C   UNL     1      -0.276   9.398  21.250  0.00  0.00    +0.000 A 
ATOM     22  C   UNL     1      -0.837  10.098  22.313  0.00  0.00    +0.000 A 
ATOM     23  C   UNL     1      -0.544  11.445  22.444  0.00  0.00    +0.000 A 
ATOM     24  N   UNL     1       0.272  12.115  21.603  0.00  0.00    +0.000 NA
ATOM     25  C   UNL     1       0.802  11.401  20.574  0.00  0.00    +0.000 A 
BRANCH  23  26
ATOM     26  O   UNL     1      -1.150  12.085  23.503  0.00  0.00    +0.000 OA
ATOM     27  C   UNL     1      -2.569  12.083  23.424  0.00  0.00    +0.000 C 
ENDBRANCH  23  26
ENDBRANCH  18  20
ENDBRANCH   1  16
TORSDOF 7
ENDMDL
MODEL 7
REMARK VINA RESULT:      -7.3      2.277      3.634
REMARK  Name = 
REMARK  9 active torsions:
REMARK  status: ('A' for Active; 'I' for Inactive)
REMARK    1  A    between atoms: C_1  and  O_2
REMARK    2  A    between atoms: O_2  and  C_3
REMARK    3  A    between atoms: C_3  and  C_4
REMARK    4  A    between atoms: C_4  and  N_5
REMARK    5  A    between atoms: C_7  and  C_8
REMARK    6  A    between atoms: C_8  and  C_10
REMARK    7  A    between atoms: N_12  and  C_13
REMARK    8  A    between atoms: C_16  and  O_17
REMARK    9  A    between atoms: O_17  and  C_18
REMARK                            x       y       z     vdW  Elec       q    Type
REMARK                         _______ _______ _______ _____ _____    ______ ____
ROOT
ATOM      1  C   UNL     1       3.202   4.966  17.961  0.00  0.00    +0.000 C 
ATOM      2  O   UNL     1       2.534   4.095  17.403  0.00  0.00    +0.000 OA
ENDROOT
BRANCH   1   5
ATOM      3  N   UNL     1       6.694   6.025  17.790  0.00  0.00    +0.000 N 
ATOM      4  C   UNL     1       5.517   5.860  18.474  0.00  0.00    +0.000 A 
ATOM      5  C   UNL     1       4.595   5.251  17.632  0.00  0.00    +0.000 A 
ATOM      6  C   UNL     1       5.280   4.986  16.406  0.00  0.00    +0.000 A 
ATOM      7  C   UNL     1       4.945   4.395  15.174  0.00  0.00    +0.000 A 
ATOM      8  C   UNL     1       5.929   4.332  14.188  0.00  0.00    +0.000 A 
ATOM      9  C   UNL     1       7.188   4.848  14.461  0.00  0.00    +0.000 A 
ATOM     10  N   UNL     1       7.565   5.424  15.622  0.00  0.00    +0.000 NA
ATOM     11  C   UNL     1       6.583   5.462  16.545  0.00  0.00    +0.000 A 
BRANCH   3  12
ATOM     12  C   UNL     1       7.857   6.741  18.282  0.00  0.00    +0.000 C 
BRANCH  12  13
ATOM     13  C   UNL     1       7.884   8.192  17.809  0.00  0.00    +0.000 C 
BRANCH  13  15
ATOM     14  C   UNL     1       8.804  10.315  18.205  0.00  0.00    +0.000 C 
ATOM     15  O   UNL     1       8.722   8.969  18.667  0.00  0.00    +0.000 OA
ENDBRANCH  13  15
ENDBRANCH  12  13
ENDBRANCH   3  12
ENDBRANCH   1   5
BRANCH   1  16
ATOM     16  C   UNL     1       2.479   5.835  18.994  0.00  0.00    +0.000 C 
ATOM     17  O   UNL     1       2.178   5.327  20.063  0.00  0.00    +0.000 OA
ATOM     18  N   UNL     1       2.255   7.138  18.578  0.00  0.00    +0.000 N 
ATOM     19  H   UNL     1       2.397   7.329  17.590  0.00  0.00    +0.000 HD
BRANCH  18  20
ATOM     20  C   UNL     1       1.751   8.170  19.401  0.00  0.00    +0.000 A 
ATOM     21  C   UNL     1       1.324   9.397  18.899  0.00  0.00    +0.000 A 
ATOM     22  C   UNL     1       0.851  10.381  19.761  0.00  0.00    +0.000 A 
ATOM     23  C   UNL     1       0.805  10.104  21.117  0.00  0.00    +0.000 A 
ATOM     24  N   UNL     1       1.181   8.921  21.648  0.00  0.00    +0.000 NA
ATOM     25  C   UNL     1       1.640   7.982  20.778  0.00  0.00    +0.000 A 
BRANCH  23  26
ATOM     26  O   UNL     1       0.351  11.128  21.919  0.00  0.00    +0.000 OA
ATOM     27  C   UNL     1      -0.604  11.963  21.277  0.00  0.00    +0.000 C 
ENDBRANCH  23  26
ENDBRANCH  18  20
ENDBRANCH   1  16
TORSDOF 7
ENDMDL
MODEL 8
REMARK VINA RESULT:      -7.3      5.108      7.539
REMARK  Name = 
REMARK  9 active torsions:
REMARK  status: ('A' for Active; 'I' for Inactive)
REMARK    1  A    between atoms: C_1  and  O_2
REMARK    2  A    between atoms: O_2  and  C_3
REMARK    3  A    between atoms: C_3  and  C_4
REMARK    4  A    between atoms: C_4  and  N_5
REMARK    5  A    between atoms: C_7  and  C_8
REMARK    6  A    between atoms: C_8  and  C_10
REMARK    7  A    between atoms: N_12  and  C_13
REMARK    8  A    between atoms: C_16  and  O_17
REMARK    9  A    between atoms: O_17  and  C_18
REMARK                            x       y       z     vdW  Elec       q    Type
REMARK                         _______ _______ _______ _____ _____    ______ ____
ROOT
ATOM      1  C   UNL     1       7.801   6.473  18.656  0.00  0.00    +0.000 C 
ATOM      2  O   UNL     1       8.560   5.990  19.496  0.00  0.00    +0.000 OA
ENDROOT
BRANCH   1   5
ATOM      3  N   UNL     1       4.724   4.654  17.905  0.00  0.00    +0.000 N 
ATOM      4  C   UNL     1       5.518   5.377  18.757  0.00  0.00    +0.000 A 
ATOM      5  C   UNL     1       6.671   5.751  18.078  0.00  0.00    +0.000 A 
ATOM      6  C   UNL     1       6.525   5.275  16.739  0.00  0.00    +0.000 A 
ATOM      7  C   UNL     1       7.299   5.322  15.565  0.00  0.00    +0.000 A 
ATOM      8  C   UNL     1       6.792   4.708  14.420  0.00  0.00    +0.000 A 
ATOM      9  C   UNL     1       5.555   4.083  14.486  0.00  0.00    +0.000 A 
ATOM     10  N   UNL     1       4.770   4.009  15.581  0.00  0.00    +0.000 NA
ATOM     11  C   UNL     1       5.300   4.616  16.662  0.00  0.00    +0.000 A 
BRANCH   3  12
ATOM     12  C   UNL     1       3.495   3.976  18.277  0.00  0.00    +0.000 C 
BRANCH  12  13
ATOM     13  C   UNL     1       2.254   4.779  17.897  0.00  0.00    +0.000 C 
BRANCH  13  15
ATOM     14  C   UNL     1       1.010   2.913  18.592  0.00  0.00    +0.000 C 
ATOM     15  O   UNL     1       1.180   3.894  17.572  0.00  0.00    +0.000 OA
ENDBRANCH  13  15
ENDBRANCH  12  13
ENDBRANCH   3  12
ENDBRANCH   1   5
BRANCH   1  16
ATOM     16  C   UNL     1       8.029   7.939  18.280  0.00  0.00    +0.000 C 
ATOM     17  O   UNL     1       7.438   8.381  17.307  0.00  0.00    +0.000 OA
ATOM     18  N   UNL     1       8.902   8.609  19.121  0.00  0.00    +0.000 N 
ATOM     19  H   UNL     1       9.449   8.036  19.758  0.00  0.00    +0.000 HD
BRANCH  18  20
ATOM     20  C   UNL     1       9.154   9.999  19.079  0.00  0.00    +0.000 A 
ATOM     21  C   UNL     1       9.323  10.701  17.888  0.00  0.00    +0.000 A 
ATOM     22  C   UNL     1       9.586  12.068  17.911  0.00  0.00    +0.000 A 
ATOM     23  C   UNL     1       9.660  12.705  19.138  0.00  0.00    +0.000 A 
ATOM     24  N   UNL     1       9.475  12.074  20.317  0.00  0.00    +0.000 NA
ATOM     25  C   UNL     1       9.223  10.739  20.259  0.00  0.00    +0.000 A 
BRANCH  23  26
ATOM     26  O   UNL     1       9.946  14.052  19.093  0.00  0.00    +0.000 OA
ATOM     27  C   UNL     1      10.334  14.501  17.802  0.00  0.00    +0.000 C 
ENDBRANCH  23  26
ENDBRANCH  18  20
ENDBRANCH   1  16
TORSDOF 7
ENDMDL
MODEL 9
REMARK VINA RESULT:      -7.3      4.349      7.160
REMARK  Name = 
REMARK  9 active torsions:
REMARK  status: ('A' for Active; 'I' for Inactive)
REMARK    1  A    between atoms: C_1  and  O_2
REMARK    2  A    between atoms: O_2  and  C_3
REMARK    3  A    between atoms: C_3  and  C_4
REMARK    4  A    between atoms: C_4  and  N_5
REMARK    5  A    between atoms: C_7  and  C_8
REMARK    6  A    between atoms: C_8  and  C_10
REMARK    7  A    between atoms: N_12  and  C_13
REMARK    8  A    between atoms: C_16  and  O_17
REMARK    9  A    between atoms: O_17  and  C_18
REMARK                            x       y       z     vdW  Elec       q    Type
REMARK                         _______ _______ _______ _____ _____    ______ ____
ROOT
ATOM      1  C   UNL     1       7.062   6.399  16.917  0.00  0.00    +0.000 C 
ATOM      2  O   UNL     1       7.622   6.165  15.846  0.00  0.00    +0.000 OA
ENDROOT
BRANCH   1   5
ATOM      3  N   UNL     1       4.407   4.098  17.917  0.00  0.00    +0.000 N 
ATOM      4  C   UNL     1       5.714   4.364  17.598  0.00  0.00    +0.000 A 
ATOM      5  C   UNL     1       5.843   5.726  17.355  0.00  0.00    +0.000 A 
ATOM      6  C   UNL     1       4.560   6.304  17.603  0.00  0.00    +0.000 A 
ATOM      7  C   UNL     1       4.016   7.601  17.557  0.00  0.00    +0.000 A 
ATOM      8  C   UNL     1       2.666   7.757  17.872  0.00  0.00    +0.000 A 
ATOM      9  C   UNL     1       1.923   6.637  18.216  0.00  0.00    +0.000 A 
ATOM     10  N   UNL     1       2.391   5.373  18.278  0.00  0.00    +0.000 NA
ATOM     11  C   UNL     1       3.699   5.270  17.966  0.00  0.00    +0.000 A 
BRANCH   3  12
ATOM     12  C   UNL     1       3.844   2.774  18.110  0.00  0.00    +0.000 C 
BRANCH  12  13
ATOM     13  C   UNL     1       3.931   2.315  19.564  0.00  0.00    +0.000 C 
BRANCH  13  15
ATOM     14  C   UNL     1       1.612   2.051  19.304  0.00  0.00    +0.000 C 
ATOM     15  O   UNL     1       2.654   2.445  20.193  0.00  0.00    +0.000 OA
ENDBRANCH  13  15
ENDBRANCH  12  13
ENDBRANCH   3  12
ENDBRANCH   1   5
BRANCH   1  16
ATOM     16  C   UNL     1       7.751   7.393  17.855  0.00  0.00    +0.000 C 
ATOM     17  O   UNL     1       8.311   6.954  18.848  0.00  0.00    +0.000 OA
ATOM     18  N   UNL     1       7.660   8.713  17.445  0.00  0.00    +0.000 N 
ATOM     19  H   UNL     1       6.993   8.913  16.704  0.00  0.00    +0.000 HD
BRANCH  18  20
ATOM     20  C   UNL     1       8.340   9.794  18.050  0.00  0.00    +0.000 A 
ATOM     21  C   UNL     1       9.172   9.640  19.156  0.00  0.00    +0.000 A 
ATOM     22  C   UNL     1       9.802  10.746  19.719  0.00  0.00    +0.000 A 
ATOM     23  C   UNL     1       9.593  11.988  19.145  0.00  0.00    +0.000 A 
ATOM     24  N   UNL     1       8.819  12.184  18.056  0.00  0.00    +0.000 NA
ATOM     25  C   UNL     1       8.216  11.083  17.533  0.00  0.00    +0.000 A 
BRANCH  23  26
ATOM     26  O   UNL     1      10.226  13.044  19.763  0.00  0.00    +0.000 OA
ATOM     27  C   UNL     1      10.738  14.005  18.850  0.00  0.00    +0.000 C 
ENDBRANCH  23  26
ENDBRANCH  18  20
ENDBRANCH   1  16
TORSDOF 7
ENDMDL
