MODEL 1
REMARK VINA RESULT:      -8.3      0.000      0.000
REMARK  Name = 
REMARK  5 active torsions:
REMARK  status: ('A' for Active; 'I' for Inactive)
REMARK    1  A    between atoms: C_1  and  C_2
REMARK    2  A    between atoms: C_2  and  C_3
REMARK    3  A    between atoms: C_3  and  C_4
REMARK    4  A    between atoms: C_4  and  C_5
REMARK    5  A    between atoms: C_8  and  C_9
REMARK                            x       y       z     vdW  Elec       q    Type
REMARK                         _______ _______ _______ _____ _____    ______ ____
ROOT
ATOM      1  C   UNL     1       5.961   5.216  17.213  0.00  0.00    +0.000 C 
ATOM      2  C   UNL     1       5.041   4.537  17.913  0.00  0.00    +0.000 C 
ATOM      3  O   UNL     1       4.372   3.423  17.423  0.00  0.00    +0.000 OA
ATOM      4  C   UNL     1       3.266   3.277  18.216  0.00  0.00    +0.000 A 
ATOM      5  C   UNL     1       2.247   2.388  17.959  0.00  0.00    +0.000 A 
ATOM      6  C   UNL     1       1.118   2.477  18.766  0.00  0.00    +0.000 A 
ATOM      7  F   UNL     1       0.079   1.671  18.518  0.00  0.00    +0.000 F 
ATOM      8  C   UNL     1       1.028   3.416  19.803  0.00  0.00    +0.000 A 
ATOM      9  C   UNL     1       2.093   4.282  20.058  0.00  0.00    +0.000 A 
ATOM     10  F   UNL     1       1.982   5.202  21.021  0.00  0.00    +0.000 F 
ATOM     11  C   UNL     1       3.209   4.199  19.261  0.00  0.00    +0.000 A 
ATOM     12  C   UNL     1       4.416   5.023  19.179  0.00  0.00    +0.000 C 
ATOM     13  O   UNL     1       4.772   5.920  19.904  0.00  0.00    +0.000 OA
ENDROOT
BRANCH   1  17
ATOM     14  C   UNL     1       6.422   3.950  13.149  0.00  0.00    +0.000 A 
ATOM     15  C   UNL     1       5.233   3.727  13.854  0.00  0.00    +0.000 A 
ATOM     16  C   UNL     1       5.083   4.199  15.158  0.00  0.00    +0.000 A 
ATOM     17  C   UNL     1       6.128   4.883  15.792  0.00  0.00    +0.000 A 
ATOM     18  C   UNL     1       7.325   5.092  15.105  0.00  0.00    +0.000 A 
ATOM     19  C   UNL     1       7.468   4.630  13.790  0.00  0.00    +0.000 A 
BRANCH  14  20
ATOM     20  C   UNL     1       6.570   3.464  11.725  0.00  0.00    +0.000 C 
BRANCH  20  21
ATOM     21  C   UNL     1       5.784   2.170  11.486  0.00  0.00    +0.000 C 
BRANCH  21  23
ATOM     22  C   UNL     1       6.100  -0.313  11.327  0.00  0.00    +0.000 C 
ATOM     23  C   UNL     1       6.668   1.047  10.948  0.00  0.00    +0.000 C 
ENDBRANCH  21  23
ENDBRANCH  20  21
ENDBRANCH  14  20
ENDBRANCH   1  17
TORSDOF 4
ENDMDL
MODEL 2
REMARK VINA RESULT:      -8.2      3.972      6.213
REMARK  Name = 
REMARK  5 active torsions:
REMARK  status: ('A' for Active; 'I' for Inactive)
REMARK    1  A    between atoms: C_1  and  C_2
REMARK    2  A    between atoms: C_2  and  C_3
REMARK    3  A    between atoms: C_3  and  C_4
REMARK    4  A    between atoms: C_4  and  C_5
REMARK    5  A    between atoms: C_8  and  C_9
REMARK                            x       y       z     vdW  Elec       q    Type
REMARK                         _______ _______ _______ _____ _____    ______ ____
ROOT
ATOM      1  C   UNL     1       6.578   4.506  18.297  0.00  0.00    +0.000 C 
ATOM      2  C   UNL     1       5.277   4.450  18.612  0.00  0.00    +0.000 C 
ATOM      3  O   UNL     1       4.435   5.554  18.594  0.00  0.00    +0.000 OA
ATOM      4  C   UNL     1       3.348   5.205  19.349  0.00  0.00    +0.000 A 
ATOM      5  C   UNL     1       2.356   6.083  19.723  0.00  0.00    +0.000 A 
ATOM      6  C   UNL     1       1.409   5.612  20.625  0.00  0.00    +0.000 A 
ATOM      7  F   UNL     1       0.458   6.447  21.060  0.00  0.00    +0.000 F 
ATOM      8  C   UNL     1       1.452   4.301  21.119  0.00  0.00    +0.000 A 
ATOM      9  C   UNL     1       2.454   3.425  20.696  0.00  0.00    +0.000 A 
ATOM     10  F   UNL     1       2.513   2.191  21.203  0.00  0.00    +0.000 F 
ATOM     11  C   UNL     1       3.394   3.888  19.805  0.00  0.00    +0.000 A 
ATOM     12  C   UNL     1       4.617   3.285  19.274  0.00  0.00    +0.000 C 
ATOM     13  O   UNL     1       5.026   2.157  19.406  0.00  0.00    +0.000 OA
ENDROOT
BRANCH   1  17
ATOM     14  C   UNL     1       8.211   8.453  18.019  0.00  0.00    +0.000 A 
ATOM     15  C   UNL     1       8.538   7.600  19.080  0.00  0.00    +0.000 A 
ATOM     16  C   UNL     1       8.040   6.298  19.120  0.00  0.00    +0.000 A 
ATOM     17  C   UNL     1       7.186   5.829  18.113  0.00  0.00    +0.000 A 
ATOM     18  C   UNL     1       6.839   6.679  17.063  0.00  0.00    +0.000 A 
ATOM     19  C   UNL     1       7.351   7.983  17.016  0.00  0.00    +0.000 A 
BRANCH  14  20
ATOM     20  C   UNL     1       8.777   9.854  17.962  0.00  0.00    +0.000 C 
BRANCH  20  21
ATOM     21  C   UNL     1       9.277  10.317  19.335  0.00  0.00    +0.000 C 
BRANCH  21  23
ATOM     22  C   UNL     1      10.715  11.652  17.774  0.00  0.00    +0.000 C 
ATOM     23  C   UNL     1      10.459  11.278  19.226  0.00  0.00    +0.000 C 
ENDBRANCH  21  23
ENDBRANCH  20  21
ENDBRANCH  14  20
ENDBRANCH   1  17
TORSDOF 4
ENDMDL
MODEL 3
REMARK VINA RESULT:      -8.2      3.313      5.982
REMARK  Name = 
REMARK  5 active torsions:
REMARK  status: ('A' for Active; 'I' for Inactive)
REMARK    1  A    between atoms: C_1  and  C_2
REMARK    2  A    between atoms: C_2  and  C_3
REMARK    3  A    between atoms: C_3  and  C_4
REMARK    4  A    between atoms: C_4  and  C_5
REMARK    5  A    between atoms: C_8  and  C_9
REMARK                            x       y       z     vdW  Elec       q    Type
REMARK                         _______ _______ _______ _____ _____    ______ ____
ROOT
ATOM      1  C   UNL     1       5.967   4.246  17.234  0.00  0.00    +0.000 C 
ATOM      2  C   UNL     1       4.685   4.251  17.625  0.00  0.00    +0.000 C 
ATOM      3  O   UNL     1       4.039   5.376  18.121  0.00  0.00    +0.000 OA
ATOM      4  C   UNL     1       2.934   4.909  18.779  0.00  0.00    +0.000 A 
ATOM      5  C   UNL     1       2.114   5.693  19.560  0.00  0.00    +0.000 A 
ATOM      6  C   UNL     1       1.131   5.037  20.292  0.00  0.00    +0.000 A 
ATOM      7  F   UNL     1       0.346   5.751  21.108  0.00  0.00    +0.000 F 
ATOM      8  C   UNL     1       0.971   3.646  20.228  0.00  0.00    +0.000 A 
ATOM      9  C   UNL     1       1.799   2.883  19.402  0.00  0.00    +0.000 A 
ATOM     10  F   UNL     1       1.668   1.553  19.379  0.00  0.00    +0.000 F 
ATOM     11  C   UNL     1       2.774   3.527  18.678  0.00  0.00    +0.000 A 
ATOM     12  C   UNL     1       3.862   3.024  17.839  0.00  0.00    +0.000 C 
ATOM     13  O   UNL     1       4.082   1.892  17.480  0.00  0.00    +0.000 OA
ENDROOT
BRANCH   1  17
ATOM     14  C   UNL     1       8.176   7.742  18.339  0.00  0.00    +0.000 A 
ATOM     15  C   UNL     1       8.211   6.579  19.118  0.00  0.00    +0.000 A 
ATOM     16  C   UNL     1       7.530   5.433  18.709  0.00  0.00    +0.000 A 
ATOM     17  C   UNL     1       6.781   5.433  17.525  0.00  0.00    +0.000 A 
ATOM     18  C   UNL     1       6.723   6.594  16.753  0.00  0.00    +0.000 A 
ATOM     19  C   UNL     1       7.420   7.741  17.158  0.00  0.00    +0.000 A 
BRANCH  14  20
ATOM     20  C   UNL     1       8.940   8.974  18.769  0.00  0.00    +0.000 C 
BRANCH  20  21
ATOM     21  C   UNL     1       8.499  10.214  17.985  0.00  0.00    +0.000 C 
BRANCH  21  23
ATOM     22  C   UNL     1      10.342  11.218  19.357  0.00  0.00    +0.000 C 
ATOM     23  C   UNL     1       9.506  11.357  18.094  0.00  0.00    +0.000 C 
ENDBRANCH  21  23
ENDBRANCH  20  21
ENDBRANCH  14  20
ENDBRANCH   1  17
TORSDOF 4
ENDMDL
MODEL 4
REMARK VINA RESULT:      -8.1      4.780      8.598
REMARK  Name = 
REMARK  5 active torsions:
REMARK  status: ('A' for Active; 'I' for Inactive)
REMARK    1  A    between atoms: C_1  and  C_2
REMARK    2  A    between atoms: C_2  and  C_3
REMARK    3  A    between atoms: C_3  and  C_4
REMARK    4  A    between atoms: C_4  and  C_5
REMARK    5  A    between atoms: C_8  and  C_9
REMARK                            x       y       z     vdW  Elec       q    Type
REMARK                         _______ _______ _______ _____ _____    ______ ____
ROOT
ATOM      1  C   UNL     1       2.828   7.431  18.112  0.00  0.00    +0.000 C 
ATOM      2  C   UNL     1       2.637   6.166  18.511  0.00  0.00    +0.000 C 
ATOM      3  O   UNL     1       1.550   5.757  19.272  0.00  0.00    +0.000 OA
ATOM      4  C   UNL     1       1.909   4.553  19.815  0.00  0.00    +0.000 A 
ATOM      5  C   UNL     1       1.175   3.891  20.773  0.00  0.00    +0.000 A 
ATOM      6  C   UNL     1       1.757   2.762  21.341  0.00  0.00    +0.000 A 
ATOM      7  F   UNL     1       1.104   2.118  22.316  0.00  0.00    +0.000 F 
ATOM      8  C   UNL     1       3.024   2.311  20.946  0.00  0.00    +0.000 A 
ATOM      9  C   UNL     1       3.730   2.988  19.950  0.00  0.00    +0.000 A 
ATOM     10  F   UNL     1       4.955   2.577  19.610  0.00  0.00    +0.000 F 
ATOM     11  C   UNL     1       3.159   4.105  19.387  0.00  0.00    +0.000 A 
ATOM     12  C   UNL     1       3.672   5.092  18.436  0.00  0.00    +0.000 C 
ATOM     13  O   UNL     1       4.706   5.078  17.813  0.00  0.00    +0.000 OA
ENDROOT
BRANCH   1  17
ATOM     14  C   UNL     1       0.083  10.229  19.833  0.00  0.00    +0.000 A 
ATOM     15  C   UNL     1       0.799   9.325  20.627  0.00  0.00    +0.000 A 
ATOM     16  C   UNL     1       1.730   8.461  20.052  0.00  0.00    +0.000 A 
ATOM     17  C   UNL     1       1.949   8.468  18.668  0.00  0.00    +0.000 A 
ATOM     18  C   UNL     1       1.225   9.352  17.866  0.00  0.00    +0.000 A 
ATOM     19  C   UNL     1       0.300  10.229  18.448  0.00  0.00    +0.000 A 
BRANCH  14  20
ATOM     20  C   UNL     1      -0.904  11.186  20.464  0.00  0.00    +0.000 C 
BRANCH  20  21
ATOM     21  C   UNL     1      -0.393  11.720  21.806  0.00  0.00    +0.000 C 
BRANCH  21  23
ATOM     22  C   UNL     1      -2.514  12.029  23.107  0.00  0.00    +0.000 C 
ATOM     23  C   UNL     1      -1.229  11.223  22.983  0.00  0.00    +0.000 C 
ENDBRANCH  21  23
ENDBRANCH  20  21
ENDBRANCH  14  20
ENDBRANCH   1  17
TORSDOF 4
ENDMDL
MODEL 5
REMARK VINA RESULT:      -8.1      4.703      7.869
REMARK  Name = 
REMARK  5 active torsions:
REMARK  status: ('A' for Active; 'I' for Inactive)
REMARK    1  A    between atoms: C_1  and  C_2
REMARK    2  A    between atoms: C_2  and  C_3
REMARK    3  A    between atoms: C_3  and  C_4
REMARK    4  A    between atoms: C_4  and  C_5
REMARK    5  A    between atoms: C_8  and  C_9
REMARK                            x       y       z     vdW  Elec       q    Type
REMARK                         _______ _______ _______ _____ _____    ______ ____
ROOT
ATOM      1  C   UNL     1       3.063   7.207  18.113  0.00  0.00    +0.000 C 
ATOM      2  C   UNL     1       2.830   5.966  18.562  0.00  0.00    +0.000 C 
ATOM      3  O   UNL     1       1.663   5.593  19.216  0.00  0.00    +0.000 OA
ATOM      4  C   UNL     1       1.959   4.427  19.867  0.00  0.00    +0.000 A 
ATOM      5  C   UNL     1       1.121   3.816  20.772  0.00  0.00    +0.000 A 
ATOM      6  C   UNL     1       1.635   2.729  21.469  0.00  0.00    +0.000 A 
ATOM      7  F   UNL     1       0.876   2.137  22.400  0.00  0.00    +0.000 F 
ATOM      8  C   UNL     1       2.940   2.266  21.251  0.00  0.00    +0.000 A 
ATOM      9  C   UNL     1       3.755   2.889  20.303  0.00  0.00    +0.000 A 
ATOM     10  F   UNL     1       5.012   2.468  20.131  0.00  0.00    +0.000 F 
ATOM     11  C   UNL     1       3.250   3.965  19.613  0.00  0.00    +0.000 A 
ATOM     12  C   UNL     1       3.868   4.898  18.670  0.00  0.00    +0.000 C 
ATOM     13  O   UNL     1       4.967   4.857  18.172  0.00  0.00    +0.000 OA
ENDROOT
BRANCH   1  17
ATOM     14  C   UNL     1       0.143  10.080  19.356  0.00  0.00    +0.000 A 
ATOM     15  C   UNL     1       0.825   9.282  20.283  0.00  0.00    +0.000 A 
ATOM     16  C   UNL     1       1.814   8.394  19.861  0.00  0.00    +0.000 A 
ATOM     17  C   UNL     1       2.124   8.268  18.501  0.00  0.00    +0.000 A 
ATOM     18  C   UNL     1       1.435   9.044  17.567  0.00  0.00    +0.000 A 
ATOM     19  C   UNL     1       0.452   9.946  17.995  0.00  0.00    +0.000 A 
BRANCH  14  20
ATOM     20  C   UNL     1      -0.907  11.064  19.820  0.00  0.00    +0.000 C 
BRANCH  20  21
ATOM     21  C   UNL     1      -1.558  11.793  18.639  0.00  0.00    +0.000 C 
BRANCH  21  23
ATOM     22  C   UNL     1      -3.160  10.187  17.569  0.00  0.00    +0.000 C 
ATOM     23  C   UNL     1      -3.026  11.412  18.462  0.00  0.00    +0.000 C 
ENDBRANCH  21  23
ENDBRANCH  20  21
ENDBRANCH  14  20
ENDBRANCH   1  17
TORSDOF 4
ENDMDL
MODEL 6
REMARK VINA RESULT:      -8.0      0.841      1.306
REMARK  Name = 
REMARK  5 active torsions:
REMARK  status: ('A' for Active; 'I' for Inactive)
REMARK    1  A    between atoms: C_1  and  C_2
REMARK    2  A    between atoms: C_2  and  C_3
REMARK    3  A    between atoms: C_3  and  C_4
REMARK    4  A    between atoms: C_4  and  C_5
REMARK    5  A    between atoms: C_8  and  C_9
REMARK                            x       y       z     vdW  Elec       q    Type
REMARK                         _______ _______ _______ _____ _____    ______ ____
ROOT
ATOM      1  C   UNL     1       5.163   5.946  16.986  0.00  0.00    +0.000 C 
ATOM      2  C   UNL     1       4.506   5.255  17.928  0.00  0.00    +0.000 C 
ATOM      3  O   UNL     1       4.371   3.873  17.912  0.00  0.00    +0.000 OA
ATOM      4  C   UNL     1       3.329   3.593  18.753  0.00  0.00    +0.000 A 
ATOM      5  C   UNL     1       2.762   2.345  18.887  0.00  0.00    +0.000 A 
ATOM      6  C   UNL     1       1.607   2.260  19.657  0.00  0.00    +0.000 A 
ATOM      7  F   UNL     1       0.989   1.078  19.769  0.00  0.00    +0.000 F 
ATOM      8  C   UNL     1       1.054   3.387  20.280  0.00  0.00    +0.000 A 
ATOM      9  C   UNL     1       1.672   4.633  20.150  0.00  0.00    +0.000 A 
ATOM     10  F   UNL     1       1.115   5.710  20.713  0.00  0.00    +0.000 F 
ATOM     11  C   UNL     1       2.812   4.722  19.388  0.00  0.00    +0.000 A 
ATOM     12  C   UNL     1       3.612   5.868  18.955  0.00  0.00    +0.000 C 
ATOM     13  O   UNL     1       3.518   7.026  19.284  0.00  0.00    +0.000 OA
ENDROOT
BRANCH   1  17
ATOM     14  C   UNL     1       6.471   4.125  13.340  0.00  0.00    +0.000 A 
ATOM     15  C   UNL     1       7.333   4.911  14.115  0.00  0.00    +0.000 A 
ATOM     16  C   UNL     1       6.903   5.446  15.328  0.00  0.00    +0.000 A 
ATOM     17  C   UNL     1       5.595   5.228  15.781  0.00  0.00    +0.000 A 
ATOM     18  C   UNL     1       4.723   4.463  15.005  0.00  0.00    +0.000 A 
ATOM     19  C   UNL     1       5.161   3.913  13.793  0.00  0.00    +0.000 A 
BRANCH  14  20
ATOM     20  C   UNL     1       6.949   3.519  12.039  0.00  0.00    +0.000 C 
BRANCH  20  21
ATOM     21  C   UNL     1       6.046   2.366  11.588  0.00  0.00    +0.000 C 
BRANCH  21  23
ATOM     22  C   UNL     1       6.104  -0.117  11.239  0.00  0.00    +0.000 C 
ATOM     23  C   UNL     1       6.844   1.194  11.019  0.00  0.00    +0.000 C 
ENDBRANCH  21  23
ENDBRANCH  20  21
ENDBRANCH  14  20
ENDBRANCH   1  17
TORSDOF 4
ENDMDL
MODEL 7
REMARK VINA RESULT:      -8.0      3.843      6.506
REMARK  Name = 
REMARK  5 active torsions:
REMARK  status: ('A' for Active; 'I' for Inactive)
REMARK    1  A    between atoms: C_1  and  C_2
REMARK    2  A    between atoms: C_2  and  C_3
REMARK    3  A    between atoms: C_3  and  C_4
REMARK    4  A    between atoms: C_4  and  C_5
REMARK    5  A    between atoms: C_8  and  C_9
REMARK                            x       y       z     vdW  Elec       q    Type
REMARK                         _______ _______ _______ _____ _____    ______ ____
ROOT
ATOM      1  C   UNL     1       6.547   5.542  16.698  0.00  0.00    +0.000 C 
ATOM      2  C   UNL     1       5.281   5.217  16.993  0.00  0.00    +0.000 C 
ATOM      3  O   UNL     1       4.469   5.973  17.829  0.00  0.00    +0.000 OA
ATOM      4  C   UNL     1       3.452   5.141  18.210  0.00  0.00    +0.000 A 
ATOM      5  C   UNL     1       2.523   5.454  19.176  0.00  0.00    +0.000 A 
ATOM      6  C   UNL     1       1.655   4.439  19.564  0.00  0.00    +0.000 A 
ATOM      7  F   UNL     1       0.771   4.681  20.540  0.00  0.00    +0.000 F 
ATOM      8  C   UNL     1       1.713   3.162  18.989  0.00  0.00    +0.000 A 
ATOM      9  C   UNL     1       2.647   2.887  17.989  0.00  0.00    +0.000 A 
ATOM     10  F   UNL     1       2.724   1.655  17.475  0.00  0.00    +0.000 F 
ATOM     11  C   UNL     1       3.508   3.887  17.604  0.00  0.00    +0.000 A 
ATOM     12  C   UNL     1       4.659   3.892  16.700  0.00  0.00    +0.000 C 
ATOM     13  O   UNL     1       5.051   3.017  15.966  0.00  0.00    +0.000 OA
ENDROOT
BRANCH   1  17
ATOM     14  C   UNL     1       8.546   8.793  18.639  0.00  0.00    +0.000 A 
ATOM     15  C   UNL     1       7.827   8.980  17.452  0.00  0.00    +0.000 A 
ATOM     16  C   UNL     1       7.136   7.919  16.868  0.00  0.00    +0.000 A 
ATOM     17  C   UNL     1       7.168   6.644  17.446  0.00  0.00    +0.000 A 
ATOM     18  C   UNL     1       7.898   6.442  18.618  0.00  0.00    +0.000 A 
ATOM     19  C   UNL     1       8.581   7.513  19.211  0.00  0.00    +0.000 A 
BRANCH  14  20
ATOM     20  C   UNL     1       9.269   9.952  19.286  0.00  0.00    +0.000 C 
BRANCH  20  21
ATOM     21  C   UNL     1       9.777  10.953  18.243  0.00  0.00    +0.000 C 
BRANCH  21  23
ATOM     22  C   UNL     1      11.559  12.614  17.648  0.00  0.00    +0.000 C 
ATOM     23  C   UNL     1      10.925  11.810  18.774  0.00  0.00    +0.000 C 
ENDBRANCH  21  23
ENDBRANCH  20  21
ENDBRANCH  14  20
ENDBRANCH   1  17
TORSDOF 4
ENDMDL
MODEL 8
REMARK VINA RESULT:      -8.0      2.900      4.196
REMARK  Name = 
REMARK  5 active torsions:
REMARK  status: ('A' for Active; 'I' for Inactive)
REMARK    1  A    between atoms: C_1  and  C_2
REMARK    2  A    between atoms: C_2  and  C_3
REMARK    3  A    between atoms: C_3  and  C_4
REMARK    4  A    between atoms: C_4  and  C_5
REMARK    5  A    between atoms: C_8  and  C_9
REMARK                            x       y       z     vdW  Elec       q    Type
REMARK                         _______ _______ _______ _____ _____    ______ ____
ROOT
ATOM      1  C   UNL     1       3.889   4.393  18.892  0.00  0.00    +0.000 C 
ATOM      2  C   UNL     1       3.013   5.405  18.966  0.00  0.00    +0.000 C 
ATOM      3  O   UNL     1       2.820   6.329  17.947  0.00  0.00    +0.000 OA
ATOM      4  C   UNL     1       2.197   7.399  18.530  0.00  0.00    +0.000 A 
ATOM      5  C   UNL     1       1.981   8.602  17.897  0.00  0.00    +0.000 A 
ATOM      6  C   UNL     1       1.485   9.641  18.676  0.00  0.00    +0.000 A 
ATOM      7  F   UNL     1       1.311  10.845  18.117  0.00  0.00    +0.000 F 
ATOM      8  C   UNL     1       1.204   9.468  20.039  0.00  0.00    +0.000 A 
ATOM      9  C   UNL     1       1.405   8.226  20.644  0.00  0.00    +0.000 A 
ATOM     10  F   UNL     1       1.175   8.082  21.952  0.00  0.00    +0.000 F 
ATOM     11  C   UNL     1       1.897   7.197  19.877  0.00  0.00    +0.000 A 
ATOM     12  C   UNL     1       2.332   5.843  20.221  0.00  0.00    +0.000 C 
ATOM     13  O   UNL     1       2.237   5.260  21.274  0.00  0.00    +0.000 OA
ENDROOT
BRANCH   1  17
ATOM     14  C   UNL     1       6.603   4.644  15.592  0.00  0.00    +0.000 A 
ATOM     15  C   UNL     1       6.926   5.176  16.847  0.00  0.00    +0.000 A 
ATOM     16  C   UNL     1       6.051   5.032  17.923  0.00  0.00    +0.000 A 
ATOM     17  C   UNL     1       4.825   4.374  17.762  0.00  0.00    +0.000 A 
ATOM     18  C   UNL     1       4.486   3.858  16.510  0.00  0.00    +0.000 A 
ATOM     19  C   UNL     1       5.373   3.991  15.433  0.00  0.00    +0.000 A 
BRANCH  14  20
ATOM     20  C   UNL     1       7.568   4.775  14.435  0.00  0.00    +0.000 C 
BRANCH  20  21
ATOM     21  C   UNL     1       6.830   4.949  13.103  0.00  0.00    +0.000 C 
BRANCH  21  23
ATOM     22  C   UNL     1       5.634   3.064  11.961  0.00  0.00    +0.000 C 
ATOM     23  C   UNL     1       6.981   3.731  12.194  0.00  0.00    +0.000 C 
ENDBRANCH  21  23
ENDBRANCH  20  21
ENDBRANCH  14  20
ENDBRANCH   1  17
TORSDOF 4
ENDMDL
MODEL 9
REMARK VINA RESULT:      -7.9      4.580      6.942
REMARK  Name = 
REMARK  5 active torsions:
REMARK  status: ('A' for Active; 'I' for Inactive)
REMARK    1  A    between atoms: C_1  and  C_2
REMARK    2  A    between atoms: C_2  and  C_3
REMARK    3  A    between atoms: C_3  and  C_4
REMARK    4  A    between atoms: C_4  and  C_5
REMARK    5  A    between atoms: C_8  and  C_9
REMARK                            x       y       z     vdW  Elec       q    Type
REMARK                         _______ _______ _______ _____ _____    ______ ____
ROOT
ATOM      1  C   UNL     1       2.154   7.964  17.630  0.00  0.00    +0.000 C 
ATOM      2  C   UNL     1       1.862   8.658  18.739  0.00  0.00    +0.000 C 
ATOM      3  O   UNL     1       2.083   8.180  20.024  0.00  0.00    +0.000 OA
ATOM      4  C   UNL     1       1.303   8.947  20.845  0.00  0.00    +0.000 A 
ATOM      5  C   UNL     1       1.104   8.687  22.182  0.00  0.00    +0.000 A 
ATOM      6  C   UNL     1       0.155   9.463  22.838  0.00  0.00    +0.000 A 
ATOM      7  F   UNL     1      -0.112   9.208  24.125  0.00  0.00    +0.000 F 
ATOM      8  C   UNL     1      -0.554  10.474  22.175  0.00  0.00    +0.000 A 
ATOM      9  C   UNL     1      -0.306  10.733  20.825  0.00  0.00    +0.000 A 
ATOM     10  F   UNL     1      -1.016  11.670  20.190  0.00  0.00    +0.000 F 
ATOM     11  C   UNL     1       0.630   9.967  20.173  0.00  0.00    +0.000 A 
ATOM     12  C   UNL     1       1.026   9.896  18.766  0.00  0.00    +0.000 C 
ATOM     13  O   UNL     1       0.696  10.607  17.848  0.00  0.00    +0.000 OA
ENDROOT
BRANCH   1  17
ATOM     14  C   UNL     1       3.402   3.873  17.781  0.00  0.00    +0.000 A 
ATOM     15  C   UNL     1       4.325   4.913  17.616  0.00  0.00    +0.000 A 
ATOM     16  C   UNL     1       3.903   6.242  17.628  0.00  0.00    +0.000 A 
ATOM     17  C   UNL     1       2.546   6.558  17.781  0.00  0.00    +0.000 A 
ATOM     18  C   UNL     1       1.617   5.526  17.925  0.00  0.00    +0.000 A 
ATOM     19  C   UNL     1       2.045   4.192  17.928  0.00  0.00    +0.000 A 
BRANCH  14  20
ATOM     20  C   UNL     1       3.867   2.434  17.798  0.00  0.00    +0.000 C 
BRANCH  20  21
ATOM     21  C   UNL     1       3.396   1.705  19.062  0.00  0.00    +0.000 C 
BRANCH  21  23
ATOM     22  C   UNL     1       2.685   2.770  21.217  0.00  0.00    +0.000 C 
ATOM     23  C   UNL     1       3.870   2.395  20.339  0.00  0.00    +0.000 C 
ENDBRANCH  21  23
ENDBRANCH  20  21
ENDBRANCH  14  20
ENDBRANCH   1  17
TORSDOF 4
ENDMDL
