MODEL 1
REMARK VINA RESULT:      -7.4      0.000      0.000
REMARK  Name = 
REMARK  10 active torsions:
REMARK  status: ('A' for Active; 'I' for Inactive)
REMARK    1  A    between atoms: C_1  and  C_2
REMARK    2  A    between atoms: C_2  and  O_3
REMARK    3  A    between atoms: O_3  and  C_4
REMARK    4  A    between atoms: C_9  and  N_10
REMARK    5  A    between atoms: C_11  and  S_12
REMARK    6  A    between atoms: S_12  and  C_13
REMARK    7  A    between atoms: C_13  and  C_14
REMARK    8  A    between atoms: C_14  and  O_16
REMARK    9  A    between atoms: O_16  and  C_17
REMARK   10  A    between atoms: C_17  and  C_18
REMARK                            x       y       z     vdW  Elec       q    Type
REMARK                         _______ _______ _______ _____ _____    ______ ____
ROOT
ATOM      1  N   UNL     1      -1.330  11.558  19.611  0.00  0.00    +0.000 N 
ATOM      2  C   UNL     1      -0.561  10.631  18.815  0.00  0.00    +0.000 A 
ATOM      3  N   UNL     1      -0.949  10.063  17.709  0.00  0.00    +0.000 NA
ATOM      4  C   UNL     1      -2.222  10.439  17.276  0.00  0.00    +0.000 A 
ATOM      5  C   UNL     1      -2.868   9.903  16.133  0.00  0.00    +0.000 A 
ATOM      6  C   UNL     1      -4.117  10.483  15.949  0.00  0.00    +0.000 A 
ATOM      7  S   UNL     1      -4.465  11.656  17.152  0.00  0.00    +0.000 S 
ATOM      8  C   UNL     1      -2.991  11.345  17.937  0.00  0.00    +0.000 A 
ATOM      9  C   UNL     1      -2.599  11.958  19.169  0.00  0.00    +0.000 A 
ATOM     10  O   UNL     1      -3.327  12.732  19.780  0.00  0.00    +0.000 OA
ENDROOT
BRANCH   1  16
ATOM     11  C   UNL     1      -3.091  13.994  24.176  0.00  0.00    +0.000 C 
ATOM     12  O   UNL     1      -3.724  13.236  24.914  0.00  0.00    +0.000 OA
ATOM     13  N   UNL     1      -2.333  13.511  23.101  0.00  0.00    +0.000 N 
ATOM     14  C   UNL     1      -2.585  12.124  22.804  0.00  0.00    +0.000 C 
ATOM     15  C   UNL     1      -1.454  11.410  22.115  0.00  0.00    +0.000 C 
ATOM     16  C   UNL     1      -0.813  12.117  20.916  0.00  0.00    +0.000 C 
ATOM     17  C   UNL     1      -0.707  13.655  21.198  0.00  0.00    +0.000 C 
ATOM     18  C   UNL     1      -1.870  14.319  21.974  0.00  0.00    +0.000 C 
BRANCH  11  19
ATOM     19  O   UNL     1      -3.098  15.346  24.346  0.00  0.00    +0.000 OA
BRANCH  19  21
ATOM     20  C   UNL     1      -4.434  17.287  25.013  0.00  0.00    +0.000 C 
ATOM     21  C   UNL     1      -4.418  15.945  24.303  0.00  0.00    +0.000 C 
ENDBRANCH  19  21
ENDBRANCH  11  19
ENDBRANCH   1  16
BRANCH   2  22
ATOM     22  S   UNL     1       1.068  10.224  19.395  0.00  0.00    +0.000 S 
BRANCH  22  23
ATOM     23  C   UNL     1       2.026   9.539  18.042  0.00  0.00    +0.000 C 
BRANCH  23  24
ATOM     24  C   UNL     1       2.567   8.128  18.135  0.00  0.00    +0.000 C 
ATOM     25  O   UNL     1       3.446   7.756  17.357  0.00  0.00    +0.000 OA
BRANCH  24  26
ATOM     26  O   UNL     1       2.089   7.357  19.149  0.00  0.00    +0.000 OA
BRANCH  26  27
ATOM     27  C   UNL     1       2.954   6.265  19.529  0.00  0.00    +0.000 C 
BRANCH  27  28
ATOM     28  C   UNL     1       2.356   4.873  19.435  0.00  0.00    +0.000 A 
ATOM     29  C   UNL     1       1.453   4.398  20.396  0.00  0.00    +0.000 A 
ATOM     30  C   UNL     1       0.746   3.210  20.178  0.00  0.00    +0.000 A 
ATOM     31  C   UNL     1       0.936   2.476  19.008  0.00  0.00    +0.000 A 
ATOM     32  C   UNL     1       1.861   2.912  18.063  0.00  0.00    +0.000 A 
ATOM     33  C   UNL     1       2.564   4.102  18.277  0.00  0.00    +0.000 A 
ENDBRANCH  27  28
ENDBRANCH  26  27
ENDBRANCH  24  26
ENDBRANCH  23  24
ENDBRANCH  22  23
ENDBRANCH   2  22
TORSDOF 9
ENDMDL
MODEL 2
REMARK VINA RESULT:      -7.3      1.014      1.384
REMARK  Name = 
REMARK  10 active torsions:
REMARK  status: ('A' for Active; 'I' for Inactive)
REMARK    1  A    between atoms: C_1  and  C_2
REMARK    2  A    between atoms: C_2  and  O_3
REMARK    3  A    between atoms: O_3  and  C_4
REMARK    4  A    between atoms: C_9  and  N_10
REMARK    5  A    between atoms: C_11  and  S_12
REMARK    6  A    between atoms: S_12  and  C_13
REMARK    7  A    between atoms: C_13  and  C_14
REMARK    8  A    between atoms: C_14  and  O_16
REMARK    9  A    between atoms: O_16  and  C_17
REMARK   10  A    between atoms: C_17  and  C_18
REMARK                            x       y       z     vdW  Elec       q    Type
REMARK                         _______ _______ _______ _____ _____    ______ ____
ROOT
ATOM      1  N   UNL     1      -1.309  11.669  19.681  0.00  0.00    +0.000 N 
ATOM      2  C   UNL     1      -0.474  10.780  18.909  0.00  0.00    +0.000 A 
ATOM      3  N   UNL     1      -0.807  10.182  17.800  0.00  0.00    +0.000 NA
ATOM      4  C   UNL     1      -2.091  10.481  17.340  0.00  0.00    +0.000 A 
ATOM      5  C   UNL     1      -2.683   9.899  16.190  0.00  0.00    +0.000 A 
ATOM      6  C   UNL     1      -3.960  10.405  15.977  0.00  0.00    +0.000 A 
ATOM      7  S   UNL     1      -4.397  11.566  17.162  0.00  0.00    +0.000 S 
ATOM      8  C   UNL     1      -2.923  11.347  17.978  0.00  0.00    +0.000 A 
ATOM      9  C   UNL     1      -2.591  11.991  19.211  0.00  0.00    +0.000 A 
ATOM     10  O   UNL     1      -3.373  12.728  19.801  0.00  0.00    +0.000 OA
ENDROOT
BRANCH   1  16
ATOM     11  C   UNL     1      -3.300  13.970  24.222  0.00  0.00    +0.000 C 
ATOM     12  O   UNL     1      -3.880  13.167  24.955  0.00  0.00    +0.000 OA
ATOM     13  N   UNL     1      -2.496  13.544  23.156  0.00  0.00    +0.000 N 
ATOM     14  C   UNL     1      -2.638  12.142  22.859  0.00  0.00    +0.000 C 
ATOM     15  C   UNL     1      -1.449  11.515  22.183  0.00  0.00    +0.000 C 
ATOM     16  C   UNL     1      -0.850  12.267  20.990  0.00  0.00    +0.000 C 
ATOM     17  C   UNL     1      -0.865  13.809  21.269  0.00  0.00    +0.000 C 
ATOM     18  C   UNL     1      -2.084  14.384  22.032  0.00  0.00    +0.000 C 
BRANCH  11  19
ATOM     19  O   UNL     1      -3.411  15.318  24.389  0.00  0.00    +0.000 OA
BRANCH  19  21
ATOM     20  C   UNL     1      -1.376  15.637  25.712  0.00  0.00    +0.000 C 
ATOM     21  C   UNL     1      -2.884  15.807  25.647  0.00  0.00    +0.000 C 
ENDBRANCH  19  21
ENDBRANCH  11  19
ENDBRANCH   1  16
BRANCH   2  22
ATOM     22  S   UNL     1       1.165  10.472  19.523  0.00  0.00    +0.000 S 
BRANCH  22  23
ATOM     23  C   UNL     1       1.479   8.706  19.512  0.00  0.00    +0.000 C 
BRANCH  23  24
ATOM     24  C   UNL     1       2.349   8.098  18.432  0.00  0.00    +0.000 C 
ATOM     25  O   UNL     1       2.409   8.628  17.322  0.00  0.00    +0.000 OA
BRANCH  24  26
ATOM     26  O   UNL     1       3.091   7.013  18.785  0.00  0.00    +0.000 OA
BRANCH  26  27
ATOM     27  C   UNL     1       3.508   6.187  17.676  0.00  0.00    +0.000 C 
BRANCH  27  28
ATOM     28  C   UNL     1       3.059   4.738  17.714  0.00  0.00    +0.000 A 
ATOM     29  C   UNL     1       3.980   3.684  17.637  0.00  0.00    +0.000 A 
ATOM     30  C   UNL     1       3.577   2.370  17.895  0.00  0.00    +0.000 A 
ATOM     31  C   UNL     1       2.252   2.086  18.225  0.00  0.00    +0.000 A 
ATOM     32  C   UNL     1       1.316   3.116  18.264  0.00  0.00    +0.000 A 
ATOM     33  C   UNL     1       1.719   4.431  18.011  0.00  0.00    +0.000 A 
ENDBRANCH  27  28
ENDBRANCH  26  27
ENDBRANCH  24  26
ENDBRANCH  23  24
ENDBRANCH  22  23
ENDBRANCH   2  22
TORSDOF 9
ENDMDL
MODEL 3
REMARK VINA RESULT:      -7.2      0.841      1.057
REMARK  Name = 
REMARK  10 active torsions:
REMARK  status: ('A' for Active; 'I' for Inactive)
REMARK    1  A    between atoms: C_1  and  C_2
REMARK    2  A    between atoms: C_2  and  O_3
REMARK    3  A    between atoms: O_3  and  C_4
REMARK    4  A    between atoms: C_9  and  N_10
REMARK    5  A    between atoms: C_11  and  S_12
REMARK    6  A    between atoms: S_12  and  C_13
REMARK    7  A    between atoms: C_13  and  C_14
REMARK    8  A    between atoms: C_14  and  O_16
REMARK    9  A    between atoms: O_16  and  C_17
REMARK   10  A    between atoms: C_17  and  C_18
REMARK                            x       y       z     vdW  Elec       q    Type
REMARK                         _______ _______ _______ _____ _____    ______ ____
ROOT
ATOM      1  N   UNL     1      -1.400  11.728  19.697  0.00  0.00    +0.000 N 
ATOM      2  C   UNL     1      -0.552  10.837  18.941  0.00  0.00    +0.000 A 
ATOM      3  N   UNL     1      -0.869  10.230  17.833  0.00  0.00    +0.000 NA
ATOM      4  C   UNL     1      -2.149  10.522  17.355  0.00  0.00    +0.000 A 
ATOM      5  C   UNL     1      -2.724   9.930  16.201  0.00  0.00    +0.000 A 
ATOM      6  C   UNL     1      -4.000  10.430  15.970  0.00  0.00    +0.000 A 
ATOM      7  S   UNL     1      -4.456  11.596  17.141  0.00  0.00    +0.000 S 
ATOM      8  C   UNL     1      -2.991  11.388  17.976  0.00  0.00    +0.000 A 
ATOM      9  C   UNL     1      -2.677  12.042  19.210  0.00  0.00    +0.000 A 
ATOM     10  O   UNL     1      -3.469  12.779  19.785  0.00  0.00    +0.000 OA
ENDROOT
BRANCH   1  16
ATOM     11  C   UNL     1      -3.460  13.773  24.328  0.00  0.00    +0.000 C 
ATOM     12  O   UNL     1      -3.956  12.911  25.057  0.00  0.00    +0.000 OA
ATOM     13  N   UNL     1      -2.650  13.434  23.236  0.00  0.00    +0.000 N 
ATOM     14  C   UNL     1      -2.686  12.031  22.914  0.00  0.00    +0.000 C 
ATOM     15  C   UNL     1      -1.466  11.516  22.198  0.00  0.00    +0.000 C 
ATOM     16  C   UNL     1      -0.959  12.336  21.007  0.00  0.00    +0.000 C 
ATOM     17  C   UNL     1      -1.092  13.866  21.319  0.00  0.00    +0.000 C 
ATOM     18  C   UNL     1      -2.334  14.326  22.121  0.00  0.00    +0.000 C 
BRANCH  11  19
ATOM     19  O   UNL     1      -3.676  15.104  24.526  0.00  0.00    +0.000 OA
BRANCH  19  21
ATOM     20  C   UNL     1      -2.826  17.260  25.315  0.00  0.00    +0.000 C 
ATOM     21  C   UNL     1      -2.686  15.749  25.366  0.00  0.00    +0.000 C 
ENDBRANCH  19  21
ENDBRANCH  11  19
ENDBRANCH   1  16
BRANCH   2  22
ATOM     22  S   UNL     1       1.080  10.539  19.577  0.00  0.00    +0.000 S 
BRANCH  22  23
ATOM     23  C   UNL     1       1.667   8.951  18.984  0.00  0.00    +0.000 C 
BRANCH  23  24
ATOM     24  C   UNL     1       1.949   7.834  19.966  0.00  0.00    +0.000 C 
ATOM     25  O   UNL     1       1.306   7.760  21.014  0.00  0.00    +0.000 OA
BRANCH  24  26
ATOM     26  O   UNL     1       2.874   6.909  19.588  0.00  0.00    +0.000 OA
BRANCH  26  27
ATOM     27  C   UNL     1       2.499   6.126  18.434  0.00  0.00    +0.000 C 
BRANCH  27  28
ATOM     28  C   UNL     1       2.200   4.660  18.687  0.00  0.00    +0.000 A 
ATOM     29  C   UNL     1       1.379   4.253  19.748  0.00  0.00    +0.000 A 
ATOM     30  C   UNL     1       0.935   2.929  19.834  0.00  0.00    +0.000 A 
ATOM     31  C   UNL     1       1.311   1.991  18.872  0.00  0.00    +0.000 A 
ATOM     32  C   UNL     1       2.161   2.369  17.836  0.00  0.00    +0.000 A 
ATOM     33  C   UNL     1       2.600   3.694  17.746  0.00  0.00    +0.000 A 
ENDBRANCH  27  28
ENDBRANCH  26  27
ENDBRANCH  24  26
ENDBRANCH  23  24
ENDBRANCH  22  23
ENDBRANCH   2  22
TORSDOF 9
ENDMDL
MODEL 4
REMARK VINA RESULT:      -7.1      1.744      2.687
REMARK  Name = 
REMARK  10 active torsions:
REMARK  status: ('A' for Active; 'I' for Inactive)
REMARK    1  A    between atoms: C_1  and  C_2
REMARK    2  A    between atoms: C_2  and  O_3
REMARK    3  A    between atoms: O_3  and  C_4
REMARK    4  A    between atoms: C_9  and  N_10
REMARK    5  A    between atoms: C_11  and  S_12
REMARK    6  A    between atoms: S_12  and  C_13
REMARK    7  A    between atoms: C_13  and  C_14
REMARK    8  A    between atoms: C_14  and  O_16
REMARK    9  A    between atoms: O_16  and  C_17
REMARK   10  A    between atoms: C_17  and  C_18
REMARK                            x       y       z     vdW  Elec       q    Type
REMARK                         _______ _______ _______ _____ _____    ______ ____
ROOT
ATOM      1  N   UNL     1      -1.321  11.534  19.648  0.00  0.00    +0.000 N 
ATOM      2  C   UNL     1      -0.550  10.606  18.855  0.00  0.00    +0.000 A 
ATOM      3  N   UNL     1      -0.932  10.043  17.744  0.00  0.00    +0.000 NA
ATOM      4  C   UNL     1      -2.201  10.425  17.304  0.00  0.00    +0.000 A 
ATOM      5  C   UNL     1      -2.841   9.895  16.155  0.00  0.00    +0.000 A 
ATOM      6  C   UNL     1      -4.088  10.479  15.964  0.00  0.00    +0.000 A 
ATOM      7  S   UNL     1      -4.439  11.649  17.167  0.00  0.00    +0.000 S 
ATOM      8  C   UNL     1      -2.971  11.332  17.961  0.00  0.00    +0.000 A 
ATOM      9  C   UNL     1      -2.586  11.940  19.198  0.00  0.00    +0.000 A 
ATOM     10  O   UNL     1      -3.315  12.715  19.806  0.00  0.00    +0.000 OA
ENDROOT
BRANCH   1  16
ATOM     11  C   UNL     1      -3.099  14.007  24.187  0.00  0.00    +0.000 C 
ATOM     12  O   UNL     1      -3.751  13.260  24.919  0.00  0.00    +0.000 OA
ATOM     13  N   UNL     1      -2.335  13.510  23.122  0.00  0.00    +0.000 N 
ATOM     14  C   UNL     1      -2.605  12.127  22.825  0.00  0.00    +0.000 C 
ATOM     15  C   UNL     1      -1.477  11.394  22.150  0.00  0.00    +0.000 C 
ATOM     16  C   UNL     1      -0.811  12.088  20.957  0.00  0.00    +0.000 C 
ATOM     17  C   UNL     1      -0.685  13.624  21.237  0.00  0.00    +0.000 C 
ATOM     18  C   UNL     1      -1.846  14.308  21.998  0.00  0.00    +0.000 C 
BRANCH  11  19
ATOM     19  O   UNL     1      -3.086  15.359  24.354  0.00  0.00    +0.000 OA
BRANCH  19  21
ATOM     20  C   UNL     1      -4.570  17.150  25.120  0.00  0.00    +0.000 C 
ATOM     21  C   UNL     1      -4.373  15.995  24.154  0.00  0.00    +0.000 C 
ENDBRANCH  19  21
ENDBRANCH  11  19
ENDBRANCH   1  16
BRANCH   2  22
ATOM     22  S   UNL     1       1.074  10.192  19.444  0.00  0.00    +0.000 S 
BRANCH  22  23
ATOM     23  C   UNL     1       1.855   9.066  18.287  0.00  0.00    +0.000 C 
BRANCH  23  24
ATOM     24  C   UNL     1       2.328   7.706  18.756  0.00  0.00    +0.000 C 
ATOM     25  O   UNL     1       2.208   7.389  19.940  0.00  0.00    +0.000 OA
BRANCH  24  26
ATOM     26  O   UNL     1       2.806   6.864  17.800  0.00  0.00    +0.000 OA
BRANCH  26  27
ATOM     27  C   UNL     1       3.603   5.773  18.309  0.00  0.00    +0.000 C 
BRANCH  27  28
ATOM     28  C   UNL     1       5.109   5.941  18.213  0.00  0.00    +0.000 A 
ATOM     29  C   UNL     1       5.690   6.813  17.283  0.00  0.00    +0.000 A 
ATOM     30  C   UNL     1       7.052   7.124  17.356  0.00  0.00    +0.000 A 
ATOM     31  C   UNL     1       7.855   6.564  18.350  0.00  0.00    +0.000 A 
ATOM     32  C   UNL     1       7.302   5.662  19.256  0.00  0.00    +0.000 A 
ATOM     33  C   UNL     1       5.939   5.356  19.186  0.00  0.00    +0.000 A 
ENDBRANCH  27  28
ENDBRANCH  26  27
ENDBRANCH  24  26
ENDBRANCH  23  24
ENDBRANCH  22  23
ENDBRANCH   2  22
TORSDOF 9
ENDMDL
MODEL 5
REMARK VINA RESULT:      -7.0      1.556      2.195
REMARK  Name = 
REMARK  10 active torsions:
REMARK  status: ('A' for Active; 'I' for Inactive)
REMARK    1  A    between atoms: C_1  and  C_2
REMARK    2  A    between atoms: C_2  and  O_3
REMARK    3  A    between atoms: O_3  and  C_4
REMARK    4  A    between atoms: C_9  and  N_10
REMARK    5  A    between atoms: C_11  and  S_12
REMARK    6  A    between atoms: S_12  and  C_13
REMARK    7  A    between atoms: C_13  and  C_14
REMARK    8  A    between atoms: C_14  and  O_16
REMARK    9  A    between atoms: O_16  and  C_17
REMARK   10  A    between atoms: C_17  and  C_18
REMARK                            x       y       z     vdW  Elec       q    Type
REMARK                         _______ _______ _______ _____ _____    ______ ____
ROOT
ATOM      1  N   UNL     1      -1.383  11.709  19.653  0.00  0.00    +0.000 N 
ATOM      2  C   UNL     1      -0.564  10.810  18.874  0.00  0.00    +0.000 A 
ATOM      3  N   UNL     1      -0.913  10.218  17.768  0.00  0.00    +0.000 NA
ATOM      4  C   UNL     1      -2.196  10.534  17.317  0.00  0.00    +0.000 A 
ATOM      5  C   UNL     1      -2.804   9.961  16.170  0.00  0.00    +0.000 A 
ATOM      6  C   UNL     1      -4.075  10.483  15.967  0.00  0.00    +0.000 A 
ATOM      7  S   UNL     1      -4.489  11.648  17.156  0.00  0.00    +0.000 S 
ATOM      8  C   UNL     1      -3.013  11.409  17.961  0.00  0.00    +0.000 A 
ATOM      9  C   UNL     1      -2.664  12.048  19.193  0.00  0.00    +0.000 A 
ATOM     10  O   UNL     1      -3.433  12.794  19.789  0.00  0.00    +0.000 OA
ENDROOT
BRANCH   1  16
ATOM     11  C   UNL     1      -3.307  14.099  24.177  0.00  0.00    +0.000 C 
ATOM     12  O   UNL     1      -3.914  13.319  24.913  0.00  0.00    +0.000 OA
ATOM     13  N   UNL     1      -2.515  13.641  23.115  0.00  0.00    +0.000 N 
ATOM     14  C   UNL     1      -2.702  12.243  22.826  0.00  0.00    +0.000 C 
ATOM     15  C   UNL     1      -1.532  11.575  22.156  0.00  0.00    +0.000 C 
ATOM     16  C   UNL     1      -0.907  12.300  20.959  0.00  0.00    +0.000 C 
ATOM     17  C   UNL     1      -0.874  13.843  21.229  0.00  0.00    +0.000 C 
ATOM     18  C   UNL     1      -2.075  14.461  21.986  0.00  0.00    +0.000 C 
BRANCH  11  19
ATOM     19  O   UNL     1      -3.376  15.451  24.335  0.00  0.00    +0.000 OA
BRANCH  19  21
ATOM     20  C   UNL     1      -4.925  17.182  25.109  0.00  0.00    +0.000 C 
ATOM     21  C   UNL     1      -4.708  16.001  24.180  0.00  0.00    +0.000 C 
ENDBRANCH  19  21
ENDBRANCH  11  19
ENDBRANCH   1  16
BRANCH   2  22
ATOM     22  S   UNL     1       1.074  10.481  19.476  0.00  0.00    +0.000 S 
BRANCH  22  23
ATOM     23  C   UNL     1       1.674   8.951  18.757  0.00  0.00    +0.000 C 
BRANCH  23  24
ATOM     24  C   UNL     1       2.043   7.787  19.651  0.00  0.00    +0.000 C 
ATOM     25  O   UNL     1       1.663   7.768  20.822  0.00  0.00    +0.000 OA
BRANCH  24  26
ATOM     26  O   UNL     1       2.731   6.766  19.070  0.00  0.00    +0.000 OA
BRANCH  26  27
ATOM     27  C   UNL     1       3.296   7.084  17.780  0.00  0.00    +0.000 C 
BRANCH  27  28
ATOM     28  C   UNL     1       4.205   6.033  17.170  0.00  0.00    +0.000 A 
ATOM     29  C   UNL     1       4.021   4.667  17.426  0.00  0.00    +0.000 A 
ATOM     30  C   UNL     1       4.719   3.706  16.687  0.00  0.00    +0.000 A 
ATOM     31  C   UNL     1       5.616   4.091  15.691  0.00  0.00    +0.000 A 
ATOM     32  C   UNL     1       5.843   5.444  15.454  0.00  0.00    +0.000 A 
ATOM     33  C   UNL     1       5.141   6.406  16.188  0.00  0.00    +0.000 A 
ENDBRANCH  27  28
ENDBRANCH  26  27
ENDBRANCH  24  26
ENDBRANCH  23  24
ENDBRANCH  22  23
ENDBRANCH   2  22
TORSDOF 9
ENDMDL
MODEL 6
REMARK VINA RESULT:      -6.9      0.962      1.325
REMARK  Name = 
REMARK  10 active torsions:
REMARK  status: ('A' for Active; 'I' for Inactive)
REMARK    1  A    between atoms: C_1  and  C_2
REMARK    2  A    between atoms: C_2  and  O_3
REMARK    3  A    between atoms: O_3  and  C_4
REMARK    4  A    between atoms: C_9  and  N_10
REMARK    5  A    between atoms: C_11  and  S_12
REMARK    6  A    between atoms: S_12  and  C_13
REMARK    7  A    between atoms: C_13  and  C_14
REMARK    8  A    between atoms: C_14  and  O_16
REMARK    9  A    between atoms: O_16  and  C_17
REMARK   10  A    between atoms: C_17  and  C_18
REMARK                            x       y       z     vdW  Elec       q    Type
REMARK                         _______ _______ _______ _____ _____    ______ ____
ROOT
ATOM      1  N   UNL     1      -1.205  11.682  20.093  0.00  0.00    +0.000 N 
ATOM      2  C   UNL     1      -0.364  10.766  19.358  0.00  0.00    +0.000 A 
ATOM      3  N   UNL     1      -0.666  10.180  18.235  0.00  0.00    +0.000 NA
ATOM      4  C   UNL     1      -1.917  10.523  17.716  0.00  0.00    +0.000 A 
ATOM      5  C   UNL     1      -2.474   9.962  16.539  0.00  0.00    +0.000 A 
ATOM      6  C   UNL     1      -3.722  10.510  16.268  0.00  0.00    +0.000 A 
ATOM      7  S   UNL     1      -4.174  11.684  17.434  0.00  0.00    +0.000 S 
ATOM      8  C   UNL     1      -2.748  11.415  18.316  0.00  0.00    +0.000 A 
ATOM      9  C   UNL     1      -2.452  12.047  19.566  0.00  0.00    +0.000 A 
ATOM     10  O   UNL     1      -3.236  12.809  20.120  0.00  0.00    +0.000 OA
ENDROOT
BRANCH   1  16
ATOM     11  C   UNL     1      -3.312  14.148  24.493  0.00  0.00    +0.000 C 
ATOM     12  O   UNL     1      -3.984  13.389  25.195  0.00  0.00    +0.000 OA
ATOM     13  N   UNL     1      -2.475  13.662  23.480  0.00  0.00    +0.000 N 
ATOM     14  C   UNL     1      -2.687  12.269  23.184  0.00  0.00    +0.000 C 
ATOM     15  C   UNL     1      -1.501  11.562  22.584  0.00  0.00    +0.000 C 
ATOM     16  C   UNL     1      -0.787  12.264  21.423  0.00  0.00    +0.000 C 
ATOM     17  C   UNL     1      -0.722  13.806  21.691  0.00  0.00    +0.000 C 
ATOM     18  C   UNL     1      -1.945  14.463  22.377  0.00  0.00    +0.000 C 
BRANCH  11  19
ATOM     19  O   UNL     1      -3.349  15.501  24.644  0.00  0.00    +0.000 OA
BRANCH  19  21
ATOM     20  C   UNL     1      -4.914  17.300  25.200  0.00  0.00    +0.000 C 
ATOM     21  C   UNL     1      -4.625  16.103  24.311  0.00  0.00    +0.000 C 
ENDBRANCH  19  21
ENDBRANCH  11  19
ENDBRANCH   1  16
BRANCH   2  22
ATOM     22  S   UNL     1       1.233  10.404  20.047  0.00  0.00    +0.000 S 
BRANCH  22  23
ATOM     23  C   UNL     1       1.162   8.835  20.915  0.00  0.00    +0.000 C 
BRANCH  23  24
ATOM     24  C   UNL     1       1.672   7.576  20.247  0.00  0.00    +0.000 C 
ATOM     25  O   UNL     1       2.380   7.658  19.243  0.00  0.00    +0.000 OA
BRANCH  24  26
ATOM     26  O   UNL     1       1.369   6.397  20.856  0.00  0.00    +0.000 OA
BRANCH  26  27
ATOM     27  C   UNL     1       2.407   5.397  20.771  0.00  0.00    +0.000 C 
BRANCH  27  28
ATOM     28  C   UNL     1       2.242   4.353  19.681  0.00  0.00    +0.000 A 
ATOM     29  C   UNL     1       3.269   4.080  18.767  0.00  0.00    +0.000 A 
ATOM     30  C   UNL     1       3.187   2.971  17.918  0.00  0.00    +0.000 A 
ATOM     31  C   UNL     1       2.080   2.125  17.962  0.00  0.00    +0.000 A 
ATOM     32  C   UNL     1       1.031   2.406  18.834  0.00  0.00    +0.000 A 
ATOM     33  C   UNL     1       1.114   3.512  19.687  0.00  0.00    +0.000 A 
ENDBRANCH  27  28
ENDBRANCH  26  27
ENDBRANCH  24  26
ENDBRANCH  23  24
ENDBRANCH  22  23
ENDBRANCH   2  22
TORSDOF 9
ENDMDL
MODEL 7
REMARK VINA RESULT:      -6.9      1.061      1.357
REMARK  Name = 
REMARK  10 active torsions:
REMARK  status: ('A' for Active; 'I' for Inactive)
REMARK    1  A    between atoms: C_1  and  C_2
REMARK    2  A    between atoms: C_2  and  O_3
REMARK    3  A    between atoms: O_3  and  C_4
REMARK    4  A    between atoms: C_9  and  N_10
REMARK    5  A    between atoms: C_11  and  S_12
REMARK    6  A    between atoms: S_12  and  C_13
REMARK    7  A    between atoms: C_13  and  C_14
REMARK    8  A    between atoms: C_14  and  O_16
REMARK    9  A    between atoms: O_16  and  C_17
REMARK   10  A    between atoms: C_17  and  C_18
REMARK                            x       y       z     vdW  Elec       q    Type
REMARK                         _______ _______ _______ _____ _____    ______ ____
ROOT
ATOM      1  N   UNL     1      -1.280  11.649  19.771  0.00  0.00    +0.000 N 
ATOM      2  C   UNL     1      -0.467  10.718  19.024  0.00  0.00    +0.000 A 
ATOM      3  N   UNL     1      -0.811  10.107  17.926  0.00  0.00    +0.000 NA
ATOM      4  C   UNL     1      -2.082  10.438  17.449  0.00  0.00    +0.000 A 
ATOM      5  C   UNL     1      -2.684   9.851  16.307  0.00  0.00    +0.000 A 
ATOM      6  C   UNL     1      -3.942  10.392  16.074  0.00  0.00    +0.000 A 
ATOM      7  S   UNL     1      -4.350  11.591  17.230  0.00  0.00    +0.000 S 
ATOM      8  C   UNL     1      -2.890  11.343  18.062  0.00  0.00    +0.000 A 
ATOM      9  C   UNL     1      -2.546  12.002  19.284  0.00  0.00    +0.000 A 
ATOM     10  O   UNL     1      -3.309  12.776  19.852  0.00  0.00    +0.000 OA
ENDROOT
BRANCH   1  16
ATOM     11  C   UNL     1      -3.232  14.074  24.263  0.00  0.00    +0.000 C 
ATOM     12  O   UNL     1      -3.832  13.297  25.009  0.00  0.00    +0.000 OA
ATOM     13  N   UNL     1      -2.434  13.612  23.208  0.00  0.00    +0.000 N 
ATOM     14  C   UNL     1      -2.607  12.208  22.936  0.00  0.00    +0.000 C 
ATOM     15  C   UNL     1      -1.430  11.543  22.275  0.00  0.00    +0.000 C 
ATOM     16  C   UNL     1      -0.811  12.260  21.070  0.00  0.00    +0.000 C 
ATOM     17  C   UNL     1      -0.793  13.807  21.322  0.00  0.00    +0.000 C 
ATOM     18  C   UNL     1      -2.000  14.422  22.071  0.00  0.00    +0.000 C 
BRANCH  11  19
ATOM     19  O   UNL     1      -3.314  15.427  24.406  0.00  0.00    +0.000 OA
BRANCH  19  21
ATOM     20  C   UNL     1      -1.557  15.531  26.110  0.00  0.00    +0.000 C 
ATOM     21  C   UNL     1      -2.066  16.062  24.781  0.00  0.00    +0.000 C 
ENDBRANCH  19  21
ENDBRANCH  11  19
ENDBRANCH   1  16
BRANCH   2  22
ATOM     22  S   UNL     1       1.156  10.371  19.658  0.00  0.00    +0.000 S 
BRANCH  22  23
ATOM     23  C   UNL     1       1.516   8.626  19.443  0.00  0.00    +0.000 C 
BRANCH  23  24
ATOM     24  C   UNL     1       2.123   8.132  18.147  0.00  0.00    +0.000 C 
ATOM     25  O   UNL     1       2.579   8.939  17.336  0.00  0.00    +0.000 OA
BRANCH  24  26
ATOM     26  O   UNL     1       2.198   6.783  17.985  0.00  0.00    +0.000 OA
BRANCH  26  27
ATOM     27  C   UNL     1       3.224   6.142  18.772  0.00  0.00    +0.000 C 
BRANCH  27  28
ATOM     28  C   UNL     1       2.827   4.852  19.467  0.00  0.00    +0.000 A 
ATOM     29  C   UNL     1       3.747   3.812  19.660  0.00  0.00    +0.000 A 
ATOM     30  C   UNL     1       3.431   2.731  20.491  0.00  0.00    +0.000 A 
ATOM     31  C   UNL     1       2.194   2.668  21.132  0.00  0.00    +0.000 A 
ATOM     32  C   UNL     1       1.253   3.671  20.916  0.00  0.00    +0.000 A 
ATOM     33  C   UNL     1       1.570   4.754  20.090  0.00  0.00    +0.000 A 
ENDBRANCH  27  28
ENDBRANCH  26  27
ENDBRANCH  24  26
ENDBRANCH  23  24
ENDBRANCH  22  23
ENDBRANCH   2  22
TORSDOF 9
ENDMDL
MODEL 8
REMARK VINA RESULT:      -6.8      2.385      3.598
REMARK  Name = 
REMARK  10 active torsions:
REMARK  status: ('A' for Active; 'I' for Inactive)
REMARK    1  A    between atoms: C_1  and  C_2
REMARK    2  A    between atoms: C_2  and  O_3
REMARK    3  A    between atoms: O_3  and  C_4
REMARK    4  A    between atoms: C_9  and  N_10
REMARK    5  A    between atoms: C_11  and  S_12
REMARK    6  A    between atoms: S_12  and  C_13
REMARK    7  A    between atoms: C_13  and  C_14
REMARK    8  A    between atoms: C_14  and  O_16
REMARK    9  A    between atoms: O_16  and  C_17
REMARK   10  A    between atoms: C_17  and  C_18
REMARK                            x       y       z     vdW  Elec       q    Type
REMARK                         _______ _______ _______ _____ _____    ______ ____
ROOT
ATOM      1  N   UNL     1       0.065  12.608  20.312  0.00  0.00    +0.000 N 
ATOM      2  C   UNL     1       0.763  11.821  19.323  0.00  0.00    +0.000 A 
ATOM      3  N   UNL     1       1.807  12.197  18.640  0.00  0.00    +0.000 NA
ATOM      4  C   UNL     1       2.275  13.476  18.947  0.00  0.00    +0.000 A 
ATOM      5  C   UNL     1       3.358  14.110  18.286  0.00  0.00    +0.000 A 
ATOM      6  C   UNL     1       3.599  15.370  18.821  0.00  0.00    +0.000 A 
ATOM      7  S   UNL     1       2.520  15.741  20.102  0.00  0.00    +0.000 S 
ATOM      8  C   UNL     1       1.709  14.263  19.900  0.00  0.00    +0.000 A 
ATOM      9  C   UNL     1       0.544  13.884  20.641  0.00  0.00    +0.000 A 
ATOM     10  O   UNL     1       0.014  14.627  21.459  0.00  0.00    +0.000 OA
ENDROOT
BRANCH   1  16
ATOM     11  C   UNL     1      -4.560  14.431  22.584  0.00  0.00    +0.000 C 
ATOM     12  O   UNL     1      -5.369  14.856  21.756  0.00  0.00    +0.000 OA
ATOM     13  N   UNL     1      -3.441  13.681  22.199  0.00  0.00    +0.000 N 
ATOM     14  C   UNL     1      -3.204  13.699  20.778  0.00  0.00    +0.000 C 
ATOM     15  C   UNL     1      -2.444  12.513  20.250  0.00  0.00    +0.000 C 
ATOM     16  C   UNL     1      -1.177  12.104  21.009  0.00  0.00    +0.000 C 
ATOM     17  C   UNL     1      -1.406  12.259  22.551  0.00  0.00    +0.000 C 
ATOM     18  C   UNL     1      -2.257  13.460  23.028  0.00  0.00    +0.000 C 
BRANCH  11  19
ATOM     19  O   UNL     1      -4.693  14.670  23.918  0.00  0.00    +0.000 OA
BRANCH  19  21
ATOM     20  C   UNL     1      -3.370  16.288  25.195  0.00  0.00    +0.000 C 
ATOM     21  C   UNL     1      -4.568  16.066  24.288  0.00  0.00    +0.000 C 
ENDBRANCH  19  21
ENDBRANCH  11  19
ENDBRANCH   1  16
BRANCH   2  22
ATOM     22  S   UNL     1       0.146  10.185  19.007  0.00  0.00    +0.000 S 
BRANCH  22  23
ATOM     23  C   UNL     1       1.395   8.982  19.465  0.00  0.00    +0.000 C 
BRANCH  23  24
ATOM     24  C   UNL     1       2.253   8.337  18.397  0.00  0.00    +0.000 C 
ATOM     25  O   UNL     1       2.292   8.822  17.266  0.00  0.00    +0.000 OA
BRANCH  24  26
ATOM     26  O   UNL     1       3.009   7.273  18.782  0.00  0.00    +0.000 OA
BRANCH  26  27
ATOM     27  C   UNL     1       2.796   6.076  18.004  0.00  0.00    +0.000 C 
BRANCH  27  28
ATOM     28  C   UNL     1       2.016   4.965  18.683  0.00  0.00    +0.000 A 
ATOM     29  C   UNL     1       1.621   3.816  17.985  0.00  0.00    +0.000 A 
ATOM     30  C   UNL     1       1.103   2.712  18.671  0.00  0.00    +0.000 A 
ATOM     31  C   UNL     1       0.963   2.741  20.059  0.00  0.00    +0.000 A 
ATOM     32  C   UNL     1       1.311   3.892  20.762  0.00  0.00    +0.000 A 
ATOM     33  C   UNL     1       1.834   4.993  20.078  0.00  0.00    +0.000 A 
ENDBRANCH  27  28
ENDBRANCH  26  27
ENDBRANCH  24  26
ENDBRANCH  23  24
ENDBRANCH  22  23
ENDBRANCH   2  22
TORSDOF 9
ENDMDL
MODEL 9
REMARK VINA RESULT:      -6.8      0.796      1.095
REMARK  Name = 
REMARK  10 active torsions:
REMARK  status: ('A' for Active; 'I' for Inactive)
REMARK    1  A    between atoms: C_1  and  C_2
REMARK    2  A    between atoms: C_2  and  O_3
REMARK    3  A    between atoms: O_3  and  C_4
REMARK    4  A    between atoms: C_9  and  N_10
REMARK    5  A    between atoms: C_11  and  S_12
REMARK    6  A    between atoms: S_12  and  C_13
REMARK    7  A    between atoms: C_13  and  C_14
REMARK    8  A    between atoms: C_14  and  O_16
REMARK    9  A    between atoms: O_16  and  C_17
REMARK   10  A    between atoms: C_17  and  C_18
REMARK                            x       y       z     vdW  Elec       q    Type
REMARK                         _______ _______ _______ _____ _____    ______ ____
ROOT
ATOM      1  N   UNL     1      -1.233  11.509  19.579  0.00  0.00    +0.000 N 
ATOM      2  C   UNL     1      -0.454  10.596  18.777  0.00  0.00    +0.000 A 
ATOM      3  N   UNL     1      -0.833  10.038  17.662  0.00  0.00    +0.000 NA
ATOM      4  C   UNL     1      -2.107  10.410  17.228  0.00  0.00    +0.000 A 
ATOM      5  C   UNL     1      -2.744   9.882  16.076  0.00  0.00    +0.000 A 
ATOM      6  C   UNL     1      -3.997  10.455  15.893  0.00  0.00    +0.000 A 
ATOM      7  S   UNL     1      -4.357  11.612  17.107  0.00  0.00    +0.000 S 
ATOM      8  C   UNL     1      -2.885  11.303  17.895  0.00  0.00    +0.000 A 
ATOM      9  C   UNL     1      -2.503  11.905  19.136  0.00  0.00    +0.000 A 
ATOM     10  O   UNL     1      -3.239  12.667  19.752  0.00  0.00    +0.000 OA
ENDROOT
BRANCH   1  16
ATOM     11  C   UNL     1      -3.019  13.972  24.120  0.00  0.00    +0.000 C 
ATOM     12  O   UNL     1      -3.676  13.224  24.848  0.00  0.00    +0.000 OA
ATOM     13  N   UNL     1      -2.253  13.475  23.057  0.00  0.00    +0.000 N 
ATOM     14  C   UNL     1      -2.526  12.094  22.754  0.00  0.00    +0.000 C 
ATOM     15  C   UNL     1      -1.398  11.360  22.081  0.00  0.00    +0.000 C 
ATOM     16  C   UNL     1      -0.725  12.057  20.892  0.00  0.00    +0.000 C 
ATOM     17  C   UNL     1      -0.597  13.592  21.178  0.00  0.00    +0.000 C 
ATOM     18  C   UNL     1      -1.759  14.276  21.937  0.00  0.00    +0.000 C 
BRANCH  11  19
ATOM     19  O   UNL     1      -3.004  15.323  24.292  0.00  0.00    +0.000 OA
BRANCH  19  21
ATOM     20  C   UNL     1      -4.131  17.327  23.450  0.00  0.00    +0.000 C 
ATOM     21  C   UNL     1      -4.290  15.962  24.097  0.00  0.00    +0.000 C 
ENDBRANCH  19  21
ENDBRANCH  11  19
ENDBRANCH   1  16
BRANCH   2  22
ATOM     22  S   UNL     1       1.176  10.194  19.359  0.00  0.00    +0.000 S 
BRANCH  22  23
ATOM     23  C   UNL     1       1.777   8.747  18.487  0.00  0.00    +0.000 C 
BRANCH  23  24
ATOM     24  C   UNL     1       2.285   7.551  19.263  0.00  0.00    +0.000 C 
ATOM     25  O   UNL     1       1.716   7.204  20.299  0.00  0.00    +0.000 OA
BRANCH  24  26
ATOM     26  O   UNL     1       3.327   6.867  18.717  0.00  0.00    +0.000 OA
BRANCH  26  27
ATOM     27  C   UNL     1       2.949   5.666  18.009  0.00  0.00    +0.000 C 
BRANCH  27  28
ATOM     28  C   UNL     1       2.538   4.484  18.867  0.00  0.00    +0.000 A 
ATOM     29  C   UNL     1       3.308   4.071  19.963  0.00  0.00    +0.000 A 
ATOM     30  C   UNL     1       2.807   3.131  20.869  0.00  0.00    +0.000 A 
ATOM     31  C   UNL     1       1.537   2.583  20.692  0.00  0.00    +0.000 A 
ATOM     32  C   UNL     1       0.776   2.950  19.585  0.00  0.00    +0.000 A 
ATOM     33  C   UNL     1       1.274   3.894  18.681  0.00  0.00    +0.000 A 
ENDBRANCH  27  28
ENDBRANCH  26  27
ENDBRANCH  24  26
ENDBRANCH  23  24
ENDBRANCH  22  23
ENDBRANCH   2  22
TORSDOF 9
ENDMDL
