MODEL 1
REMARK VINA RESULT:      -7.0      0.000      0.000
REMARK  Name = 
REMARK  5 active torsions:
REMARK  status: ('A' for Active; 'I' for Inactive)
REMARK    1  A    between atoms: C_2  and  O_3
REMARK    2  A    between atoms: C_2  and  C_4
REMARK    3  A    between atoms: C_4  and  C_5
REMARK    4  A    between atoms: C_5  and  C_6
REMARK    5  A    between atoms: C_12  and  O_13
REMARK                            x       y       z     vdW  Elec       q    Type
REMARK                         _______ _______ _______ _____ _____    ______ ____
ROOT
ATOM      1  C   UNL     1       5.070   4.359  16.698  0.00  0.00    +0.000 C 
ATOM      2  O   UNL     1       5.607   3.586  15.909  0.00  0.00    +0.000 OA
ATOM      3  N   UNL     1       4.043   3.868  17.544  0.00  0.00    +0.000 N 
ATOM      4  C   UNL     1       3.656   2.533  17.514  0.00  0.00    +0.000 A 
ATOM      5  C   UNL     1       2.711   2.296  18.477  0.00  0.00    +0.000 A 
ATOM      6  C   UNL     1       2.447   3.527  19.122  0.00  0.00    +0.000 A 
ATOM      7  C   UNL     1       1.577   3.905  20.172  0.00  0.00    +0.000 A 
ATOM      8  C   UNL     1       1.507   5.224  20.603  0.00  0.00    +0.000 A 
ATOM      9  C   UNL     1       2.291   6.189  19.989  0.00  0.00    +0.000 A 
ATOM     10  C   UNL     1       3.164   5.852  18.947  0.00  0.00    +0.000 A 
ATOM     11  C   UNL     1       3.258   4.509  18.517  0.00  0.00    +0.000 A 
ENDROOT
BRANCH   7  12
ATOM     12  O   UNL     1       0.755   3.004  20.814  0.00  0.00    +0.000 OA
ATOM     13  H   UNL     1       0.531   2.306  20.177  0.00  0.00    +0.000 HD
ENDBRANCH   7  12
BRANCH   1  14
ATOM     14  C   UNL     1       5.450   5.803  16.829  0.00  0.00    +0.000 C 
BRANCH  14  15
ATOM     15  C   UNL     1       6.958   5.955  17.032  0.00  0.00    +0.000 C 
BRANCH  15  17
ATOM     16  O   UNL     1       7.177   5.205  19.323  0.00  0.00    +0.000 OA
ATOM     17  C   UNL     1       7.444   5.060  18.142  0.00  0.00    +0.000 C 
BRANCH  17  18
ATOM     18  O   UNL     1       8.224   4.052  17.690  0.00  0.00    +0.000 OA
ATOM     19  H   UNL     1       8.769   3.632  18.382  0.00  0.00    +0.000 HD
ENDBRANCH  17  18
ENDBRANCH  15  17
ENDBRANCH  14  15
ENDBRANCH   1  14
TORSDOF 5
ENDMDL
MODEL 2
REMARK VINA RESULT:      -6.8      1.541      1.810
REMARK  Name = 
REMARK  5 active torsions:
REMARK  status: ('A' for Active; 'I' for Inactive)
REMARK    1  A    between atoms: C_2  and  O_3
REMARK    2  A    between atoms: C_2  and  C_4
REMARK    3  A    between atoms: C_4  and  C_5
REMARK    4  A    between atoms: C_5  and  C_6
REMARK    5  A    between atoms: C_12  and  O_13
REMARK                            x       y       z     vdW  Elec       q    Type
REMARK                         _______ _______ _______ _____ _____    ______ ____
ROOT
ATOM      1  C   UNL     1       5.694   4.526  17.887  0.00  0.00    +0.000 C 
ATOM      2  O   UNL     1       6.419   4.158  16.965  0.00  0.00    +0.000 OA
ATOM      3  N   UNL     1       4.394   3.971  17.997  0.00  0.00    +0.000 N 
ATOM      4  C   UNL     1       3.939   3.007  17.105  0.00  0.00    +0.000 A 
ATOM      5  C   UNL     1       2.692   2.576  17.474  0.00  0.00    +0.000 A 
ATOM      6  C   UNL     1       2.311   3.316  18.618  0.00  0.00    +0.000 A 
ATOM      7  C   UNL     1       1.152   3.319  19.428  0.00  0.00    +0.000 A 
ATOM      8  C   UNL     1       1.035   4.189  20.506  0.00  0.00    +0.000 A 
ATOM      9  C   UNL     1       2.063   5.075  20.787  0.00  0.00    +0.000 A 
ATOM     10  C   UNL     1       3.226   5.100  20.007  0.00  0.00    +0.000 A 
ATOM     11  C   UNL     1       3.362   4.204  18.922  0.00  0.00    +0.000 A 
ENDROOT
BRANCH   7  12
ATOM     12  O   UNL     1       0.083   2.480  19.197  0.00  0.00    +0.000 OA
ATOM     13  H   UNL     1       0.440   1.609  18.962  0.00  0.00    +0.000 HD
ENDBRANCH   7  12
BRANCH   1  14
ATOM     14  C   UNL     1       6.115   5.528  18.919  0.00  0.00    +0.000 C 
BRANCH  14  15
ATOM     15  C   UNL     1       7.617   5.799  18.837  0.00  0.00    +0.000 C 
BRANCH  15  17
ATOM     16  O   UNL     1       7.476   7.422  17.047  0.00  0.00    +0.000 OA
ATOM     17  C   UNL     1       7.890   7.113  18.152  0.00  0.00    +0.000 C 
BRANCH  17  18
ATOM     18  O   UNL     1       8.656   7.938  18.900  0.00  0.00    +0.000 OA
ATOM     19  H   UNL     1       8.410   8.880  18.830  0.00  0.00    +0.000 HD
ENDBRANCH  17  18
ENDBRANCH  15  17
ENDBRANCH  14  15
ENDBRANCH   1  14
TORSDOF 5
ENDMDL
MODEL 3
REMARK VINA RESULT:      -6.8      1.443      2.697
REMARK  Name = 
REMARK  5 active torsions:
REMARK  status: ('A' for Active; 'I' for Inactive)
REMARK    1  A    between atoms: C_2  and  O_3
REMARK    2  A    between atoms: C_2  and  C_4
REMARK    3  A    between atoms: C_4  and  C_5
REMARK    4  A    between atoms: C_5  and  C_6
REMARK    5  A    between atoms: C_12  and  O_13
REMARK                            x       y       z     vdW  Elec       q    Type
REMARK                         _______ _______ _______ _____ _____    ______ ____
ROOT
ATOM      1  C   UNL     1       4.619   5.920  17.006  0.00  0.00    +0.000 C 
ATOM      2  O   UNL     1       5.138   7.027  17.124  0.00  0.00    +0.000 OA
ATOM      3  N   UNL     1       3.742   5.465  18.023  0.00  0.00    +0.000 N 
ATOM      4  C   UNL     1       3.441   6.254  19.128  0.00  0.00    +0.000 A 
ATOM      5  C   UNL     1       2.514   5.625  19.916  0.00  0.00    +0.000 A 
ATOM      6  C   UNL     1       2.237   4.370  19.323  0.00  0.00    +0.000 A 
ATOM      7  C   UNL     1       1.383   3.299  19.676  0.00  0.00    +0.000 A 
ATOM      8  C   UNL     1       1.323   2.147  18.900  0.00  0.00    +0.000 A 
ATOM      9  C   UNL     1       2.119   2.039  17.771  0.00  0.00    +0.000 A 
ATOM     10  C   UNL     1       2.975   3.080  17.390  0.00  0.00    +0.000 A 
ATOM     11  C   UNL     1       3.026   4.263  18.161  0.00  0.00    +0.000 A 
ENDROOT
BRANCH   7  12
ATOM     12  O   UNL     1       0.580   3.328  20.796  0.00  0.00    +0.000 OA
ATOM     13  H   UNL     1       1.105   3.700  21.523  0.00  0.00    +0.000 HD
ENDBRANCH   7  12
BRANCH   1  14
ATOM     14  C   UNL     1       4.851   5.020  15.831  0.00  0.00    +0.000 C 
BRANCH  14  15
ATOM     15  C   UNL     1       5.938   3.990  16.137  0.00  0.00    +0.000 C 
BRANCH  15  17
ATOM     16  O   UNL     1       7.684   5.470  15.350  0.00  0.00    +0.000 OA
ATOM     17  C   UNL     1       7.300   4.634  16.150  0.00  0.00    +0.000 C 
BRANCH  17  18
ATOM     18  O   UNL     1       8.075   4.185  17.163  0.00  0.00    +0.000 OA
ATOM     19  H   UNL     1       9.007   4.039  16.914  0.00  0.00    +0.000 HD
ENDBRANCH  17  18
ENDBRANCH  15  17
ENDBRANCH  14  15
ENDBRANCH   1  14
TORSDOF 5
ENDMDL
MODEL 4
REMARK VINA RESULT:      -6.8      1.874      3.274
REMARK  Name = 
REMARK  5 active torsions:
REMARK  status: ('A' for Active; 'I' for Inactive)
REMARK    1  A    between atoms: C_2  and  O_3
REMARK    2  A    between atoms: C_2  and  C_4
REMARK    3  A    between atoms: C_4  and  C_5
REMARK    4  A    between atoms: C_5  and  C_6
REMARK    5  A    between atoms: C_12  and  O_13
REMARK                            x       y       z     vdW  Elec       q    Type
REMARK                         _______ _______ _______ _____ _____    ______ ____
ROOT
ATOM      1  C   UNL     1       5.101   5.526  16.641  0.00  0.00    +0.000 C 
ATOM      2  O   UNL     1       5.446   6.682  16.405  0.00  0.00    +0.000 OA
ATOM      3  N   UNL     1       4.029   5.303  17.541  0.00  0.00    +0.000 N 
ATOM      4  C   UNL     1       3.348   6.361  18.135  0.00  0.00    +0.000 A 
ATOM      5  C   UNL     1       2.310   5.886  18.892  0.00  0.00    +0.000 A 
ATOM      6  C   UNL     1       2.346   4.473  18.820  0.00  0.00    +0.000 A 
ATOM      7  C   UNL     1       1.548   3.453  19.388  0.00  0.00    +0.000 A 
ATOM      8  C   UNL     1       1.832   2.112  19.157  0.00  0.00    +0.000 A 
ATOM      9  C   UNL     1       2.918   1.766  18.370  0.00  0.00    +0.000 A 
ATOM     10  C   UNL     1       3.730   2.748  17.790  0.00  0.00    +0.000 A 
ATOM     11  C   UNL     1       3.436   4.115  18.001  0.00  0.00    +0.000 A 
ENDROOT
BRANCH   7  12
ATOM     12  O   UNL     1       0.465   3.722  20.196  0.00  0.00    +0.000 OA
ATOM     13  H   UNL     1       0.466   4.676  20.378  0.00  0.00    +0.000 HD
ENDBRANCH   7  12
BRANCH   1  14
ATOM     14  C   UNL     1       5.748   4.328  16.016  0.00  0.00    +0.000 C 
BRANCH  14  15
ATOM     15  C   UNL     1       5.525   4.312  14.504  0.00  0.00    +0.000 C 
BRANCH  15  17
ATOM     16  O   UNL     1       7.058   4.269  12.631  0.00  0.00    +0.000 OA
ATOM     17  C   UNL     1       6.802   4.626  13.769  0.00  0.00    +0.000 C 
BRANCH  17  18
ATOM     18  O   UNL     1       7.658   5.364  14.511  0.00  0.00    +0.000 OA
ATOM     19  H   UNL     1       7.263   5.728  15.326  0.00  0.00    +0.000 HD
ENDBRANCH  17  18
ENDBRANCH  15  17
ENDBRANCH  14  15
ENDBRANCH   1  14
TORSDOF 5
ENDMDL
MODEL 5
REMARK VINA RESULT:      -6.8      1.390      2.501
REMARK  Name = 
REMARK  5 active torsions:
REMARK  status: ('A' for Active; 'I' for Inactive)
REMARK    1  A    between atoms: C_2  and  O_3
REMARK    2  A    between atoms: C_2  and  C_4
REMARK    3  A    between atoms: C_4  and  C_5
REMARK    4  A    between atoms: C_5  and  C_6
REMARK    5  A    between atoms: C_12  and  O_13
REMARK                            x       y       z     vdW  Elec       q    Type
REMARK                         _______ _______ _______ _____ _____    ______ ____
ROOT
ATOM      1  C   UNL     1       4.889   5.765  16.327  0.00  0.00    +0.000 C 
ATOM      2  O   UNL     1       5.188   6.924  16.051  0.00  0.00    +0.000 OA
ATOM      3  N   UNL     1       3.888   5.531  17.303  0.00  0.00    +0.000 N 
ATOM      4  C   UNL     1       3.225   6.581  17.929  0.00  0.00    +0.000 A 
ATOM      5  C   UNL     1       2.254   6.094  18.763  0.00  0.00    +0.000 A 
ATOM      6  C   UNL     1       2.319   4.681  18.708  0.00  0.00    +0.000 A 
ATOM      7  C   UNL     1       1.588   3.651  19.344  0.00  0.00    +0.000 A 
ATOM      8  C   UNL     1       1.887   2.314  19.113  0.00  0.00    +0.000 A 
ATOM      9  C   UNL     1       2.924   1.981  18.256  0.00  0.00    +0.000 A 
ATOM     10  C   UNL     1       3.669   2.974  17.608  0.00  0.00    +0.000 A 
ATOM     11  C   UNL     1       3.358   4.336  17.820  0.00  0.00    +0.000 A 
ENDROOT
BRANCH   7  12
ATOM     12  O   UNL     1       0.558   3.908  20.224  0.00  0.00    +0.000 OA
ATOM     13  H   UNL     1       0.225   4.799  20.032  0.00  0.00    +0.000 HD
ENDBRANCH   7  12
BRANCH   1  14
ATOM     14  C   UNL     1       5.520   4.572  15.675  0.00  0.00    +0.000 C 
BRANCH  14  15
ATOM     15  C   UNL     1       7.026   4.541  15.931  0.00  0.00    +0.000 C 
BRANCH  15  17
ATOM     16  O   UNL     1       7.888   5.913  17.730  0.00  0.00    +0.000 OA
ATOM     17  C   UNL     1       7.335   4.890  17.364  0.00  0.00    +0.000 C 
BRANCH  17  18
ATOM     18  O   UNL     1       6.929   3.932  18.228  0.00  0.00    +0.000 OA
ATOM     19  H   UNL     1       7.373   3.967  19.096  0.00  0.00    +0.000 HD
ENDBRANCH  17  18
ENDBRANCH  15  17
ENDBRANCH  14  15
ENDBRANCH   1  14
TORSDOF 5
ENDMDL
MODEL 6
REMARK VINA RESULT:      -6.7      2.153      4.847
REMARK  Name = 
REMARK  5 active torsions:
REMARK  status: ('A' for Active; 'I' for Inactive)
REMARK    1  A    between atoms: C_2  and  O_3
REMARK    2  A    between atoms: C_2  and  C_4
REMARK    3  A    between atoms: C_4  and  C_5
REMARK    4  A    between atoms: C_5  and  C_6
REMARK    5  A    between atoms: C_12  and  O_13
REMARK                            x       y       z     vdW  Elec       q    Type
REMARK                         _______ _______ _______ _____ _____    ______ ____
ROOT
ATOM      1  C   UNL     1       2.148   2.816  18.611  0.00  0.00    +0.000 C 
ATOM      2  O   UNL     1       2.260   1.593  18.585  0.00  0.00    +0.000 OA
ATOM      3  N   UNL     1       3.140   3.608  17.981  0.00  0.00    +0.000 N 
ATOM      4  C   UNL     1       4.215   3.029  17.315  0.00  0.00    +0.000 A 
ATOM      5  C   UNL     1       4.980   4.000  16.725  0.00  0.00    +0.000 A 
ATOM      6  C   UNL     1       4.406   5.250  17.056  0.00  0.00    +0.000 A 
ATOM      7  C   UNL     1       4.750   6.587  16.746  0.00  0.00    +0.000 A 
ATOM      8  C   UNL     1       3.998   7.650  17.234  0.00  0.00    +0.000 A 
ATOM      9  C   UNL     1       2.902   7.400  18.045  0.00  0.00    +0.000 A 
ATOM     10  C   UNL     1       2.531   6.089  18.371  0.00  0.00    +0.000 A 
ATOM     11  C   UNL     1       3.277   5.002  17.862  0.00  0.00    +0.000 A 
ENDROOT
BRANCH   7  12
ATOM     12  O   UNL     1       5.837   6.911  15.964  0.00  0.00    +0.000 OA
ATOM     13  H   UNL     1       6.037   6.141  15.408  0.00  0.00    +0.000 HD
ENDBRANCH   7  12
BRANCH   1  14
ATOM     14  C   UNL     1       1.002   3.526  19.268  0.00  0.00    +0.000 C 
BRANCH  14  15
ATOM     15  C   UNL     1       0.861   3.101  20.729  0.00  0.00    +0.000 C 
BRANCH  15  17
ATOM     16  O   UNL     1       2.804   2.563  22.069  0.00  0.00    +0.000 OA
ATOM     17  C   UNL     1       2.121   3.398  21.500  0.00  0.00    +0.000 C 
BRANCH  17  18
ATOM     18  O   UNL     1       2.430   4.714  21.497  0.00  0.00    +0.000 OA
ATOM     19  H   UNL     1       2.453   5.118  22.386  0.00  0.00    +0.000 HD
ENDBRANCH  17  18
ENDBRANCH  15  17
ENDBRANCH  14  15
ENDBRANCH   1  14
TORSDOF 5
ENDMDL
MODEL 7
REMARK VINA RESULT:      -6.7      2.915      4.582
REMARK  Name = 
REMARK  5 active torsions:
REMARK  status: ('A' for Active; 'I' for Inactive)
REMARK    1  A    between atoms: C_2  and  O_3
REMARK    2  A    between atoms: C_2  and  C_4
REMARK    3  A    between atoms: C_4  and  C_5
REMARK    4  A    between atoms: C_5  and  C_6
REMARK    5  A    between atoms: C_12  and  O_13
REMARK                            x       y       z     vdW  Elec       q    Type
REMARK                         _______ _______ _______ _____ _____    ______ ____
ROOT
ATOM      1  C   UNL     1       6.632   4.789  14.860  0.00  0.00    +0.000 C 
ATOM      2  O   UNL     1       7.679   5.302  14.473  0.00  0.00    +0.000 OA
ATOM      3  N   UNL     1       6.116   5.160  16.127  0.00  0.00    +0.000 N 
ATOM      4  C   UNL     1       6.754   6.107  16.921  0.00  0.00    +0.000 A 
ATOM      5  C   UNL     1       6.018   6.347  18.050  0.00  0.00    +0.000 A 
ATOM      6  C   UNL     1       4.887   5.497  18.006  0.00  0.00    +0.000 A 
ATOM      7  C   UNL     1       3.793   5.294  18.878  0.00  0.00    +0.000 A 
ATOM      8  C   UNL     1       2.810   4.354  18.587  0.00  0.00    +0.000 A 
ATOM      9  C   UNL     1       2.908   3.596  17.431  0.00  0.00    +0.000 A 
ATOM     10  C   UNL     1       3.977   3.771  16.543  0.00  0.00    +0.000 A 
ATOM     11  C   UNL     1       4.969   4.739  16.821  0.00  0.00    +0.000 A 
ENDROOT
BRANCH   7  12
ATOM     12  O   UNL     1       3.641   5.996  20.054  0.00  0.00    +0.000 OA
ATOM     13  H   UNL     1       3.994   6.889  19.909  0.00  0.00    +0.000 HD
ENDBRANCH   7  12
BRANCH   1  14
ATOM     14  C   UNL     1       5.855   3.792  14.055  0.00  0.00    +0.000 C 
BRANCH  14  15
ATOM     15  C   UNL     1       6.416   3.676  12.638  0.00  0.00    +0.000 C 
BRANCH  15  17
ATOM     16  O   UNL     1       4.434   3.019  11.412  0.00  0.00    +0.000 OA
ATOM     17  C   UNL     1       5.563   2.763  11.795  0.00  0.00    +0.000 C 
BRANCH  17  18
ATOM     18  O   UNL     1       6.188   1.602  11.496  0.00  0.00    +0.000 OA
ATOM     19  H   UNL     1       6.386   1.492  10.546  0.00  0.00    +0.000 HD
ENDBRANCH  17  18
ENDBRANCH  15  17
ENDBRANCH  14  15
ENDBRANCH   1  14
TORSDOF 5
ENDMDL
MODEL 8
REMARK VINA RESULT:      -6.6      1.924      5.417
REMARK  Name = 
REMARK  5 active torsions:
REMARK  status: ('A' for Active; 'I' for Inactive)
REMARK    1  A    between atoms: C_2  and  O_3
REMARK    2  A    between atoms: C_2  and  C_4
REMARK    3  A    between atoms: C_4  and  C_5
REMARK    4  A    between atoms: C_5  and  C_6
REMARK    5  A    between atoms: C_12  and  O_13
REMARK                            x       y       z     vdW  Elec       q    Type
REMARK                         _______ _______ _______ _____ _____    ______ ____
ROOT
ATOM      1  C   UNL     1       3.515   2.907  18.310  0.00  0.00    +0.000 C 
ATOM      2  O   UNL     1       2.670   2.309  17.649  0.00  0.00    +0.000 OA
ATOM      3  N   UNL     1       4.461   3.720  17.636  0.00  0.00    +0.000 N 
ATOM      4  C   UNL     1       4.431   3.873  16.254  0.00  0.00    +0.000 A 
ATOM      5  C   UNL     1       5.391   4.767  15.860  0.00  0.00    +0.000 A 
ATOM      6  C   UNL     1       6.092   5.174  17.020  0.00  0.00    +0.000 A 
ATOM      7  C   UNL     1       7.171   6.061  17.238  0.00  0.00    +0.000 A 
ATOM      8  C   UNL     1       7.685   6.262  18.514  0.00  0.00    +0.000 A 
ATOM      9  C   UNL     1       7.141   5.575  19.588  0.00  0.00    +0.000 A 
ATOM     10  C   UNL     1       6.070   4.690  19.410  0.00  0.00    +0.000 A 
ATOM     11  C   UNL     1       5.528   4.497  18.119  0.00  0.00    +0.000 A 
ENDROOT
BRANCH   7  12
ATOM     12  O   UNL     1       7.775   6.761  16.216  0.00  0.00    +0.000 OA
ATOM     13  H   UNL     1       7.326   7.619  16.144  0.00  0.00    +0.000 HD
ENDBRANCH   7  12
BRANCH   1  14
ATOM     14  C   UNL     1       3.597   2.835  19.805  0.00  0.00    +0.000 C 
BRANCH  14  15
ATOM     15  C   UNL     1       2.623   3.818  20.454  0.00  0.00    +0.000 C 
BRANCH  15  17
ATOM     16  O   UNL     1       1.505   2.532  22.173  0.00  0.00    +0.000 OA
ATOM     17  C   UNL     1       1.467   3.090  21.089  0.00  0.00    +0.000 C 
BRANCH  17  18
ATOM     18  O   UNL     1       0.355   3.115  20.321  0.00  0.00    +0.000 OA
ATOM     19  H   UNL     1      -0.168   3.935  20.406  0.00  0.00    +0.000 HD
ENDBRANCH  17  18
ENDBRANCH  15  17
ENDBRANCH  14  15
ENDBRANCH   1  14
TORSDOF 5
ENDMDL
MODEL 9
REMARK VINA RESULT:      -6.6      1.240      1.275
REMARK  Name = 
REMARK  5 active torsions:
REMARK  status: ('A' for Active; 'I' for Inactive)
REMARK    1  A    between atoms: C_2  and  O_3
REMARK    2  A    between atoms: C_2  and  C_4
REMARK    3  A    between atoms: C_4  and  C_5
REMARK    4  A    between atoms: C_5  and  C_6
REMARK    5  A    between atoms: C_12  and  O_13
REMARK                            x       y       z     vdW  Elec       q    Type
REMARK                         _______ _______ _______ _____ _____    ______ ____
ROOT
ATOM      1  C   UNL     1       4.678   4.563  16.687  0.00  0.00    +0.000 C 
ATOM      2  O   UNL     1       5.242   3.845  15.864  0.00  0.00    +0.000 OA
ATOM      3  N   UNL     1       3.769   3.973  17.600  0.00  0.00    +0.000 N 
ATOM      4  C   UNL     1       3.528   2.603  17.600  0.00  0.00    +0.000 A 
ATOM      5  C   UNL     1       2.680   2.275  18.624  0.00  0.00    +0.000 A 
ATOM      6  C   UNL     1       2.328   3.477  19.283  0.00  0.00    +0.000 A 
ATOM      7  C   UNL     1       1.495   3.768  20.388  0.00  0.00    +0.000 A 
ATOM      8  C   UNL     1       1.311   5.077  20.820  0.00  0.00    +0.000 A 
ATOM      9  C   UNL     1       1.943   6.114  20.153  0.00  0.00    +0.000 A 
ATOM     10  C   UNL     1       2.776   5.863  19.055  0.00  0.00    +0.000 A 
ATOM     11  C   UNL     1       2.986   4.534  18.623  0.00  0.00    +0.000 A 
ENDROOT
BRANCH   7  12
ATOM     12  O   UNL     1       0.820   2.790  21.086  0.00  0.00    +0.000 OA
ATOM     13  H   UNL     1       0.188   3.234  21.675  0.00  0.00    +0.000 HD
ENDBRANCH   7  12
BRANCH   1  14
ATOM     14  C   UNL     1       4.908   6.041  16.788  0.00  0.00    +0.000 C 
BRANCH  14  15
ATOM     15  C   UNL     1       6.090   6.348  17.707  0.00  0.00    +0.000 C 
BRANCH  15  17
ATOM     16  O   UNL     1       7.861   7.897  17.139  0.00  0.00    +0.000 OA
ATOM     17  C   UNL     1       7.268   6.855  16.917  0.00  0.00    +0.000 C 
BRANCH  17  18
ATOM     18  O   UNL     1       7.614   6.020  15.911  0.00  0.00    +0.000 OA
ATOM     19  H   UNL     1       6.889   5.440  15.610  0.00  0.00    +0.000 HD
ENDBRANCH  17  18
ENDBRANCH  15  17
ENDBRANCH  14  15
ENDBRANCH   1  14
TORSDOF 5
ENDMDL
