MODEL 1
REMARK VINA RESULT:      -8.2      0.000      0.000
REMARK  Name = 
REMARK  8 active torsions:
REMARK  status: ('A' for Active; 'I' for Inactive)
REMARK    1  A    between atoms: C_1  and  C_2
REMARK    2  A    between atoms: C_2  and  C_4
REMARK    3  A    between atoms: C_7  and  N_8
REMARK    4  A    between atoms: N_8  and  C_9
REMARK    5  A    between atoms: C_11  and  C_12
REMARK    6  A    between atoms: C_14  and  C_15
REMARK    7  A    between atoms: C_17  and  C_18
REMARK    8  A    between atoms: C_18  and  O_20
REMARK                            x       y       z     vdW  Elec       q    Type
REMARK                         _______ _______ _______ _____ _____    ______ ____
ROOT
ATOM      1  C   UNL     1       6.798   4.657  15.009  0.00  0.00    +0.000 A 
ATOM      2  C   UNL     1       5.714   3.808  15.229  0.00  0.00    +0.000 A 
ATOM      3  C   UNL     1       5.264   3.565  16.527  0.00  0.00    +0.000 A 
ATOM      4  C   UNL     1       5.849   4.187  17.645  0.00  0.00    +0.000 A 
ATOM      5  C   UNL     1       6.950   5.046  17.418  0.00  0.00    +0.000 A 
ATOM      6  C   UNL     1       7.418   5.266  16.106  0.00  0.00    +0.000 A 
ENDROOT
BRANCH   1   8
ATOM      7  C   UNL     1       6.643   4.097  12.492  0.00  0.00    +0.000 C 
ATOM      8  C   UNL     1       7.249   4.900  13.610  0.00  0.00    +0.000 C 
ATOM      9  O   UNL     1       8.098   5.755  13.385  0.00  0.00    +0.000 OA
ENDBRANCH   1   8
BRANCH   4  10
ATOM     10  N   UNL     1       5.349   3.872  18.935  0.00  0.00    +0.000 N 
ATOM     11  H   UNL     1       6.086   3.915  19.646  0.00  0.00    +0.000 HD
BRANCH  10  12
ATOM     12  C   UNL     1       4.109   4.283  19.489  0.00  0.00    +0.000 A 
ATOM     13  C   UNL     1       3.346   3.359  20.215  0.00  0.00    +0.000 A 
ATOM     14  C   UNL     1       2.125   3.727  20.802  0.00  0.00    +0.000 A 
ATOM     15  C   UNL     1       1.278   2.723  21.529  0.00  0.00    +0.000 C 
ATOM     16  C   UNL     1       1.684   5.052  20.694  0.00  0.00    +0.000 A 
ATOM     17  C   UNL     1       2.439   5.998  19.994  0.00  0.00    +0.000 A 
ATOM     18  C   UNL     1       1.994   7.428  19.902  0.00  0.00    +0.000 C 
ATOM     19  C   UNL     1       3.641   5.602  19.392  0.00  0.00    +0.000 A 
ENDBRANCH  10  12
ENDBRANCH   4  10
BRANCH   5  20
ATOM     20  C   UNL     1       7.658   5.833  18.468  0.00  0.00    +0.000 C 
ATOM     21  O   UNL     1       8.043   5.402  19.540  0.00  0.00    +0.000 OA
BRANCH  20  22
ATOM     22  O   UNL     1       7.948   7.096  18.088  0.00  0.00    +0.000 OA
ATOM     23  H   UNL     1       7.214   7.313  17.471  0.00  0.00    +0.000 HD
ENDBRANCH  20  22
ENDBRANCH   5  20
TORSDOF 5
ENDMDL
MODEL 2
REMARK VINA RESULT:      -8.2      0.146      1.881
REMARK  Name = 
REMARK  8 active torsions:
REMARK  status: ('A' for Active; 'I' for Inactive)
REMARK    1  A    between atoms: C_1  and  C_2
REMARK    2  A    between atoms: C_2  and  C_4
REMARK    3  A    between atoms: C_7  and  N_8
REMARK    4  A    between atoms: N_8  and  C_9
REMARK    5  A    between atoms: C_11  and  C_12
REMARK    6  A    between atoms: C_14  and  C_15
REMARK    7  A    between atoms: C_17  and  C_18
REMARK    8  A    between atoms: C_18  and  O_20
REMARK                            x       y       z     vdW  Elec       q    Type
REMARK                         _______ _______ _______ _____ _____    ______ ____
ROOT
ATOM      1  C   UNL     1       6.909   4.652  15.061  0.00  0.00    +0.000 A 
ATOM      2  C   UNL     1       5.846   3.768  15.243  0.00  0.00    +0.000 A 
ATOM      3  C   UNL     1       5.373   3.492  16.526  0.00  0.00    +0.000 A 
ATOM      4  C   UNL     1       5.913   4.114  17.666  0.00  0.00    +0.000 A 
ATOM      5  C   UNL     1       6.993   5.008  17.478  0.00  0.00    +0.000 A 
ATOM      6  C   UNL     1       7.485   5.262  16.181  0.00  0.00    +0.000 A 
ENDROOT
BRANCH   1   8
ATOM      7  C   UNL     1       6.790   4.163  12.527  0.00  0.00    +0.000 C 
ATOM      8  C   UNL     1       7.385   4.929  13.676  0.00  0.00    +0.000 C 
ATOM      9  O   UNL     1       8.246   5.782  13.489  0.00  0.00    +0.000 OA
ENDBRANCH   1   8
BRANCH   4  10
ATOM     10  N   UNL     1       5.393   3.765  18.939  0.00  0.00    +0.000 N 
ATOM     11  H   UNL     1       6.128   3.738  19.653  0.00  0.00    +0.000 HD
BRANCH  10  12
ATOM     12  C   UNL     1       4.173   4.212  19.511  0.00  0.00    +0.000 A 
ATOM     13  C   UNL     1       3.770   5.538  19.307  0.00  0.00    +0.000 A 
ATOM     14  C   UNL     1       2.560   6.018  19.832  0.00  0.00    +0.000 A 
ATOM     15  C   UNL     1       2.155   7.454  19.666  0.00  0.00    +0.000 C 
ATOM     16  C   UNL     1       1.723   5.143  20.537  0.00  0.00    +0.000 A 
ATOM     17  C   UNL     1       2.093   3.809  20.734  0.00  0.00    +0.000 A 
ATOM     18  C   UNL     1       1.190   2.854  21.456  0.00  0.00    +0.000 C 
ATOM     19  C   UNL     1       3.320   3.359  20.225  0.00  0.00    +0.000 A 
ENDBRANCH  10  12
ENDBRANCH   4  10
BRANCH   5  20
ATOM     20  C   UNL     1       7.653   5.800  18.556  0.00  0.00    +0.000 C 
ATOM     21  O   UNL     1       7.991   5.373  19.645  0.00  0.00    +0.000 OA
BRANCH  20  22
ATOM     22  O   UNL     1       7.957   7.062  18.185  0.00  0.00    +0.000 OA
ATOM     23  H   UNL     1       7.895   7.024  17.205  0.00  0.00    +0.000 HD
ENDBRANCH  20  22
ENDBRANCH   5  20
TORSDOF 5
ENDMDL
MODEL 3
REMARK VINA RESULT:      -7.9      0.727      1.988
REMARK  Name = 
REMARK  8 active torsions:
REMARK  status: ('A' for Active; 'I' for Inactive)
REMARK    1  A    between atoms: C_1  and  C_2
REMARK    2  A    between atoms: C_2  and  C_4
REMARK    3  A    between atoms: C_7  and  N_8
REMARK    4  A    between atoms: N_8  and  C_9
REMARK    5  A    between atoms: C_11  and  C_12
REMARK    6  A    between atoms: C_14  and  C_15
REMARK    7  A    between atoms: C_17  and  C_18
REMARK    8  A    between atoms: C_18  and  O_20
REMARK                            x       y       z     vdW  Elec       q    Type
REMARK                         _______ _______ _______ _____ _____    ______ ____
ROOT
ATOM      1  C   UNL     1       6.775   4.719  15.278  0.00  0.00    +0.000 A 
ATOM      2  C   UNL     1       5.625   3.958  15.490  0.00  0.00    +0.000 A 
ATOM      3  C   UNL     1       5.122   3.790  16.780  0.00  0.00    +0.000 A 
ATOM      4  C   UNL     1       5.719   4.404  17.896  0.00  0.00    +0.000 A 
ATOM      5  C   UNL     1       6.887   5.172  17.678  0.00  0.00    +0.000 A 
ATOM      6  C   UNL     1       7.407   5.315  16.375  0.00  0.00    +0.000 A 
ENDROOT
BRANCH   1   8
ATOM      7  C   UNL     1       6.698   4.041  12.787  0.00  0.00    +0.000 C 
ATOM      8  C   UNL     1       7.282   4.883  13.887  0.00  0.00    +0.000 C 
ATOM      9  O   UNL     1       8.160   5.707  13.653  0.00  0.00    +0.000 OA
ENDBRANCH   1   8
BRANCH   4  10
ATOM     10  N   UNL     1       5.161   4.167  19.179  0.00  0.00    +0.000 N 
ATOM     11  H   UNL     1       5.771   4.513  19.926  0.00  0.00    +0.000 HD
BRANCH  10  12
ATOM     12  C   UNL     1       3.799   4.313  19.553  0.00  0.00    +0.000 A 
ATOM     13  C   UNL     1       3.337   5.567  19.972  0.00  0.00    +0.000 A 
ATOM     14  C   UNL     1       1.994   5.764  20.329  0.00  0.00    +0.000 A 
ATOM     15  C   UNL     1       1.510   7.092  20.835  0.00  0.00    +0.000 C 
ATOM     16  C   UNL     1       1.093   4.697  20.224  0.00  0.00    +0.000 A 
ATOM     17  C   UNL     1       1.525   3.441  19.787  0.00  0.00    +0.000 A 
ATOM     18  C   UNL     1       0.563   2.300  19.637  0.00  0.00    +0.000 C 
ATOM     19  C   UNL     1       2.877   3.260  19.463  0.00  0.00    +0.000 A 
ENDBRANCH  10  12
ENDBRANCH   4  10
BRANCH   5  20
ATOM     20  C   UNL     1       7.621   5.937  18.726  0.00  0.00    +0.000 C 
ATOM     21  O   UNL     1       8.142   7.028  18.574  0.00  0.00    +0.000 OA
BRANCH  20  22
ATOM     22  O   UNL     1       7.581   5.355  19.943  0.00  0.00    +0.000 OA
ATOM     23  H   UNL     1       6.710   5.643  20.295  0.00  0.00    +0.000 HD
ENDBRANCH  20  22
ENDBRANCH   5  20
TORSDOF 5
ENDMDL
MODEL 4
REMARK VINA RESULT:      -7.5      3.120      6.989
REMARK  Name = 
REMARK  8 active torsions:
REMARK  status: ('A' for Active; 'I' for Inactive)
REMARK    1  A    between atoms: C_1  and  C_2
REMARK    2  A    between atoms: C_2  and  C_4
REMARK    3  A    between atoms: C_7  and  N_8
REMARK    4  A    between atoms: N_8  and  C_9
REMARK    5  A    between atoms: C_11  and  C_12
REMARK    6  A    between atoms: C_14  and  C_15
REMARK    7  A    between atoms: C_17  and  C_18
REMARK    8  A    between atoms: C_18  and  O_20
REMARK                            x       y       z     vdW  Elec       q    Type
REMARK                         _______ _______ _______ _____ _____    ______ ____
ROOT
ATOM      1  C   UNL     1       3.096   6.770  18.068  0.00  0.00    +0.000 A 
ATOM      2  C   UNL     1       4.195   7.207  17.329  0.00  0.00    +0.000 A 
ATOM      3  C   UNL     1       5.034   6.284  16.704  0.00  0.00    +0.000 A 
ATOM      4  C   UNL     1       4.787   4.900  16.759  0.00  0.00    +0.000 A 
ATOM      5  C   UNL     1       3.673   4.460  17.513  0.00  0.00    +0.000 A 
ATOM      6  C   UNL     1       2.845   5.397  18.166  0.00  0.00    +0.000 A 
ENDROOT
BRANCH   1   8
ATOM      7  C   UNL     1       1.715   8.947  17.908  0.00  0.00    +0.000 C 
ATOM      8  C   UNL     1       2.218   7.783  18.717  0.00  0.00    +0.000 C 
ATOM      9  O   UNL     1       1.907   7.653  19.896  0.00  0.00    +0.000 OA
ENDBRANCH   1   8
BRANCH   4  10
ATOM     10  N   UNL     1       5.698   4.023  16.116  0.00  0.00    +0.000 N 
ATOM     11  H   UNL     1       5.531   3.046  16.379  0.00  0.00    +0.000 HD
BRANCH  10  12
ATOM     12  C   UNL     1       6.145   4.098  14.771  0.00  0.00    +0.000 A 
ATOM     13  C   UNL     1       5.467   3.369  13.785  0.00  0.00    +0.000 A 
ATOM     14  C   UNL     1       5.858   3.431  12.439  0.00  0.00    +0.000 A 
ATOM     15  C   UNL     1       5.172   2.604  11.391  0.00  0.00    +0.000 C 
ATOM     16  C   UNL     1       6.918   4.270  12.071  0.00  0.00    +0.000 A 
ATOM     17  C   UNL     1       7.595   5.025  13.032  0.00  0.00    +0.000 A 
ATOM     18  C   UNL     1       8.708   5.953  12.646  0.00  0.00    +0.000 C 
ATOM     19  C   UNL     1       7.206   4.925  14.376  0.00  0.00    +0.000 A 
ENDBRANCH  10  12
ENDBRANCH   4  10
BRANCH   5  20
ATOM     20  C   UNL     1       3.225   3.044  17.639  0.00  0.00    +0.000 C 
ATOM     21  O   UNL     1       2.167   2.595  17.234  0.00  0.00    +0.000 OA
BRANCH  20  22
ATOM     22  O   UNL     1       4.162   2.230  18.170  0.00  0.00    +0.000 OA
ATOM     23  H   UNL     1       4.740   2.030  17.402  0.00  0.00    +0.000 HD
ENDBRANCH  20  22
ENDBRANCH   5  20
TORSDOF 5
ENDMDL
MODEL 5
REMARK VINA RESULT:      -7.4      3.306      7.145
REMARK  Name = 
REMARK  8 active torsions:
REMARK  status: ('A' for Active; 'I' for Inactive)
REMARK    1  A    between atoms: C_1  and  C_2
REMARK    2  A    between atoms: C_2  and  C_4
REMARK    3  A    between atoms: C_7  and  N_8
REMARK    4  A    between atoms: N_8  and  C_9
REMARK    5  A    between atoms: C_11  and  C_12
REMARK    6  A    between atoms: C_14  and  C_15
REMARK    7  A    between atoms: C_17  and  C_18
REMARK    8  A    between atoms: C_18  and  O_20
REMARK                            x       y       z     vdW  Elec       q    Type
REMARK                         _______ _______ _______ _____ _____    ______ ____
ROOT
ATOM      1  C   UNL     1       1.490   8.082  20.528  0.00  0.00    +0.000 A 
ATOM      2  C   UNL     1       1.999   8.386  19.266  0.00  0.00    +0.000 A 
ATOM      3  C   UNL     1       2.506   7.375  18.449  0.00  0.00    +0.000 A 
ATOM      4  C   UNL     1       2.489   6.025  18.843  0.00  0.00    +0.000 A 
ATOM      5  C   UNL     1       1.975   5.720  20.125  0.00  0.00    +0.000 A 
ATOM      6  C   UNL     1       1.490   6.750  20.957  0.00  0.00    +0.000 A 
ENDROOT
BRANCH   1   8
ATOM      7  C   UNL     1      -0.268   9.935  20.909  0.00  0.00    +0.000 C 
ATOM      8  C   UNL     1       0.950   9.185  21.371  0.00  0.00    +0.000 C 
ATOM      9  O   UNL     1       1.498   9.463  22.433  0.00  0.00    +0.000 OA
ENDBRANCH   1   8
BRANCH   4  10
ATOM     10  N   UNL     1       3.043   5.056  17.966  0.00  0.00    +0.000 N 
ATOM     11  H   UNL     1       2.431   4.880  17.162  0.00  0.00    +0.000 HD
BRANCH  10  12
ATOM     12  C   UNL     1       4.404   4.938  17.580  0.00  0.00    +0.000 A 
ATOM     13  C   UNL     1       4.710   4.525  16.277  0.00  0.00    +0.000 A 
ATOM     14  C   UNL     1       6.041   4.417  15.843  0.00  0.00    +0.000 A 
ATOM     15  C   UNL     1       6.372   3.918  14.467  0.00  0.00    +0.000 C 
ATOM     16  C   UNL     1       7.077   4.770  16.717  0.00  0.00    +0.000 A 
ATOM     17  C   UNL     1       6.796   5.207  18.015  0.00  0.00    +0.000 A 
ATOM     18  C   UNL     1       7.896   5.620  18.948  0.00  0.00    +0.000 C 
ATOM     19  C   UNL     1       5.461   5.279  18.437  0.00  0.00    +0.000 A 
ENDBRANCH  10  12
ENDBRANCH   4  10
BRANCH   5  20
ATOM     20  C   UNL     1       1.825   4.347  20.688  0.00  0.00    +0.000 C 
ATOM     21  O   UNL     1       2.290   3.958  21.745  0.00  0.00    +0.000 OA
BRANCH  20  22
ATOM     22  O   UNL     1       1.013   3.554  19.958  0.00  0.00    +0.000 OA
ATOM     23  H   UNL     1       1.627   3.157  19.301  0.00  0.00    +0.000 HD
ENDBRANCH  20  22
ENDBRANCH   5  20
TORSDOF 5
ENDMDL
MODEL 6
REMARK VINA RESULT:      -7.4      2.946      4.291
REMARK  Name = 
REMARK  8 active torsions:
REMARK  status: ('A' for Active; 'I' for Inactive)
REMARK    1  A    between atoms: C_1  and  C_2
REMARK    2  A    between atoms: C_2  and  C_4
REMARK    3  A    between atoms: C_7  and  N_8
REMARK    4  A    between atoms: N_8  and  C_9
REMARK    5  A    between atoms: C_11  and  C_12
REMARK    6  A    between atoms: C_14  and  C_15
REMARK    7  A    between atoms: C_17  and  C_18
REMARK    8  A    between atoms: C_18  and  O_20
REMARK                            x       y       z     vdW  Elec       q    Type
REMARK                         _______ _______ _______ _____ _____    ______ ____
ROOT
ATOM      1  C   UNL     1       5.609   4.723  16.864  0.00  0.00    +0.000 A 
ATOM      2  C   UNL     1       5.975   5.611  17.875  0.00  0.00    +0.000 A 
ATOM      3  C   UNL     1       5.056   5.971  18.861  0.00  0.00    +0.000 A 
ATOM      4  C   UNL     1       3.757   5.432  18.898  0.00  0.00    +0.000 A 
ATOM      5  C   UNL     1       3.388   4.534  17.869  0.00  0.00    +0.000 A 
ATOM      6  C   UNL     1       4.313   4.196  16.859  0.00  0.00    +0.000 A 
ENDROOT
BRANCH   1   8
ATOM      7  C   UNL     1       6.149   3.912  14.472  0.00  0.00    +0.000 C 
ATOM      8  C   UNL     1       6.617   4.355  15.830  0.00  0.00    +0.000 C 
ATOM      9  O   UNL     1       7.812   4.427  16.094  0.00  0.00    +0.000 OA
ENDBRANCH   1   8
BRANCH   4  10
ATOM     10  N   UNL     1       2.873   5.864  19.920  0.00  0.00    +0.000 N 
ATOM     11  H   UNL     1       3.246   5.660  20.853  0.00  0.00    +0.000 HD
BRANCH  10  12
ATOM     12  C   UNL     1       2.127   7.071  19.944  0.00  0.00    +0.000 A 
ATOM     13  C   UNL     1       1.353   7.372  21.073  0.00  0.00    +0.000 A 
ATOM     14  C   UNL     1       0.617   8.565  21.151  0.00  0.00    +0.000 A 
ATOM     15  C   UNL     1      -0.259   8.862  22.334  0.00  0.00    +0.000 C 
ATOM     16  C   UNL     1       0.693   9.488  20.100  0.00  0.00    +0.000 A 
ATOM     17  C   UNL     1       1.476   9.220  18.974  0.00  0.00    +0.000 A 
ATOM     18  C   UNL     1       1.593  10.216  17.857  0.00  0.00    +0.000 C 
ATOM     19  C   UNL     1       2.180   8.009  18.903  0.00  0.00    +0.000 A 
ENDBRANCH  10  12
ENDBRANCH   4  10
BRANCH   5  20
ATOM     20  C   UNL     1       2.081   3.823  17.775  0.00  0.00    +0.000 C 
ATOM     21  O   UNL     1       1.070   4.260  17.254  0.00  0.00    +0.000 OA
BRANCH  20  22
ATOM     22  O   UNL     1       2.125   2.557  18.242  0.00  0.00    +0.000 OA
ATOM     23  H   UNL     1       3.026   2.260  17.988  0.00  0.00    +0.000 HD
ENDBRANCH  20  22
ENDBRANCH   5  20
TORSDOF 5
ENDMDL
MODEL 7
REMARK VINA RESULT:      -7.4      1.987      3.190
REMARK  Name = 
REMARK  8 active torsions:
REMARK  status: ('A' for Active; 'I' for Inactive)
REMARK    1  A    between atoms: C_1  and  C_2
REMARK    2  A    between atoms: C_2  and  C_4
REMARK    3  A    between atoms: C_7  and  N_8
REMARK    4  A    between atoms: N_8  and  C_9
REMARK    5  A    between atoms: C_11  and  C_12
REMARK    6  A    between atoms: C_14  and  C_15
REMARK    7  A    between atoms: C_17  and  C_18
REMARK    8  A    between atoms: C_18  and  O_20
REMARK                            x       y       z     vdW  Elec       q    Type
REMARK                         _______ _______ _______ _____ _____    ______ ____
ROOT
ATOM      1  C   UNL     1       6.456   4.518  15.120  0.00  0.00    +0.000 A 
ATOM      2  C   UNL     1       7.255   5.079  16.116  0.00  0.00    +0.000 A 
ATOM      3  C   UNL     1       6.872   4.995  17.455  0.00  0.00    +0.000 A 
ATOM      4  C   UNL     1       5.705   4.317  17.852  0.00  0.00    +0.000 A 
ATOM      5  C   UNL     1       4.895   3.752  16.839  0.00  0.00    +0.000 A 
ATOM      6  C   UNL     1       5.273   3.865  15.485  0.00  0.00    +0.000 A 
ENDROOT
BRANCH   1   8
ATOM      7  C   UNL     1       6.318   3.681  12.681  0.00  0.00    +0.000 C 
ATOM      8  C   UNL     1       6.898   4.621  13.701  0.00  0.00    +0.000 C 
ATOM      9  O   UNL     1       7.720   5.473  13.381  0.00  0.00    +0.000 OA
ENDBRANCH   1   8
BRANCH   4  10
ATOM     10  N   UNL     1       5.371   4.293  19.231  0.00  0.00    +0.000 N 
ATOM     11  H   UNL     1       6.115   4.700  19.807  0.00  0.00    +0.000 HD
BRANCH  10  12
ATOM     12  C   UNL     1       4.102   4.571  19.804  0.00  0.00    +0.000 A 
ATOM     13  C   UNL     1       3.556   5.853  19.663  0.00  0.00    +0.000 A 
ATOM     14  C   UNL     1       2.294   6.168  20.191  0.00  0.00    +0.000 A 
ATOM     15  C   UNL     1       1.734   7.557  20.094  0.00  0.00    +0.000 C 
ATOM     16  C   UNL     1       1.552   5.168  20.833  0.00  0.00    +0.000 A 
ATOM     17  C   UNL     1       2.065   3.875  20.966  0.00  0.00    +0.000 A 
ATOM     18  C   UNL     1       1.265   2.788  21.621  0.00  0.00    +0.000 C 
ATOM     19  C   UNL     1       3.340   3.591  20.457  0.00  0.00    +0.000 A 
ENDBRANCH  10  12
ENDBRANCH   4  10
BRANCH   5  20
ATOM     20  C   UNL     1       3.658   2.953  17.072  0.00  0.00    +0.000 C 
ATOM     21  O   UNL     1       2.533   3.270  16.731  0.00  0.00    +0.000 OA
BRANCH  20  22
ATOM     22  O   UNL     1       3.896   1.745  17.626  0.00  0.00    +0.000 OA
ATOM     23  H   UNL     1       3.965   1.952  18.584  0.00  0.00    +0.000 HD
ENDBRANCH  20  22
ENDBRANCH   5  20
TORSDOF 5
ENDMDL
MODEL 8
REMARK VINA RESULT:      -7.4      3.182      7.165
REMARK  Name = 
REMARK  8 active torsions:
REMARK  status: ('A' for Active; 'I' for Inactive)
REMARK    1  A    between atoms: C_1  and  C_2
REMARK    2  A    between atoms: C_2  and  C_4
REMARK    3  A    between atoms: C_7  and  N_8
REMARK    4  A    between atoms: N_8  and  C_9
REMARK    5  A    between atoms: C_11  and  C_12
REMARK    6  A    between atoms: C_14  and  C_15
REMARK    7  A    between atoms: C_17  and  C_18
REMARK    8  A    between atoms: C_18  and  O_20
REMARK                            x       y       z     vdW  Elec       q    Type
REMARK                         _______ _______ _______ _____ _____    ______ ____
ROOT
ATOM      1  C   UNL     1       3.074   6.904  18.106  0.00  0.00    +0.000 A 
ATOM      2  C   UNL     1       4.188   7.309  17.371  0.00  0.00    +0.000 A 
ATOM      3  C   UNL     1       4.992   6.364  16.735  0.00  0.00    +0.000 A 
ATOM      4  C   UNL     1       4.696   4.990  16.773  0.00  0.00    +0.000 A 
ATOM      5  C   UNL     1       3.567   4.581  17.523  0.00  0.00    +0.000 A 
ATOM      6  C   UNL     1       2.774   5.539  18.187  0.00  0.00    +0.000 A 
ENDROOT
BRANCH   1   8
ATOM      7  C   UNL     1       1.763   9.125  17.971  0.00  0.00    +0.000 C 
ATOM      8  C   UNL     1       2.233   7.940  18.768  0.00  0.00    +0.000 C 
ATOM      9  O   UNL     1       1.926   7.811  19.948  0.00  0.00    +0.000 OA
ENDBRANCH   1   8
BRANCH   4  10
ATOM     10  N   UNL     1       5.574   4.088  16.119  0.00  0.00    +0.000 N 
ATOM     11  H   UNL     1       5.392   3.117  16.393  0.00  0.00    +0.000 HD
BRANCH  10  12
ATOM     12  C   UNL     1       5.995   4.143  14.764  0.00  0.00    +0.000 A 
ATOM     13  C   UNL     1       7.092   4.944  14.423  0.00  0.00    +0.000 A 
ATOM     14  C   UNL     1       7.559   5.011  13.101  0.00  0.00    +0.000 A 
ATOM     15  C   UNL     1       8.696   5.914  12.722  0.00  0.00    +0.000 C 
ATOM     16  C   UNL     1       6.941   4.231  12.115  0.00  0.00    +0.000 A 
ATOM     17  C   UNL     1       5.858   3.406  12.436  0.00  0.00    +0.000 A 
ATOM     18  C   UNL     1       5.211   2.540  11.396  0.00  0.00    +0.000 C 
ATOM     19  C   UNL     1       5.390   3.377  13.757  0.00  0.00    +0.000 A 
ENDBRANCH  10  12
ENDBRANCH   4  10
BRANCH   5  20
ATOM     20  C   UNL     1       3.068   3.180  17.632  0.00  0.00    +0.000 C 
ATOM     21  O   UNL     1       3.742   2.206  17.912  0.00  0.00    +0.000 OA
BRANCH  20  22
ATOM     22  O   UNL     1       1.729   3.076  17.489  0.00  0.00    +0.000 OA
ATOM     23  H   UNL     1       1.630   2.286  16.913  0.00  0.00    +0.000 HD
ENDBRANCH  20  22
ENDBRANCH   5  20
TORSDOF 5
ENDMDL
MODEL 9
REMARK VINA RESULT:      -7.4      3.098      7.184
REMARK  Name = 
REMARK  8 active torsions:
REMARK  status: ('A' for Active; 'I' for Inactive)
REMARK    1  A    between atoms: C_1  and  C_2
REMARK    2  A    between atoms: C_2  and  C_4
REMARK    3  A    between atoms: C_7  and  N_8
REMARK    4  A    between atoms: N_8  and  C_9
REMARK    5  A    between atoms: C_11  and  C_12
REMARK    6  A    between atoms: C_14  and  C_15
REMARK    7  A    between atoms: C_17  and  C_18
REMARK    8  A    between atoms: C_18  and  O_20
REMARK                            x       y       z     vdW  Elec       q    Type
REMARK                         _______ _______ _______ _____ _____    ______ ____
ROOT
ATOM      1  C   UNL     1       3.038   6.867  18.072  0.00  0.00    +0.000 A 
ATOM      2  C   UNL     1       4.152   7.319  17.364  0.00  0.00    +0.000 A 
ATOM      3  C   UNL     1       5.005   6.409  16.740  0.00  0.00    +0.000 A 
ATOM      4  C   UNL     1       4.759   5.024  16.765  0.00  0.00    +0.000 A 
ATOM      5  C   UNL     1       3.630   4.568  17.486  0.00  0.00    +0.000 A 
ATOM      6  C   UNL     1       2.787   5.492  18.138  0.00  0.00    +0.000 A 
ENDROOT
BRANCH   1   8
ATOM      7  C   UNL     1       1.868   7.759  20.194  0.00  0.00    +0.000 C 
ATOM      8  C   UNL     1       2.144   7.867  18.720  0.00  0.00    +0.000 C 
ATOM      9  O   UNL     1       1.653   8.769  18.050  0.00  0.00    +0.000 OA
ENDBRANCH   1   8
BRANCH   4  10
ATOM     10  N   UNL     1       5.685   4.159  16.125  0.00  0.00    +0.000 N 
ATOM     11  H   UNL     1       5.573   3.189  16.435  0.00  0.00    +0.000 HD
BRANCH  10  12
ATOM     12  C   UNL     1       6.078   4.194  14.761  0.00  0.00    +0.000 A 
ATOM     13  C   UNL     1       7.166   4.992  14.385  0.00  0.00    +0.000 A 
ATOM     14  C   UNL     1       7.606   5.039  13.053  0.00  0.00    +0.000 A 
ATOM     15  C   UNL     1       8.734   5.939  12.637  0.00  0.00    +0.000 C 
ATOM     16  C   UNL     1       6.970   4.242  12.092  0.00  0.00    +0.000 A 
ATOM     17  C   UNL     1       5.896   3.421  12.447  0.00  0.00    +0.000 A 
ATOM     18  C   UNL     1       5.229   2.537  11.435  0.00  0.00    +0.000 C 
ATOM     19  C   UNL     1       5.455   3.411  13.778  0.00  0.00    +0.000 A 
ENDBRANCH  10  12
ENDBRANCH   4  10
BRANCH   5  20
ATOM     20  C   UNL     1       3.181   3.149  17.575  0.00  0.00    +0.000 C 
ATOM     21  O   UNL     1       2.078   2.733  17.271  0.00  0.00    +0.000 OA
BRANCH  20  22
ATOM     22  O   UNL     1       4.164   2.298  17.940  0.00  0.00    +0.000 OA
ATOM     23  H   UNL     1       3.669   1.552  18.344  0.00  0.00    +0.000 HD
ENDBRANCH  20  22
ENDBRANCH   5  20
TORSDOF 5
ENDMDL
