MODEL 1
REMARK VINA RESULT:      -8.2      0.000      0.000
REMARK  Name = 
REMARK  11 active torsions:
REMARK  status: ('A' for Active; 'I' for Inactive)
REMARK    1  A    between atoms: C_1  and  C_2
REMARK    2  A    between atoms: C_2  and  N_3
REMARK    3  A    between atoms: N_3  and  C_4
REMARK    4  A    between atoms: C_4  and  C_5
REMARK    5  A    between atoms: N_7  and  C_8
REMARK    6  A    between atoms: C_8  and  C_9
REMARK    7  A    between atoms: C_14  and  C_16
REMARK    8  A    between atoms: C_20  and  S_21
REMARK    9  A    between atoms: S_21  and  N_24
REMARK   10  A    between atoms: C_26  and  C_27
REMARK   11  A    between atoms: C_29  and  C_30
REMARK                            x       y       z     vdW  Elec       q    Type
REMARK                         _______ _______ _______ _____ _____    ______ ____
ROOT
ATOM      1  C   UNL     1       2.497   6.810  18.045  0.00  0.00    +0.000 A 
ATOM      2  C   UNL     1       1.464   5.883  17.815  0.00  0.00    +0.000 A 
ATOM      3  C   UNL     1       1.711   4.510  17.796  0.00  0.00    +0.000 A 
ATOM      4  C   UNL     1       2.997   4.030  18.064  0.00  0.00    +0.000 A 
ATOM      5  C   UNL     1       4.038   4.947  18.245  0.00  0.00    +0.000 A 
ATOM      6  C   UNL     1       3.796   6.323  18.146  0.00  0.00    +0.000 A 
ENDROOT
BRANCH   1   8
ATOM      7  N   UNL     1       1.576   8.802  19.363  0.00  0.00    +0.000 N 
ATOM      8  C   UNL     1       2.108   8.252  18.179  0.00  0.00    +0.000 C 
ATOM      9  O   UNL     1       2.223   8.929  17.156  0.00  0.00    +0.000 OA
BRANCH   7  11
ATOM     10  C   UNL     1      -0.284  10.344  18.687  0.00  0.00    +0.000 C 
ATOM     11  C   UNL     1       1.112  10.196  19.276  0.00  0.00    +0.000 C 
ENDBRANCH   7  11
BRANCH   7  12
ATOM     12  C   UNL     1       1.448   8.162  20.684  0.00  0.00    +0.000 C 
BRANCH  12  13
ATOM     13  C   UNL     1       0.248   8.537  21.570  0.00  0.00    +0.000 C 
ATOM     14  O   UNL     1      -0.842   7.974  21.499  0.00  0.00    +0.000 OA
ATOM     15  N   UNL     1       0.476   9.645  22.370  0.00  0.00    +0.000 N 
ATOM     16  H   UNL     1       1.428   9.811  22.691  0.00  0.00    +0.000 HD
BRANCH  15  17
ATOM     17  C   UNL     1      -0.543  10.129  23.280  0.00  0.00    +0.000 C 
BRANCH  17  18
ATOM     18  C   UNL     1      -1.059  11.455  22.793  0.00  0.00    +0.000 A 
ATOM     19  C   UNL     1      -0.475  12.336  21.901  0.00  0.00    +0.000 A 
ATOM     20  C   UNL     1      -1.307  13.461  21.615  0.00  0.00    +0.000 A 
ATOM     21  C   UNL     1      -2.496  13.408  22.306  0.00  0.00    +0.000 A 
ATOM     22  S   UNL     1      -2.598  12.021  23.301  0.00  0.00    +0.000 S 
ENDBRANCH  17  18
ENDBRANCH  15  17
ENDBRANCH  12  13
ENDBRANCH   7  12
ENDBRANCH   1   8
BRANCH   5  23
ATOM     23  S   UNL     1       5.507   4.437  19.122  0.00  0.00    +0.000 S 
ATOM     24  O   UNL     1       5.833   5.524  20.027  0.00  0.00    +0.000 OA
ATOM     25  O   UNL     1       5.223   3.120  19.651  0.00  0.00    +0.000 OA
BRANCH  23  26
ATOM     26  N   UNL     1       6.773   4.294  17.993  0.00  0.00    +0.000 NA
ATOM     27  C   UNL     1       6.382   4.052  16.557  0.00  0.00    +0.000 C 
ATOM     28  C   UNL     1       5.902   5.350  15.842  0.00  0.00    +0.000 C 
ATOM     29  C   UNL     1       5.748   5.136  14.341  0.00  0.00    +0.000 C 
ATOM     30  O   UNL     1       6.819   6.450  16.021  0.00  0.00    +0.000 OA
ATOM     31  C   UNL     1       7.041   6.705  17.419  0.00  0.00    +0.000 C 
ATOM     32  C   UNL     1       7.879   7.964  17.573  0.00  0.00    +0.000 C 
ATOM     33  C   UNL     1       7.723   5.472  18.032  0.00  0.00    +0.000 C 
ENDBRANCH  23  26
ENDBRANCH   5  23
TORSDOF 8
ENDMDL
MODEL 2
REMARK VINA RESULT:      -7.7      2.778      8.323
REMARK  Name = 
REMARK  11 active torsions:
REMARK  status: ('A' for Active; 'I' for Inactive)
REMARK    1  A    between atoms: C_1  and  C_2
REMARK    2  A    between atoms: C_2  and  N_3
REMARK    3  A    between atoms: N_3  and  C_4
REMARK    4  A    between atoms: C_4  and  C_5
REMARK    5  A    between atoms: N_7  and  C_8
REMARK    6  A    between atoms: C_8  and  C_9
REMARK    7  A    between atoms: C_14  and  C_16
REMARK    8  A    between atoms: C_20  and  S_21
REMARK    9  A    between atoms: S_21  and  N_24
REMARK   10  A    between atoms: C_26  and  C_27
REMARK   11  A    between atoms: C_29  and  C_30
REMARK                            x       y       z     vdW  Elec       q    Type
REMARK                         _______ _______ _______ _____ _____    ______ ____
ROOT
ATOM      1  C   UNL     1       3.982   6.940  17.508  0.00  0.00    +0.000 A 
ATOM      2  C   UNL     1       3.549   5.956  18.416  0.00  0.00    +0.000 A 
ATOM      3  C   UNL     1       2.572   6.232  19.373  0.00  0.00    +0.000 A 
ATOM      4  C   UNL     1       1.965   7.491  19.406  0.00  0.00    +0.000 A 
ATOM      5  C   UNL     1       2.425   8.488  18.539  0.00  0.00    +0.000 A 
ATOM      6  C   UNL     1       3.486   8.231  17.662  0.00  0.00    +0.000 A 
ENDROOT
BRANCH   1   8
ATOM      7  N   UNL     1       5.956   5.560  16.641  0.00  0.00    +0.000 N 
ATOM      8  C   UNL     1       4.936   6.509  16.434  0.00  0.00    +0.000 C 
ATOM      9  O   UNL     1       4.814   7.089  15.354  0.00  0.00    +0.000 OA
BRANCH   7  11
ATOM     10  C   UNL     1       6.491   4.242  14.574  0.00  0.00    +0.000 C 
ATOM     11  C   UNL     1       6.893   5.362  15.524  0.00  0.00    +0.000 C 
ENDBRANCH   7  11
BRANCH   7  12
ATOM     12  C   UNL     1       6.189   4.723  17.832  0.00  0.00    +0.000 C 
BRANCH  12  13
ATOM     13  C   UNL     1       5.279   3.505  18.065  0.00  0.00    +0.000 C 
ATOM     14  O   UNL     1       4.583   3.007  17.183  0.00  0.00    +0.000 OA
ATOM     15  N   UNL     1       5.228   3.098  19.388  0.00  0.00    +0.000 N 
ATOM     16  H   UNL     1       6.058   3.241  19.961  0.00  0.00    +0.000 HD
BRANCH  15  17
ATOM     17  C   UNL     1       4.430   1.956  19.786  0.00  0.00    +0.000 C 
BRANCH  17  18
ATOM     18  C   UNL     1       3.039   2.413  20.131  0.00  0.00    +0.000 A 
ATOM     19  C   UNL     1       2.586   2.997  21.300  0.00  0.00    +0.000 A 
ATOM     20  C   UNL     1       1.211   3.376  21.227  0.00  0.00    +0.000 A 
ATOM     21  C   UNL     1       0.656   3.058  20.009  0.00  0.00    +0.000 A 
ATOM     22  S   UNL     1       1.780   2.298  18.970  0.00  0.00    +0.000 S 
ENDBRANCH  17  18
ENDBRANCH  15  17
ENDBRANCH  12  13
ENDBRANCH   7  12
ENDBRANCH   1   8
BRANCH   5  23
ATOM     23  S   UNL     1       1.358   9.864  18.147  0.00  0.00    +0.000 S 
ATOM     24  O   UNL     1       2.204  10.866  17.526  0.00  0.00    +0.000 OA
ATOM     25  O   UNL     1       0.240   9.310  17.413  0.00  0.00    +0.000 OA
BRANCH  23  26
ATOM     26  N   UNL     1       0.766  10.508  19.608  0.00  0.00    +0.000 NA
ATOM     27  C   UNL     1       1.278  11.869  20.010  0.00  0.00    +0.000 C 
ATOM     28  C   UNL     1       0.582  13.023  19.229  0.00  0.00    +0.000 C 
ATOM     29  C   UNL     1       0.932  14.384  19.818  0.00  0.00    +0.000 C 
ATOM     30  O   UNL     1      -0.856  12.911  19.246  0.00  0.00    +0.000 OA
ATOM     31  C   UNL     1      -1.274  11.637  18.725  0.00  0.00    +0.000 C 
ATOM     32  C   UNL     1      -2.789  11.614  18.606  0.00  0.00    +0.000 C 
ATOM     33  C   UNL     1      -0.746  10.538  19.661  0.00  0.00    +0.000 C 
ENDBRANCH  23  26
ENDBRANCH   5  23
TORSDOF 8
ENDMDL
MODEL 3
REMARK VINA RESULT:      -7.6      2.651      9.241
REMARK  Name = 
REMARK  11 active torsions:
REMARK  status: ('A' for Active; 'I' for Inactive)
REMARK    1  A    between atoms: C_1  and  C_2
REMARK    2  A    between atoms: C_2  and  N_3
REMARK    3  A    between atoms: N_3  and  C_4
REMARK    4  A    between atoms: C_4  and  C_5
REMARK    5  A    between atoms: N_7  and  C_8
REMARK    6  A    between atoms: C_8  and  C_9
REMARK    7  A    between atoms: C_14  and  C_16
REMARK    8  A    between atoms: C_20  and  S_21
REMARK    9  A    between atoms: S_21  and  N_24
REMARK   10  A    between atoms: C_26  and  C_27
REMARK   11  A    between atoms: C_29  and  C_30
REMARK                            x       y       z     vdW  Elec       q    Type
REMARK                         _______ _______ _______ _____ _____    ______ ____
ROOT
ATOM      1  C   UNL     1       2.138   5.986  19.123  0.00  0.00    +0.000 A 
ATOM      2  C   UNL     1       1.841   5.848  20.492  0.00  0.00    +0.000 A 
ATOM      3  C   UNL     1       1.538   6.955  21.284  0.00  0.00    +0.000 A 
ATOM      4  C   UNL     1       1.471   8.228  20.706  0.00  0.00    +0.000 A 
ATOM      5  C   UNL     1       1.812   8.378  19.358  0.00  0.00    +0.000 A 
ATOM      6  C   UNL     1       2.227   7.274  18.604  0.00  0.00    +0.000 A 
ENDROOT
BRANCH   1   8
ATOM      7  N   UNL     1       3.514   3.979  18.328  0.00  0.00    +0.000 N 
ATOM      8  C   UNL     1       2.319   4.726  18.330  0.00  0.00    +0.000 C 
ATOM      9  O   UNL     1       1.366   4.407  17.617  0.00  0.00    +0.000 OA
BRANCH   7  11
ATOM     10  C   UNL     1       3.608   1.488  18.054  0.00  0.00    +0.000 C 
ATOM     11  C   UNL     1       3.571   2.854  17.382  0.00  0.00    +0.000 C 
ENDBRANCH   7  11
BRANCH   7  12
ATOM     12  C   UNL     1       4.707   4.172  19.171  0.00  0.00    +0.000 C 
BRANCH  12  13
ATOM     13  C   UNL     1       5.988   4.722  18.520  0.00  0.00    +0.000 C 
ATOM     14  O   UNL     1       6.992   5.022  19.162  0.00  0.00    +0.000 OA
ATOM     15  N   UNL     1       5.860   4.957  17.161  0.00  0.00    +0.000 N 
ATOM     16  H   UNL     1       5.228   4.358  16.633  0.00  0.00    +0.000 HD
BRANCH  15  17
ATOM     17  C   UNL     1       6.976   5.461  16.385  0.00  0.00    +0.000 C 
BRANCH  17  18
ATOM     18  C   UNL     1       6.859   4.972  14.967  0.00  0.00    +0.000 A 
ATOM     19  C   UNL     1       7.604   5.340  13.862  0.00  0.00    +0.000 A 
ATOM     20  C   UNL     1       7.259   4.593  12.694  0.00  0.00    +0.000 A 
ATOM     21  C   UNL     1       6.254   3.686  12.944  0.00  0.00    +0.000 A 
ATOM     22  S   UNL     1       5.724   3.748  14.568  0.00  0.00    +0.000 S 
ENDBRANCH  17  18
ENDBRANCH  15  17
ENDBRANCH  12  13
ENDBRANCH   7  12
ENDBRANCH   1   8
BRANCH   5  23
ATOM     23  S   UNL     1       1.215   9.801  18.461  0.00  0.00    +0.000 S 
ATOM     24  O   UNL     1       2.394  10.498  17.981  0.00  0.00    +0.000 OA
ATOM     25  O   UNL     1       0.239   9.302  17.516  0.00  0.00    +0.000 OA
BRANCH  23  26
ATOM     26  N   UNL     1       0.413  10.823  19.562  0.00  0.00    +0.000 NA
ATOM     27  C   UNL     1       0.906  12.245  19.657  0.00  0.00    +0.000 C 
ATOM     28  C   UNL     1       0.402  13.131  18.480  0.00  0.00    +0.000 C 
ATOM     29  C   UNL     1       0.705  14.605  18.723  0.00  0.00    +0.000 C 
ATOM     30  O   UNL     1      -1.021  13.019  18.275  0.00  0.00    +0.000 OA
ATOM     31  C   UNL     1      -1.398  11.648  18.060  0.00  0.00    +0.000 C 
ATOM     32  C   UNL     1      -2.871  11.583  17.689  0.00  0.00    +0.000 C 
ATOM     33  C   UNL     1      -1.084  10.856  19.340  0.00  0.00    +0.000 C 
ENDBRANCH  23  26
ENDBRANCH   5  23
TORSDOF 8
ENDMDL
MODEL 4
REMARK VINA RESULT:      -7.5      3.087      4.105
REMARK  Name = 
REMARK  11 active torsions:
REMARK  status: ('A' for Active; 'I' for Inactive)
REMARK    1  A    between atoms: C_1  and  C_2
REMARK    2  A    between atoms: C_2  and  N_3
REMARK    3  A    between atoms: N_3  and  C_4
REMARK    4  A    between atoms: C_4  and  C_5
REMARK    5  A    between atoms: N_7  and  C_8
REMARK    6  A    between atoms: C_8  and  C_9
REMARK    7  A    between atoms: C_14  and  C_16
REMARK    8  A    between atoms: C_20  and  S_21
REMARK    9  A    between atoms: S_21  and  N_24
REMARK   10  A    between atoms: C_26  and  C_27
REMARK   11  A    between atoms: C_29  and  C_30
REMARK                            x       y       z     vdW  Elec       q    Type
REMARK                         _______ _______ _______ _____ _____    ______ ____
ROOT
ATOM      1  C   UNL     1       1.614   8.854  19.016  0.00  0.00    +0.000 A 
ATOM      2  C   UNL     1       1.240   8.503  20.326  0.00  0.00    +0.000 A 
ATOM      3  C   UNL     1       1.518   7.239  20.846  0.00  0.00    +0.000 A 
ATOM      4  C   UNL     1       2.231   6.311  20.079  0.00  0.00    +0.000 A 
ATOM      5  C   UNL     1       2.563   6.637  18.760  0.00  0.00    +0.000 A 
ATOM      6  C   UNL     1       2.175   7.866  18.213  0.00  0.00    +0.000 A 
ENDROOT
BRANCH   1   8
ATOM      7  N   UNL     1       0.116  10.875  18.543  0.00  0.00    +0.000 N 
ATOM      8  C   UNL     1       1.391  10.276  18.597  0.00  0.00    +0.000 C 
ATOM      9  O   UNL     1       2.398  10.887  18.236  0.00  0.00    +0.000 OA
BRANCH   7  11
ATOM     10  C   UNL     1       0.074  13.339  19.014  0.00  0.00    +0.000 C 
ATOM     11  C   UNL     1       0.061  12.229  17.971  0.00  0.00    +0.000 C 
ENDBRANCH   7  11
BRANCH   7  12
ATOM     12  C   UNL     1      -1.168  10.321  19.009  0.00  0.00    +0.000 C 
BRANCH  12  13
ATOM     13  C   UNL     1      -2.392  10.420  18.083  0.00  0.00    +0.000 C 
ATOM     14  O   UNL     1      -2.482   9.812  17.020  0.00  0.00    +0.000 OA
ATOM     15  N   UNL     1      -3.328  11.351  18.503  0.00  0.00    +0.000 N 
ATOM     16  H   UNL     1      -3.423  11.511  19.504  0.00  0.00    +0.000 HD
BRANCH  15  17
ATOM     17  C   UNL     1      -4.552  11.564  17.757  0.00  0.00    +0.000 C 
BRANCH  17  18
ATOM     18  C   UNL     1      -5.712  11.645  18.712  0.00  0.00    +0.000 A 
ATOM     19  C   UNL     1      -6.624  10.663  19.051  0.00  0.00    +0.000 A 
ATOM     20  C   UNL     1      -7.538  11.087  20.063  0.00  0.00    +0.000 A 
ATOM     21  C   UNL     1      -7.300  12.384  20.457  0.00  0.00    +0.000 A 
ATOM     22  S   UNL     1      -5.996  13.085  19.602  0.00  0.00    +0.000 S 
ENDBRANCH  17  18
ENDBRANCH  15  17
ENDBRANCH  12  13
ENDBRANCH   7  12
ENDBRANCH   1   8
BRANCH   5  23
ATOM     23  S   UNL     1       3.909   5.777  17.962  0.00  0.00    +0.000 S 
ATOM     24  O   UNL     1       4.895   5.525  18.996  0.00  0.00    +0.000 OA
ATOM     25  O   UNL     1       3.312   4.667  17.250  0.00  0.00    +0.000 OA
BRANCH  23  26
ATOM     26  N   UNL     1       4.604   6.829  16.817  0.00  0.00    +0.000 NA
ATOM     27  C   UNL     1       5.638   7.803  17.326  0.00  0.00    +0.000 C 
ATOM     28  C   UNL     1       7.028   7.136  17.545  0.00  0.00    +0.000 C 
ATOM     29  C   UNL     1       8.108   8.176  17.820  0.00  0.00    +0.000 C 
ATOM     30  O   UNL     1       7.459   6.369  16.401  0.00  0.00    +0.000 OA
ATOM     31  C   UNL     1       6.480   5.374  16.057  0.00  0.00    +0.000 C 
ATOM     32  C   UNL     1       7.033   4.483  14.957  0.00  0.00    +0.000 C 
ATOM     33  C   UNL     1       5.190   6.094  15.632  0.00  0.00    +0.000 C 
ENDBRANCH  23  26
ENDBRANCH   5  23
TORSDOF 8
ENDMDL
MODEL 5
REMARK VINA RESULT:      -7.5      2.043      3.046
REMARK  Name = 
REMARK  11 active torsions:
REMARK  status: ('A' for Active; 'I' for Inactive)
REMARK    1  A    between atoms: C_1  and  C_2
REMARK    2  A    between atoms: C_2  and  N_3
REMARK    3  A    between atoms: N_3  and  C_4
REMARK    4  A    between atoms: C_4  and  C_5
REMARK    5  A    between atoms: N_7  and  C_8
REMARK    6  A    between atoms: C_8  and  C_9
REMARK    7  A    between atoms: C_14  and  C_16
REMARK    8  A    between atoms: C_20  and  S_21
REMARK    9  A    between atoms: S_21  and  N_24
REMARK   10  A    between atoms: C_26  and  C_27
REMARK   11  A    between atoms: C_29  and  C_30
REMARK                            x       y       z     vdW  Elec       q    Type
REMARK                         _______ _______ _______ _____ _____    ______ ____
ROOT
ATOM      1  C   UNL     1       1.729   8.374  19.164  0.00  0.00    +0.000 A 
ATOM      2  C   UNL     1       1.405   7.908  20.451  0.00  0.00    +0.000 A 
ATOM      3  C   UNL     1       1.729   6.613  20.857  0.00  0.00    +0.000 A 
ATOM      4  C   UNL     1       2.438   5.770  19.995  0.00  0.00    +0.000 A 
ATOM      5  C   UNL     1       2.719   6.210  18.698  0.00  0.00    +0.000 A 
ATOM      6  C   UNL     1       2.285   7.469  18.265  0.00  0.00    +0.000 A 
ENDROOT
BRANCH   1   8
ATOM      7  N   UNL     1       0.390  10.538  19.442  0.00  0.00    +0.000 N 
ATOM      8  C   UNL     1       1.459   9.820  18.870  0.00  0.00    +0.000 C 
ATOM      9  O   UNL     1       2.202  10.338  18.035  0.00  0.00    +0.000 OA
BRANCH   7  11
ATOM     10  C   UNL     1       1.116  12.938  19.548  0.00  0.00    +0.000 C 
ATOM     11  C   UNL     1       0.183  11.903  18.933  0.00  0.00    +0.000 C 
ENDBRANCH   7  11
BRANCH   7  12
ATOM     12  C   UNL     1      -0.533  10.101  20.504  0.00  0.00    +0.000 C 
BRANCH  12  13
ATOM     13  C   UNL     1      -0.655  10.959  21.774  0.00  0.00    +0.000 C 
ATOM     14  O   UNL     1       0.042  10.787  22.771  0.00  0.00    +0.000 OA
ATOM     15  N   UNL     1      -1.703  11.865  21.731  0.00  0.00    +0.000 N 
ATOM     16  H   UNL     1      -1.965  12.244  20.823  0.00  0.00    +0.000 HD
BRANCH  15  17
ATOM     17  C   UNL     1      -1.954  12.765  22.838  0.00  0.00    +0.000 C 
BRANCH  17  18
ATOM     18  C   UNL     1      -3.424  12.762  23.161  0.00  0.00    +0.000 A 
ATOM     19  C   UNL     1      -4.043  12.505  24.370  0.00  0.00    +0.000 A 
ATOM     20  C   UNL     1      -5.459  12.680  24.310  0.00  0.00    +0.000 A 
ATOM     21  C   UNL     1      -5.876  13.056  23.054  0.00  0.00    +0.000 A 
ATOM     22  S   UNL     1      -4.572  13.181  21.955  0.00  0.00    +0.000 S 
ENDBRANCH  17  18
ENDBRANCH  15  17
ENDBRANCH  12  13
ENDBRANCH   7  12
ENDBRANCH   1   8
BRANCH   5  23
ATOM     23  S   UNL     1       4.057   5.452  17.790  0.00  0.00    +0.000 S 
ATOM     24  O   UNL     1       5.094   5.168  18.764  0.00  0.00    +0.000 OA
ATOM     25  O   UNL     1       3.467   4.370  17.030  0.00  0.00    +0.000 OA
BRANCH  23  26
ATOM     26  N   UNL     1       4.668   6.601  16.691  0.00  0.00    +0.000 NA
ATOM     27  C   UNL     1       5.669   7.593  17.229  0.00  0.00    +0.000 C 
ATOM     28  C   UNL     1       7.095   6.984  17.373  0.00  0.00    +0.000 C 
ATOM     29  C   UNL     1       8.131   8.058  17.679  0.00  0.00    +0.000 C 
ATOM     30  O   UNL     1       7.529   6.306  16.175  0.00  0.00    +0.000 OA
ATOM     31  C   UNL     1       6.588   5.285  15.799  0.00  0.00    +0.000 C 
ATOM     32  C   UNL     1       7.151   4.487  14.634  0.00  0.00    +0.000 C 
ATOM     33  C   UNL     1       5.254   5.964  15.450  0.00  0.00    +0.000 C 
ENDBRANCH  23  26
ENDBRANCH   5  23
TORSDOF 8
ENDMDL
MODEL 6
REMARK VINA RESULT:      -7.4      3.131      4.683
REMARK  Name = 
REMARK  11 active torsions:
REMARK  status: ('A' for Active; 'I' for Inactive)
REMARK    1  A    between atoms: C_1  and  C_2
REMARK    2  A    between atoms: C_2  and  N_3
REMARK    3  A    between atoms: N_3  and  C_4
REMARK    4  A    between atoms: C_4  and  C_5
REMARK    5  A    between atoms: N_7  and  C_8
REMARK    6  A    between atoms: C_8  and  C_9
REMARK    7  A    between atoms: C_14  and  C_16
REMARK    8  A    between atoms: C_20  and  S_21
REMARK    9  A    between atoms: S_21  and  N_24
REMARK   10  A    between atoms: C_26  and  C_27
REMARK   11  A    between atoms: C_29  and  C_30
REMARK                            x       y       z     vdW  Elec       q    Type
REMARK                         _______ _______ _______ _____ _____    ______ ____
ROOT
ATOM      1  C   UNL     1       1.069  10.116  19.595  0.00  0.00    +0.000 A 
ATOM      2  C   UNL     1       0.894   9.904  20.975  0.00  0.00    +0.000 A 
ATOM      3  C   UNL     1       1.137   8.658  21.554  0.00  0.00    +0.000 A 
ATOM      4  C   UNL     1       1.617   7.606  20.767  0.00  0.00    +0.000 A 
ATOM      5  C   UNL     1       1.746   7.796  19.388  0.00  0.00    +0.000 A 
ATOM      6  C   UNL     1       1.388   9.017  18.803  0.00  0.00    +0.000 A 
ENDROOT
BRANCH   1   8
ATOM      7  N   UNL     1      -0.340  12.106  18.814  0.00  0.00    +0.000 N 
ATOM      8  C   UNL     1       0.912  11.520  19.092  0.00  0.00    +0.000 C 
ATOM      9  O   UNL     1       1.963  12.125  18.871  0.00  0.00    +0.000 OA
BRANCH   7  11
ATOM     10  C   UNL     1      -0.253  14.585  19.189  0.00  0.00    +0.000 C 
ATOM     11  C   UNL     1      -0.306  13.437  18.189  0.00  0.00    +0.000 C 
ENDBRANCH   7  11
BRANCH   7  12
ATOM     12  C   UNL     1      -1.680  11.560  19.092  0.00  0.00    +0.000 C 
BRANCH  12  13
ATOM     13  C   UNL     1      -2.560  12.264  20.138  0.00  0.00    +0.000 C 
ATOM     14  O   UNL     1      -2.288  12.292  21.336  0.00  0.00    +0.000 OA
ATOM     15  N   UNL     1      -3.745  12.760  19.619  0.00  0.00    +0.000 N 
ATOM     16  H   UNL     1      -3.746  13.070  18.650  0.00  0.00    +0.000 HD
BRANCH  15  17
ATOM     17  C   UNL     1      -4.688  13.467  20.463  0.00  0.00    +0.000 C 
BRANCH  17  18
ATOM     18  C   UNL     1      -5.908  12.613  20.675  0.00  0.00    +0.000 A 
ATOM     19  C   UNL     1      -6.369  11.559  19.908  0.00  0.00    +0.000 A 
ATOM     20  C   UNL     1      -7.520  10.931  20.474  0.00  0.00    +0.000 A 
ATOM     21  C   UNL     1      -7.906  11.532  21.650  0.00  0.00    +0.000 A 
ATOM     22  S   UNL     1      -6.898  12.851  22.057  0.00  0.00    +0.000 S 
ENDBRANCH  17  18
ENDBRANCH  15  17
ENDBRANCH  12  13
ENDBRANCH   7  12
ENDBRANCH   1   8
BRANCH   5  23
ATOM     23  S   UNL     1       2.847   6.740  18.461  0.00  0.00    +0.000 S 
ATOM     24  O   UNL     1       1.999   5.901  17.634  0.00  0.00    +0.000 OA
ATOM     25  O   UNL     1       3.818   7.616  17.840  0.00  0.00    +0.000 OA
BRANCH  23  26
ATOM     26  N   UNL     1       3.668   5.734  19.563  0.00  0.00    +0.000 NA
ATOM     27  C   UNL     1       3.101   4.353  19.777  0.00  0.00    +0.000 C 
ATOM     28  C   UNL     1       3.467   3.373  18.622  0.00  0.00    +0.000 C 
ATOM     29  C   UNL     1       3.099   1.936  18.974  0.00  0.00    +0.000 C 
ATOM     30  O   UNL     1       4.876   3.385  18.313  0.00  0.00    +0.000 OA
ATOM     31  C   UNL     1       5.314   4.717  17.991  0.00  0.00    +0.000 C 
ATOM     32  C   UNL     1       6.757   4.670  17.516  0.00  0.00    +0.000 C 
ATOM     33  C   UNL     1       5.140   5.596  19.240  0.00  0.00    +0.000 C 
ENDBRANCH  23  26
ENDBRANCH   5  23
TORSDOF 8
ENDMDL
MODEL 7
REMARK VINA RESULT:      -7.4      3.064      5.313
REMARK  Name = 
REMARK  11 active torsions:
REMARK  status: ('A' for Active; 'I' for Inactive)
REMARK    1  A    between atoms: C_1  and  C_2
REMARK    2  A    between atoms: C_2  and  N_3
REMARK    3  A    between atoms: N_3  and  C_4
REMARK    4  A    between atoms: C_4  and  C_5
REMARK    5  A    between atoms: N_7  and  C_8
REMARK    6  A    between atoms: C_8  and  C_9
REMARK    7  A    between atoms: C_14  and  C_16
REMARK    8  A    between atoms: C_20  and  S_21
REMARK    9  A    between atoms: S_21  and  N_24
REMARK   10  A    between atoms: C_26  and  C_27
REMARK   11  A    between atoms: C_29  and  C_30
REMARK                            x       y       z     vdW  Elec       q    Type
REMARK                         _______ _______ _______ _____ _____    ______ ____
ROOT
ATOM      1  C   UNL     1       1.151   8.912  19.957  0.00  0.00    +0.000 A 
ATOM      2  C   UNL     1       1.294   9.877  18.942  0.00  0.00    +0.000 A 
ATOM      3  C   UNL     1       2.057   9.623  17.802  0.00  0.00    +0.000 A 
ATOM      4  C   UNL     1       2.652   8.370  17.627  0.00  0.00    +0.000 A 
ATOM      5  C   UNL     1       2.554   7.424  18.653  0.00  0.00    +0.000 A 
ATOM      6  C   UNL     1       1.882   7.734  19.842  0.00  0.00    +0.000 A 
ENDROOT
BRANCH   1   8
ATOM      7  N   UNL     1      -0.195  10.541  21.403  0.00  0.00    +0.000 N 
ATOM      8  C   UNL     1       0.204   9.229  21.076  0.00  0.00    +0.000 C 
ATOM      9  O   UNL     1      -0.165   8.264  21.747  0.00  0.00    +0.000 OA
BRANCH   7  11
ATOM     10  C   UNL     1      -1.205  12.128  23.061  0.00  0.00    +0.000 C 
ATOM     11  C   UNL     1      -1.011  10.685  22.618  0.00  0.00    +0.000 C 
ENDBRANCH   7  11
BRANCH   7  12
ATOM     12  C   UNL     1       0.085  11.785  20.665  0.00  0.00    +0.000 C 
BRANCH  12  13
ATOM     13  C   UNL     1      -1.036  12.404  19.812  0.00  0.00    +0.000 C 
ATOM     14  O   UNL     1      -1.026  13.572  19.434  0.00  0.00    +0.000 OA
ATOM     15  N   UNL     1      -2.112  11.554  19.613  0.00  0.00    +0.000 N 
ATOM     16  H   UNL     1      -1.926  10.553  19.576  0.00  0.00    +0.000 HD
BRANCH  15  17
ATOM     17  C   UNL     1      -3.252  11.969  18.820  0.00  0.00    +0.000 C 
BRANCH  17  18
ATOM     18  C   UNL     1      -3.250  11.221  17.514  0.00  0.00    +0.000 A 
ATOM     19  C   UNL     1      -4.120  11.343  16.446  0.00  0.00    +0.000 A 
ATOM     20  C   UNL     1      -3.748  10.522  15.339  0.00  0.00    +0.000 A 
ATOM     21  C   UNL     1      -2.612   9.791  15.601  0.00  0.00    +0.000 A 
ATOM     22  S   UNL     1      -2.010  10.083  17.174  0.00  0.00    +0.000 S 
ENDBRANCH  17  18
ENDBRANCH  15  17
ENDBRANCH  12  13
ENDBRANCH   7  12
ENDBRANCH   1   8
BRANCH   5  23
ATOM     23  S   UNL     1       2.780   5.695  18.271  0.00  0.00    +0.000 S 
ATOM     24  O   UNL     1       1.448   5.135  18.138  0.00  0.00    +0.000 OA
ATOM     25  O   UNL     1       3.697   5.646  17.152  0.00  0.00    +0.000 OA
BRANCH  23  26
ATOM     26  N   UNL     1       3.532   4.952  19.606  0.00  0.00    +0.000 NA
ATOM     27  C   UNL     1       2.644   4.574  20.765  0.00  0.00    +0.000 C 
ATOM     28  C   UNL     1       1.841   3.266  20.499  0.00  0.00    +0.000 C 
ATOM     29  C   UNL     1       1.146   2.772  21.762  0.00  0.00    +0.000 C 
ATOM     30  O   UNL     1       2.679   2.190  20.029  0.00  0.00    +0.000 OA
ATOM     31  C   UNL     1       3.395   2.582  18.845  0.00  0.00    +0.000 C 
ATOM     32  C   UNL     1       4.140   1.380  18.287  0.00  0.00    +0.000 C 
ATOM     33  C   UNL     1       4.342   3.735  19.214  0.00  0.00    +0.000 C 
ENDBRANCH  23  26
ENDBRANCH   5  23
TORSDOF 8
ENDMDL
MODEL 8
REMARK VINA RESULT:      -7.4      3.245      4.779
REMARK  Name = 
REMARK  11 active torsions:
REMARK  status: ('A' for Active; 'I' for Inactive)
REMARK    1  A    between atoms: C_1  and  C_2
REMARK    2  A    between atoms: C_2  and  N_3
REMARK    3  A    between atoms: N_3  and  C_4
REMARK    4  A    between atoms: C_4  and  C_5
REMARK    5  A    between atoms: N_7  and  C_8
REMARK    6  A    between atoms: C_8  and  C_9
REMARK    7  A    between atoms: C_14  and  C_16
REMARK    8  A    between atoms: C_20  and  S_21
REMARK    9  A    between atoms: S_21  and  N_24
REMARK   10  A    between atoms: C_26  and  C_27
REMARK   11  A    between atoms: C_29  and  C_30
REMARK                            x       y       z     vdW  Elec       q    Type
REMARK                         _______ _______ _______ _____ _____    ______ ____
ROOT
ATOM      1  C   UNL     1       1.034   9.659  19.909  0.00  0.00    +0.000 A 
ATOM      2  C   UNL     1       1.431  10.285  18.713  0.00  0.00    +0.000 A 
ATOM      3  C   UNL     1       2.198   9.613  17.762  0.00  0.00    +0.000 A 
ATOM      4  C   UNL     1       2.540   8.271  17.964  0.00  0.00    +0.000 A 
ATOM      5  C   UNL     1       2.190   7.659  19.172  0.00  0.00    +0.000 A 
ATOM      6  C   UNL     1       1.520   8.382  20.167  0.00  0.00    +0.000 A 
ENDROOT
BRANCH   1   8
ATOM      7  N   UNL     1      -0.843  11.350  20.325  0.00  0.00    +0.000 N 
ATOM      8  C   UNL     1       0.101  10.420  20.804  0.00  0.00    +0.000 C 
ATOM      9  O   UNL     1       0.253  10.229  22.012  0.00  0.00    +0.000 OA
BRANCH   7  11
ATOM     10  C   UNL     1      -1.723  13.593  21.021  0.00  0.00    +0.000 C 
ATOM     11  C   UNL     1      -1.575  12.113  21.347  0.00  0.00    +0.000 C 
ENDBRANCH   7  11
BRANCH   7  12
ATOM     12  C   UNL     1      -1.206  11.637  18.926  0.00  0.00    +0.000 C 
BRANCH  12  13
ATOM     13  C   UNL     1      -2.471  10.983  18.344  0.00  0.00    +0.000 C 
ATOM     14  O   UNL     1      -2.538   9.793  18.050  0.00  0.00    +0.000 OA
ATOM     15  N   UNL     1      -3.485  11.887  18.072  0.00  0.00    +0.000 N 
ATOM     16  H   UNL     1      -3.555  12.714  18.663  0.00  0.00    +0.000 HD
BRANCH  15  17
ATOM     17  C   UNL     1      -4.754  11.442  17.534  0.00  0.00    +0.000 C 
BRANCH  17  18
ATOM     18  C   UNL     1      -5.761  11.339  18.647  0.00  0.00    +0.000 A 
ATOM     19  C   UNL     1      -6.636  10.307  18.930  0.00  0.00    +0.000 A 
ATOM     20  C   UNL     1      -7.383  10.532  20.126  0.00  0.00    +0.000 A 
ATOM     21  C   UNL     1      -7.062  11.734  20.712  0.00  0.00    +0.000 A 
ATOM     22  S   UNL     1      -5.881  12.588  19.819  0.00  0.00    +0.000 S 
ENDBRANCH  17  18
ENDBRANCH  15  17
ENDBRANCH  12  13
ENDBRANCH   7  12
ENDBRANCH   1   8
BRANCH   5  23
ATOM     23  S   UNL     1       2.087   5.878  19.249  0.00  0.00    +0.000 S 
ATOM     24  O   UNL     1       1.274   5.571  20.411  0.00  0.00    +0.000 OA
ATOM     25  O   UNL     1       1.662   5.441  17.936  0.00  0.00    +0.000 OA
BRANCH  23  26
ATOM     26  N   UNL     1       3.653   5.270  19.528  0.00  0.00    +0.000 NA
ATOM     27  C   UNL     1       3.774   3.788  19.781  0.00  0.00    +0.000 C 
ATOM     28  C   UNL     1       3.691   2.950  18.470  0.00  0.00    +0.000 C 
ATOM     29  C   UNL     1       4.058   1.492  18.717  0.00  0.00    +0.000 C 
ATOM     30  O   UNL     1       4.577   3.442  17.444  0.00  0.00    +0.000 OA
ATOM     31  C   UNL     1       4.313   4.828  17.165  0.00  0.00    +0.000 C 
ATOM     32  C   UNL     1       5.149   5.269  15.974  0.00  0.00    +0.000 C 
ATOM     33  C   UNL     1       4.626   5.642  18.431  0.00  0.00    +0.000 C 
ENDBRANCH  23  26
ENDBRANCH   5  23
TORSDOF 8
ENDMDL
MODEL 9
REMARK VINA RESULT:      -7.3      2.731      4.666
REMARK  Name = 
REMARK  11 active torsions:
REMARK  status: ('A' for Active; 'I' for Inactive)
REMARK    1  A    between atoms: C_1  and  C_2
REMARK    2  A    between atoms: C_2  and  N_3
REMARK    3  A    between atoms: N_3  and  C_4
REMARK    4  A    between atoms: C_4  and  C_5
REMARK    5  A    between atoms: N_7  and  C_8
REMARK    6  A    between atoms: C_8  and  C_9
REMARK    7  A    between atoms: C_14  and  C_16
REMARK    8  A    between atoms: C_20  and  S_21
REMARK    9  A    between atoms: S_21  and  N_24
REMARK   10  A    between atoms: C_26  and  C_27
REMARK   11  A    between atoms: C_29  and  C_30
REMARK                            x       y       z     vdW  Elec       q    Type
REMARK                         _______ _______ _______ _____ _____    ______ ____
ROOT
ATOM      1  C   UNL     1       1.002   9.041  20.074  0.00  0.00    +0.000 A 
ATOM      2  C   UNL     1       0.822   9.987  19.048  0.00  0.00    +0.000 A 
ATOM      3  C   UNL     1       1.485   9.869  17.827  0.00  0.00    +0.000 A 
ATOM      4  C   UNL     1       2.307   8.763  17.585  0.00  0.00    +0.000 A 
ATOM      5  C   UNL     1       2.528   7.845  18.617  0.00  0.00    +0.000 A 
ATOM      6  C   UNL     1       1.947   8.040  19.877  0.00  0.00    +0.000 A 
ENDROOT
BRANCH   1   8
ATOM      7  N   UNL     1      -0.195  10.429  21.862  0.00  0.00    +0.000 N 
ATOM      8  C   UNL     1       0.144   9.183  21.296  0.00  0.00    +0.000 C 
ATOM      9  O   UNL     1      -0.202   8.126  21.826  0.00  0.00    +0.000 OA
BRANCH   7  11
ATOM     10  C   UNL     1      -1.973  11.471  23.292  0.00  0.00    +0.000 C 
ATOM     11  C   UNL     1      -0.920  10.382  23.141  0.00  0.00    +0.000 C 
ENDBRANCH   7  11
BRANCH   7  12
ATOM     12  C   UNL     1       0.066  11.774  21.319  0.00  0.00    +0.000 C 
BRANCH  12  13
ATOM     13  C   UNL     1      -1.068  12.501  20.577  0.00  0.00    +0.000 C 
ATOM     14  O   UNL     1      -1.230  13.718  20.626  0.00  0.00    +0.000 OA
ATOM     15  N   UNL     1      -1.957  11.644  19.949  0.00  0.00    +0.000 N 
ATOM     16  H   UNL     1      -1.596  10.758  19.601  0.00  0.00    +0.000 HD
BRANCH  15  17
ATOM     17  C   UNL     1      -3.078  12.160  19.190  0.00  0.00    +0.000 C 
BRANCH  17  18
ATOM     18  C   UNL     1      -3.124  11.486  17.846  0.00  0.00    +0.000 A 
ATOM     19  C   UNL     1      -2.164  10.697  17.240  0.00  0.00    +0.000 A 
ATOM     20  C   UNL     1      -2.602  10.159  15.992  0.00  0.00    +0.000 A 
ATOM     21  C   UNL     1      -3.880  10.562  15.681  0.00  0.00    +0.000 A 
ATOM     22  S   UNL     1      -4.537  11.593  16.876  0.00  0.00    +0.000 S 
ENDBRANCH  17  18
ENDBRANCH  15  17
ENDBRANCH  12  13
ENDBRANCH   7  12
ENDBRANCH   1   8
BRANCH   5  23
ATOM     23  S   UNL     1       3.068   6.192  18.214  0.00  0.00    +0.000 S 
ATOM     24  O   UNL     1       1.862   5.398  18.076  0.00  0.00    +0.000 OA
ATOM     25  O   UNL     1       3.975   6.326  17.094  0.00  0.00    +0.000 OA
BRANCH  23  26
ATOM     26  N   UNL     1       3.948   5.585  19.540  0.00  0.00    +0.000 NA
ATOM     27  C   UNL     1       3.606   4.192  20.005  0.00  0.00    +0.000 C 
ATOM     28  C   UNL     1       4.228   3.090  19.097  0.00  0.00    +0.000 C 
ATOM     29  C   UNL     1       4.078   1.706  19.718  0.00  0.00    +0.000 C 
ATOM     30  O   UNL     1       5.636   3.298  18.863  0.00  0.00    +0.000 OA
ATOM     31  C   UNL     1       5.871   4.599  18.296  0.00  0.00    +0.000 C 
ATOM     32  C   UNL     1       7.337   4.724  17.913  0.00  0.00    +0.000 C 
ATOM     33  C   UNL     1       5.445   5.657  19.326  0.00  0.00    +0.000 C 
ENDBRANCH  23  26
ENDBRANCH   5  23
TORSDOF 8
ENDMDL
