MODEL 1
REMARK VINA RESULT:      -8.8      0.000      0.000
REMARK  Name = 
REMARK  9 active torsions:
REMARK  status: ('A' for Active; 'I' for Inactive)
REMARK    1  A    between atoms: C_1  and  C_2
REMARK    2  A    between atoms: N_10  and  C_11
REMARK    3  A    between atoms: C_11  and  C_12
REMARK    4  A    between atoms: C_12  and  C_13
REMARK    5  A    between atoms: C_14  and  C_15
REMARK    6  A    between atoms: C_20  and  C_21
REMARK    7  A    between atoms: C_21  and  C_23
REMARK    8  A    between atoms: C_23  and  C_24
REMARK    9  A    between atoms: C_23  and  C_25
REMARK                            x       y       z     vdW  Elec       q    Type
REMARK                         _______ _______ _______ _____ _____    ______ ____
ROOT
ATOM      1  C   UNL     1       2.227   8.096  18.943  0.00  0.00    +0.000 A 
ATOM      2  C   UNL     1       1.647   7.550  20.093  0.00  0.00    +0.000 A 
ATOM      3  C   UNL     1       0.793   8.140  21.162  0.00  0.00    +0.000 C 
ATOM      4  N   UNL     1       2.005   6.231  20.124  0.00  0.00    +0.000 N 
ATOM      5  C   UNL     1       2.862   5.939  19.099  0.00  0.00    +0.000 A 
ATOM      6  C   UNL     1       3.467   4.707  18.864  0.00  0.00    +0.000 A 
ATOM      7  C   UNL     1       4.327   4.642  17.770  0.00  0.00    +0.000 A 
ATOM      8  C   UNL     1       4.476   5.736  16.906  0.00  0.00    +0.000 A 
ATOM      9  C   UNL     1       3.833   6.970  17.179  0.00  0.00    +0.000 A 
ATOM     10  C   UNL     1       3.014   7.066  18.319  0.00  0.00    +0.000 A 
ATOM     11  C   UNL     1       3.182   3.574  19.807  0.00  0.00    +0.000 C 
ATOM     12  C   UNL     1       1.805   3.786  20.472  0.00  0.00    +0.000 C 
ATOM     13  C   UNL     1       1.647   5.192  21.082  0.00  0.00    +0.000 C 
ENDROOT
BRANCH   8  14
ATOM     14  C   UNL     1       5.298   5.633  15.663  0.00  0.00    +0.000 C 
ATOM     15  O   UNL     1       5.302   6.581  14.878  0.00  0.00    +0.000 OA
BRANCH  14  16
ATOM     16  C   UNL     1       6.109   4.354  15.407  0.00  0.00    +0.000 C 
ATOM     17  C   UNL     1       6.330   4.111  13.913  0.00  0.00    +0.000 C 
ATOM     18  C   UNL     1       7.471   4.418  16.104  0.00  0.00    +0.000 C 
ENDBRANCH  14  16
ENDBRANCH   8  14
BRANCH   1  19
ATOM     19  C   UNL     1       2.099   9.501  18.431  0.00  0.00    +0.000 C 
BRANCH  19  20
ATOM     20  C   UNL     1       0.659  10.037  18.571  0.00  0.00    +0.000 C 
BRANCH  20  30
ATOM     21  C   UNL     1      -1.206  15.699  24.491  0.00  0.00    +0.000 C 
ATOM     22  C   UNL     1      -1.690  14.410  23.899  0.00  0.00    +0.000 A 
ATOM     23  C   UNL     1      -2.902  13.842  24.263  0.00  0.00    +0.000 A 
ATOM     24  C   UNL     1      -3.311  12.695  23.601  0.00  0.00    +0.000 A 
ATOM     25  N   UNL     1      -2.617  12.110  22.600  0.00  0.00    +0.000 NA
ATOM     26  C   UNL     1      -1.431  12.653  22.253  0.00  0.00    +0.000 A 
ATOM     27  N   UNL     1      -0.772  12.190  21.139  0.00  0.00    +0.000 N 
ATOM     28  C   UNL     1      -1.565  11.626  20.051  0.00  0.00    +0.000 C 
ATOM     29  C   UNL     1      -0.844  11.973  18.726  0.00  0.00    +0.000 C 
ATOM     30  N   UNL     1       0.565  11.509  18.641  0.00  0.00    +0.000 NA
ATOM     31  C   UNL     1       1.294  12.031  19.838  0.00  0.00    +0.000 C 
ATOM     32  C   UNL     1       0.620  11.743  21.206  0.00  0.00    +0.000 C 
ATOM     33  C   UNL     1      -0.936  13.783  22.902  0.00  0.00    +0.000 A 
ENDBRANCH  20  30
ENDBRANCH  19  20
ENDBRANCH   1  19
TORSDOF 5
ENDMDL
MODEL 2
REMARK VINA RESULT:      -8.4      2.315      3.101
REMARK  Name = 
REMARK  9 active torsions:
REMARK  status: ('A' for Active; 'I' for Inactive)
REMARK    1  A    between atoms: C_1  and  C_2
REMARK    2  A    between atoms: N_10  and  C_11
REMARK    3  A    between atoms: C_11  and  C_12
REMARK    4  A    between atoms: C_12  and  C_13
REMARK    5  A    between atoms: C_14  and  C_15
REMARK    6  A    between atoms: C_20  and  C_21
REMARK    7  A    between atoms: C_21  and  C_23
REMARK    8  A    between atoms: C_23  and  C_24
REMARK    9  A    between atoms: C_23  and  C_25
REMARK                            x       y       z     vdW  Elec       q    Type
REMARK                         _______ _______ _______ _____ _____    ______ ____
ROOT
ATOM      1  C   UNL     1       2.224   8.019  19.186  0.00  0.00    +0.000 A 
ATOM      2  C   UNL     1       1.613   7.376  20.267  0.00  0.00    +0.000 A 
ATOM      3  C   UNL     1       0.753   7.877  21.376  0.00  0.00    +0.000 C 
ATOM      4  N   UNL     1       1.943   6.053  20.175  0.00  0.00    +0.000 N 
ATOM      5  C   UNL     1       2.812   5.844  19.139  0.00  0.00    +0.000 A 
ATOM      6  C   UNL     1       3.396   4.628  18.795  0.00  0.00    +0.000 A 
ATOM      7  C   UNL     1       4.275   4.651  17.714  0.00  0.00    +0.000 A 
ATOM      8  C   UNL     1       4.461   5.820  16.963  0.00  0.00    +0.000 A 
ATOM      9  C   UNL     1       3.839   7.035  17.345  0.00  0.00    +0.000 A 
ATOM     10  C   UNL     1       3.001   7.037  18.477  0.00  0.00    +0.000 A 
ATOM     11  C   UNL     1       3.072   3.414  19.618  0.00  0.00    +0.000 C 
ATOM     12  C   UNL     1       1.688   3.590  20.279  0.00  0.00    +0.000 C 
ATOM     13  C   UNL     1       1.547   4.934  21.021  0.00  0.00    +0.000 C 
ENDROOT
BRANCH   8  14
ATOM     14  C   UNL     1       5.303   5.820  15.729  0.00  0.00    +0.000 C 
ATOM     15  O   UNL     1       5.253   6.797  14.981  0.00  0.00    +0.000 OA
BRANCH  14  16
ATOM     16  C   UNL     1       6.202   4.610  15.437  0.00  0.00    +0.000 C 
ATOM     17  C   UNL     1       6.804   4.675  14.032  0.00  0.00    +0.000 C 
ATOM     18  C   UNL     1       7.338   4.509  16.458  0.00  0.00    +0.000 C 
ENDBRANCH  14  16
ENDBRANCH   8  14
BRANCH   1  19
ATOM     19  C   UNL     1       2.134   9.469  18.812  0.00  0.00    +0.000 C 
BRANCH  19  20
ATOM     20  C   UNL     1       0.691   9.886  18.462  0.00  0.00    +0.000 C 
BRANCH  20  30
ATOM     21  C   UNL     1      -1.528  17.911  19.586  0.00  0.00    +0.000 C 
ATOM     22  C   UNL     1      -0.370  17.055  19.166  0.00  0.00    +0.000 A 
ATOM     23  C   UNL     1       0.889  17.587  18.925  0.00  0.00    +0.000 A 
ATOM     24  C   UNL     1       1.920  16.711  18.628  0.00  0.00    +0.000 A 
ATOM     25  N   UNL     1       1.785  15.368  18.585  0.00  0.00    +0.000 NA
ATOM     26  C   UNL     1       0.559  14.849  18.805  0.00  0.00    +0.000 A 
ATOM     27  N   UNL     1       0.410  13.489  18.931  0.00  0.00    +0.000 N 
ATOM     28  C   UNL     1       1.537  12.713  19.438  0.00  0.00    +0.000 C 
ATOM     29  C   UNL     1       0.956  11.537  20.261  0.00  0.00    +0.000 C 
ATOM     30  N   UNL     1       0.011  10.663  19.518  0.00  0.00    +0.000 NA
ATOM     31  C   UNL     1      -1.057  11.531  18.935  0.00  0.00    +0.000 C 
ATOM     32  C   UNL     1      -0.552  12.747  18.115  0.00  0.00    +0.000 C 
ATOM     33  C   UNL     1      -0.536  15.671  19.071  0.00  0.00    +0.000 A 
ENDBRANCH  20  30
ENDBRANCH  19  20
ENDBRANCH   1  19
TORSDOF 5
ENDMDL
MODEL 3
REMARK VINA RESULT:      -8.4      1.452      1.707
REMARK  Name = 
REMARK  9 active torsions:
REMARK  status: ('A' for Active; 'I' for Inactive)
REMARK    1  A    between atoms: C_1  and  C_2
REMARK    2  A    between atoms: N_10  and  C_11
REMARK    3  A    between atoms: C_11  and  C_12
REMARK    4  A    between atoms: C_12  and  C_13
REMARK    5  A    between atoms: C_14  and  C_15
REMARK    6  A    between atoms: C_20  and  C_21
REMARK    7  A    between atoms: C_21  and  C_23
REMARK    8  A    between atoms: C_23  and  C_24
REMARK    9  A    between atoms: C_23  and  C_25
REMARK                            x       y       z     vdW  Elec       q    Type
REMARK                         _______ _______ _______ _____ _____    ______ ____
ROOT
ATOM      1  C   UNL     1       2.234   8.223  18.984  0.00  0.00    +0.000 A 
ATOM      2  C   UNL     1       1.647   7.681  20.132  0.00  0.00    +0.000 A 
ATOM      3  C   UNL     1       0.807   8.280  21.208  0.00  0.00    +0.000 C 
ATOM      4  N   UNL     1       1.979   6.355  20.154  0.00  0.00    +0.000 N 
ATOM      5  C   UNL     1       2.828   6.054  19.125  0.00  0.00    +0.000 A 
ATOM      6  C   UNL     1       3.409   4.812  18.881  0.00  0.00    +0.000 A 
ATOM      7  C   UNL     1       4.265   4.738  17.785  0.00  0.00    +0.000 A 
ATOM      8  C   UNL     1       4.432   5.834  16.926  0.00  0.00    +0.000 A 
ATOM      9  C   UNL     1       3.814   7.078  17.209  0.00  0.00    +0.000 A 
ATOM     10  C   UNL     1       3.000   7.182  18.352  0.00  0.00    +0.000 A 
ATOM     11  C   UNL     1       3.105   3.679  19.818  0.00  0.00    +0.000 C 
ATOM     12  C   UNL     1       1.735   3.912  20.488  0.00  0.00    +0.000 C 
ATOM     13  C   UNL     1       1.605   5.318  21.106  0.00  0.00    +0.000 C 
ENDROOT
BRANCH   8  14
ATOM     14  C   UNL     1       5.249   5.722  15.680  0.00  0.00    +0.000 C 
ATOM     15  O   UNL     1       5.269   6.676  14.902  0.00  0.00    +0.000 OA
BRANCH  14  16
ATOM     16  C   UNL     1       6.035   4.430  15.414  0.00  0.00    +0.000 C 
ATOM     17  C   UNL     1       6.248   4.192  13.919  0.00  0.00    +0.000 C 
ATOM     18  C   UNL     1       7.400   4.464  16.109  0.00  0.00    +0.000 C 
ENDBRANCH  14  16
ENDBRANCH   8  14
BRANCH   1  19
ATOM     19  C   UNL     1       2.131   9.633  18.481  0.00  0.00    +0.000 C 
BRANCH  19  20
ATOM     20  C   UNL     1       0.710  10.207  18.658  0.00  0.00    +0.000 C 
BRANCH  20  30
ATOM     21  C   UNL     1      -4.499  15.248  22.905  0.00  0.00    +0.000 C 
ATOM     22  C   UNL     1      -4.487  14.192  21.841  0.00  0.00    +0.000 A 
ATOM     23  C   UNL     1      -5.626  13.857  21.124  0.00  0.00    +0.000 A 
ATOM     24  C   UNL     1      -5.504  12.933  20.099  0.00  0.00    +0.000 A 
ATOM     25  N   UNL     1      -4.338  12.357  19.733  0.00  0.00    +0.000 NA
ATOM     26  C   UNL     1      -3.230  12.671  20.437  0.00  0.00    +0.000 A 
ATOM     27  N   UNL     1      -2.002  12.237  20.000  0.00  0.00    +0.000 N 
ATOM     28  C   UNL     1      -1.814  12.018  18.570  0.00  0.00    +0.000 C 
ATOM     29  C   UNL     1      -0.347  12.383  18.235  0.00  0.00    +0.000 C 
ATOM     30  N   UNL     1       0.675  11.639  19.017  0.00  0.00    +0.000 NA
ATOM     31  C   UNL     1       0.363  11.815  20.468  0.00  0.00    +0.000 C 
ATOM     32  C   UNL     1      -1.099  11.492  20.878  0.00  0.00    +0.000 C 
ATOM     33  C   UNL     1      -3.284  13.563  21.508  0.00  0.00    +0.000 A 
ENDBRANCH  20  30
ENDBRANCH  19  20
ENDBRANCH   1  19
TORSDOF 5
ENDMDL
MODEL 4
REMARK VINA RESULT:      -8.3      1.205      1.388
REMARK  Name = 
REMARK  9 active torsions:
REMARK  status: ('A' for Active; 'I' for Inactive)
REMARK    1  A    between atoms: C_1  and  C_2
REMARK    2  A    between atoms: N_10  and  C_11
REMARK    3  A    between atoms: C_11  and  C_12
REMARK    4  A    between atoms: C_12  and  C_13
REMARK    5  A    between atoms: C_14  and  C_15
REMARK    6  A    between atoms: C_20  and  C_21
REMARK    7  A    between atoms: C_21  and  C_23
REMARK    8  A    between atoms: C_23  and  C_24
REMARK    9  A    between atoms: C_23  and  C_25
REMARK                            x       y       z     vdW  Elec       q    Type
REMARK                         _______ _______ _______ _____ _____    ______ ____
ROOT
ATOM      1  C   UNL     1       2.744   7.152  18.623  0.00  0.00    +0.000 A 
ATOM      2  C   UNL     1       2.142   6.498  19.703  0.00  0.00    +0.000 A 
ATOM      3  C   UNL     1       1.031   6.885  20.618  0.00  0.00    +0.000 C 
ATOM      4  N   UNL     1       2.780   5.297  19.839  0.00  0.00    +0.000 N 
ATOM      5  C   UNL     1       3.820   5.201  18.956  0.00  0.00    +0.000 A 
ATOM      6  C   UNL     1       4.716   4.139  18.860  0.00  0.00    +0.000 A 
ATOM      7  C   UNL     1       5.718   4.264  17.900  0.00  0.00    +0.000 A 
ATOM      8  C   UNL     1       5.739   5.354  17.019  0.00  0.00    +0.000 A 
ATOM      9  C   UNL     1       4.802   6.410  17.148  0.00  0.00    +0.000 A 
ATOM     10  C   UNL     1       3.825   6.325  18.159  0.00  0.00    +0.000 A 
ATOM     11  C   UNL     1       4.561   2.979  19.800  0.00  0.00    +0.000 C 
ATOM     12  C   UNL     1       3.091   2.874  20.258  0.00  0.00    +0.000 C 
ATOM     13  C   UNL     1       2.532   4.212  20.780  0.00  0.00    +0.000 C 
ENDROOT
BRANCH   8  14
ATOM     14  C   UNL     1       6.735   5.432  15.908  0.00  0.00    +0.000 C 
ATOM     15  O   UNL     1       7.614   6.292  15.964  0.00  0.00    +0.000 OA
BRANCH  14  16
ATOM     16  C   UNL     1       6.631   4.440  14.740  0.00  0.00    +0.000 C 
ATOM     17  C   UNL     1       5.184   4.256  14.277  0.00  0.00    +0.000 C 
ATOM     18  C   UNL     1       7.476   4.903  13.550  0.00  0.00    +0.000 C 
ENDBRANCH  14  16
ENDBRANCH   8  14
BRANCH   1  19
ATOM     19  C   UNL     1       2.376   8.485  18.040  0.00  0.00    +0.000 C 
BRANCH  19  20
ATOM     20  C   UNL     1       1.843   9.457  19.113  0.00  0.00    +0.000 C 
BRANCH  20  30
ATOM     21  C   UNL     1      -2.501  15.880  22.347  0.00  0.00    +0.000 C 
ATOM     22  C   UNL     1      -2.260  14.411  22.525  0.00  0.00    +0.000 A 
ATOM     23  C   UNL     1      -2.983  13.652  23.434  0.00  0.00    +0.000 A 
ATOM     24  C   UNL     1      -2.755  12.286  23.469  0.00  0.00    +0.000 A 
ATOM     25  N   UNL     1      -1.893  11.640  22.654  0.00  0.00    +0.000 NA
ATOM     26  C   UNL     1      -1.178  12.377  21.779  0.00  0.00    +0.000 A 
ATOM     27  N   UNL     1      -0.413  11.749  20.826  0.00  0.00    +0.000 N 
ATOM     28  C   UNL     1      -0.831  10.429  20.364  0.00  0.00    +0.000 C 
ATOM     29  C   UNL     1      -0.444  10.319  18.869  0.00  0.00    +0.000 C 
ATOM     30  N   UNL     1       0.996  10.543  18.579  0.00  0.00    +0.000 NA
ATOM     31  C   UNL     1       1.385  11.860  19.171  0.00  0.00    +0.000 C 
ATOM     32  C   UNL     1       1.008  12.056  20.663  0.00  0.00    +0.000 C 
ATOM     33  C   UNL     1      -1.324  13.763  21.714  0.00  0.00    +0.000 A 
ENDBRANCH  20  30
ENDBRANCH  19  20
ENDBRANCH   1  19
TORSDOF 5
ENDMDL
MODEL 5
REMARK VINA RESULT:      -8.3      1.584      2.298
REMARK  Name = 
REMARK  9 active torsions:
REMARK  status: ('A' for Active; 'I' for Inactive)
REMARK    1  A    between atoms: C_1  and  C_2
REMARK    2  A    between atoms: N_10  and  C_11
REMARK    3  A    between atoms: C_11  and  C_12
REMARK    4  A    between atoms: C_12  and  C_13
REMARK    5  A    between atoms: C_14  and  C_15
REMARK    6  A    between atoms: C_20  and  C_21
REMARK    7  A    between atoms: C_21  and  C_23
REMARK    8  A    between atoms: C_23  and  C_24
REMARK    9  A    between atoms: C_23  and  C_25
REMARK                            x       y       z     vdW  Elec       q    Type
REMARK                         _______ _______ _______ _____ _____    ______ ____
ROOT
ATOM      1  C   UNL     1       3.238   6.641  18.082  0.00  0.00    +0.000 A 
ATOM      2  C   UNL     1       2.531   5.895  19.031  0.00  0.00    +0.000 A 
ATOM      3  C   UNL     1       1.606   6.288  20.131  0.00  0.00    +0.000 C 
ATOM      4  N   UNL     1       2.827   4.581  18.796  0.00  0.00    +0.000 N 
ATOM      5  C   UNL     1       3.764   4.467  17.805  0.00  0.00    +0.000 A 
ATOM      6  C   UNL     1       4.335   3.281  17.353  0.00  0.00    +0.000 A 
ATOM      7  C   UNL     1       5.290   3.403  16.346  0.00  0.00    +0.000 A 
ATOM      8  C   UNL     1       5.565   4.647  15.762  0.00  0.00    +0.000 A 
ATOM      9  C   UNL     1       4.953   5.829  16.249  0.00  0.00    +0.000 A 
ATOM     10  C   UNL     1       4.035   5.725  17.311  0.00  0.00    +0.000 A 
ATOM     11  C   UNL     1       3.916   1.989  17.993  0.00  0.00    +0.000 C 
ATOM     12  C   UNL     1       2.493   2.135  18.574  0.00  0.00    +0.000 C 
ATOM     13  C   UNL     1       2.338   3.383  19.466  0.00  0.00    +0.000 C 
ENDROOT
BRANCH   8  14
ATOM     14  C   UNL     1       6.495   4.767  14.598  0.00  0.00    +0.000 C 
ATOM     15  O   UNL     1       7.374   5.628  14.632  0.00  0.00    +0.000 OA
BRANCH  14  16
ATOM     16  C   UNL     1       6.327   3.815  13.406  0.00  0.00    +0.000 C 
ATOM     17  C   UNL     1       4.878   3.765  12.918  0.00  0.00    +0.000 C 
ATOM     18  C   UNL     1       7.227   4.231  12.239  0.00  0.00    +0.000 C 
ENDBRANCH  14  16
ENDBRANCH   8  14
BRANCH   1  19
ATOM     19  C   UNL     1       3.217   8.129  17.888  0.00  0.00    +0.000 C 
BRANCH  19  20
ATOM     20  C   UNL     1       2.021   8.788  18.604  0.00  0.00    +0.000 C 
BRANCH  20  30
ATOM     21  C   UNL     1      -1.714  16.105  20.366  0.00  0.00    +0.000 C 
ATOM     22  C   UNL     1      -1.678  14.667  20.790  0.00  0.00    +0.000 A 
ATOM     23  C   UNL     1      -2.564  14.153  21.726  0.00  0.00    +0.000 A 
ATOM     24  C   UNL     1      -2.517  12.795  21.993  0.00  0.00    +0.000 A 
ATOM     25  N   UNL     1      -1.680  11.930  21.377  0.00  0.00    +0.000 NA
ATOM     26  C   UNL     1      -0.808  12.429  20.476  0.00  0.00    +0.000 A 
ATOM     27  N   UNL     1      -0.055  11.570  19.712  0.00  0.00    +0.000 N 
ATOM     28  C   UNL     1      -0.599  10.249  19.417  0.00  0.00    +0.000 C 
ATOM     29  C   UNL     1      -0.109   9.852  18.002  0.00  0.00    +0.000 C 
ATOM     30  N   UNL     1       1.367   9.861  17.829  0.00  0.00    +0.000 NA
ATOM     31  C   UNL     1       1.871  11.204  18.249  0.00  0.00    +0.000 C 
ATOM     32  C   UNL     1       1.402  11.683  19.648  0.00  0.00    +0.000 C 
ATOM     33  C   UNL     1      -0.770  13.793  20.186  0.00  0.00    +0.000 A 
ENDBRANCH  20  30
ENDBRANCH  19  20
ENDBRANCH   1  19
TORSDOF 5
ENDMDL
MODEL 6
REMARK VINA RESULT:      -8.2      2.635      3.450
REMARK  Name = 
REMARK  9 active torsions:
REMARK  status: ('A' for Active; 'I' for Inactive)
REMARK    1  A    between atoms: C_1  and  C_2
REMARK    2  A    between atoms: N_10  and  C_11
REMARK    3  A    between atoms: C_11  and  C_12
REMARK    4  A    between atoms: C_12  and  C_13
REMARK    5  A    between atoms: C_14  and  C_15
REMARK    6  A    between atoms: C_20  and  C_21
REMARK    7  A    between atoms: C_21  and  C_23
REMARK    8  A    between atoms: C_23  and  C_24
REMARK    9  A    between atoms: C_23  and  C_25
REMARK                            x       y       z     vdW  Elec       q    Type
REMARK                         _______ _______ _______ _____ _____    ______ ____
ROOT
ATOM      1  C   UNL     1       1.960   8.039  19.179  0.00  0.00    +0.000 A 
ATOM      2  C   UNL     1       1.497   7.413  20.341  0.00  0.00    +0.000 A 
ATOM      3  C   UNL     1       0.627   7.883  21.455  0.00  0.00    +0.000 C 
ATOM      4  N   UNL     1       2.006   6.144  20.332  0.00  0.00    +0.000 N 
ATOM      5  C   UNL     1       2.847   5.968  19.268  0.00  0.00    +0.000 A 
ATOM      6  C   UNL     1       3.580   4.819  18.986  0.00  0.00    +0.000 A 
ATOM      7  C   UNL     1       4.395   4.870  17.857  0.00  0.00    +0.000 A 
ATOM      8  C   UNL     1       4.379   5.986  17.008  0.00  0.00    +0.000 A 
ATOM      9  C   UNL     1       3.610   7.132  17.330  0.00  0.00    +0.000 A 
ATOM     10  C   UNL     1       2.834   7.116  18.505  0.00  0.00    +0.000 A 
ATOM     11  C   UNL     1       3.469   3.647  19.918  0.00  0.00    +0.000 C 
ATOM     12  C   UNL     1       2.106   3.687  20.642  0.00  0.00    +0.000 C 
ATOM     13  C   UNL     1       1.812   5.057  21.284  0.00  0.00    +0.000 C 
ENDROOT
BRANCH   8  14
ATOM     14  C   UNL     1       5.155   5.997  15.731  0.00  0.00    +0.000 C 
ATOM     15  O   UNL     1       5.169   7.028  15.059  0.00  0.00    +0.000 OA
BRANCH  14  16
ATOM     16  C   UNL     1       5.907   4.729  15.302  0.00  0.00    +0.000 C 
ATOM     17  C   UNL     1       5.494   4.269  13.903  0.00  0.00    +0.000 C 
ATOM     18  C   UNL     1       7.421   4.954  15.322  0.00  0.00    +0.000 C 
ENDBRANCH  14  16
ENDBRANCH   8  14
BRANCH   1  19
ATOM     19  C   UNL     1       1.649   9.426  18.700  0.00  0.00    +0.000 C 
BRANCH  19  20
ATOM     20  C   UNL     1       0.149   9.761  18.837  0.00  0.00    +0.000 C 
BRANCH  20  30
ATOM     21  C   UNL     1      -6.847  14.237  17.572  0.00  0.00    +0.000 C 
ATOM     22  C   UNL     1      -6.377  12.884  18.016  0.00  0.00    +0.000 A 
ATOM     23  C   UNL     1      -7.260  11.842  18.261  0.00  0.00    +0.000 A 
ATOM     24  C   UNL     1      -6.732  10.602  18.582  0.00  0.00    +0.000 A 
ATOM     25  N   UNL     1      -5.409  10.334  18.643  0.00  0.00    +0.000 NA
ATOM     26  C   UNL     1      -4.548  11.349  18.419  0.00  0.00    +0.000 A 
ATOM     27  N   UNL     1      -3.203  11.088  18.312  0.00  0.00    +0.000 N 
ATOM     28  C   UNL     1      -2.790   9.775  17.827  0.00  0.00    +0.000 C 
ATOM     29  C   UNL     1      -1.486   9.971  17.016  0.00  0.00    +0.000 C 
ATOM     30  N   UNL     1      -0.380  10.625  17.762  0.00  0.00    +0.000 NA
ATOM     31  C   UNL     1      -0.899  11.910  18.322  0.00  0.00    +0.000 C 
ATOM     32  C   UNL     1      -2.220  11.799  19.129  0.00  0.00    +0.000 C 
ATOM     33  C   UNL     1      -5.006  12.634  18.129  0.00  0.00    +0.000 A 
ENDBRANCH  20  30
ENDBRANCH  19  20
ENDBRANCH   1  19
TORSDOF 5
ENDMDL
MODEL 7
REMARK VINA RESULT:      -8.2      1.040      1.098
REMARK  Name = 
REMARK  9 active torsions:
REMARK  status: ('A' for Active; 'I' for Inactive)
REMARK    1  A    between atoms: C_1  and  C_2
REMARK    2  A    between atoms: N_10  and  C_11
REMARK    3  A    between atoms: C_11  and  C_12
REMARK    4  A    between atoms: C_12  and  C_13
REMARK    5  A    between atoms: C_14  and  C_15
REMARK    6  A    between atoms: C_20  and  C_21
REMARK    7  A    between atoms: C_21  and  C_23
REMARK    8  A    between atoms: C_23  and  C_24
REMARK    9  A    between atoms: C_23  and  C_25
REMARK                            x       y       z     vdW  Elec       q    Type
REMARK                         _______ _______ _______ _____ _____    ______ ____
ROOT
ATOM      1  C   UNL     1       2.532   7.314  18.805  0.00  0.00    +0.000 A 
ATOM      2  C   UNL     1       2.030   6.880  20.036  0.00  0.00    +0.000 A 
ATOM      3  C   UNL     1       1.253   7.571  21.103  0.00  0.00    +0.000 C 
ATOM      4  N   UNL     1       2.384   5.565  20.162  0.00  0.00    +0.000 N 
ATOM      5  C   UNL     1       3.168   5.174  19.112  0.00  0.00    +0.000 A 
ATOM      6  C   UNL     1       3.751   3.920  18.950  0.00  0.00    +0.000 A 
ATOM      7  C   UNL     1       4.535   3.749  17.811  0.00  0.00    +0.000 A 
ATOM      8  C   UNL     1       4.629   4.758  16.843  0.00  0.00    +0.000 A 
ATOM      9  C   UNL     1       4.011   6.018  17.046  0.00  0.00    +0.000 A 
ATOM     10  C   UNL     1       3.271   6.224  18.226  0.00  0.00    +0.000 A 
ATOM     11  C   UNL     1       3.527   2.879  20.008  0.00  0.00    +0.000 C 
ATOM     12  C   UNL     1       2.199   3.163  20.743  0.00  0.00    +0.000 C 
ATOM     13  C   UNL     1       2.088   4.620  21.232  0.00  0.00    +0.000 C 
ENDROOT
BRANCH   8  14
ATOM     14  C   UNL     1       5.365   4.536  15.562  0.00  0.00    +0.000 C 
ATOM     15  O   UNL     1       4.718   4.255  14.552  0.00  0.00    +0.000 OA
BRANCH  14  16
ATOM     16  C   UNL     1       6.895   4.665  15.546  0.00  0.00    +0.000 C 
ATOM     17  C   UNL     1       7.420   5.025  14.156  0.00  0.00    +0.000 C 
ATOM     18  C   UNL     1       7.367   5.727  16.543  0.00  0.00    +0.000 C 
ENDBRANCH  14  16
ENDBRANCH   8  14
BRANCH   1  19
ATOM     19  C   UNL     1       2.375   8.668  18.178  0.00  0.00    +0.000 C 
BRANCH  19  20
ATOM     20  C   UNL     1       0.898   9.109  18.121  0.00  0.00    +0.000 C 
BRANCH  20  30
ATOM     21  C   UNL     1      -0.384  15.645  23.242  0.00  0.00    +0.000 C 
ATOM     22  C   UNL     1      -0.860  14.250  22.968  0.00  0.00    +0.000 A 
ATOM     23  C   UNL     1      -1.949  13.702  23.631  0.00  0.00    +0.000 A 
ATOM     24  C   UNL     1      -2.374  12.439  23.252  0.00  0.00    +0.000 A 
ATOM     25  N   UNL     1      -1.813  11.717  22.257  0.00  0.00    +0.000 NA
ATOM     26  C   UNL     1      -0.745  12.242  21.621  0.00  0.00    +0.000 A 
ATOM     27  N   UNL     1      -0.247  11.618  20.502  0.00  0.00    +0.000 N 
ATOM     28  C   UNL     1      -1.164  10.834  19.681  0.00  0.00    +0.000 C 
ATOM     29  C   UNL     1      -0.701  10.972  18.210  0.00  0.00    +0.000 C 
ATOM     30  N   UNL     1       0.706  10.565  17.958  0.00  0.00    +0.000 NA
ATOM     31  C   UNL     1       1.581  11.324  18.903  0.00  0.00    +0.000 C 
ATOM     32  C   UNL     1       1.166  11.254  20.397  0.00  0.00    +0.000 C 
ATOM     33  C   UNL     1      -0.236  13.491  21.974  0.00  0.00    +0.000 A 
ENDBRANCH  20  30
ENDBRANCH  19  20
ENDBRANCH   1  19
TORSDOF 5
ENDMDL
MODEL 8
REMARK VINA RESULT:      -8.2      1.460      1.756
REMARK  Name = 
REMARK  9 active torsions:
REMARK  status: ('A' for Active; 'I' for Inactive)
REMARK    1  A    between atoms: C_1  and  C_2
REMARK    2  A    between atoms: N_10  and  C_11
REMARK    3  A    between atoms: C_11  and  C_12
REMARK    4  A    between atoms: C_12  and  C_13
REMARK    5  A    between atoms: C_14  and  C_15
REMARK    6  A    between atoms: C_20  and  C_21
REMARK    7  A    between atoms: C_21  and  C_23
REMARK    8  A    between atoms: C_23  and  C_24
REMARK    9  A    between atoms: C_23  and  C_25
REMARK                            x       y       z     vdW  Elec       q    Type
REMARK                         _______ _______ _______ _____ _____    ______ ____
ROOT
ATOM      1  C   UNL     1       2.761   7.246  18.704  0.00  0.00    +0.000 A 
ATOM      2  C   UNL     1       2.140   6.590  19.772  0.00  0.00    +0.000 A 
ATOM      3  C   UNL     1       1.044   6.995  20.697  0.00  0.00    +0.000 C 
ATOM      4  N   UNL     1       2.737   5.365  19.882  0.00  0.00    +0.000 N 
ATOM      5  C   UNL     1       3.772   5.253  18.995  0.00  0.00    +0.000 A 
ATOM      6  C   UNL     1       4.631   4.164  18.876  0.00  0.00    +0.000 A 
ATOM      7  C   UNL     1       5.636   4.274  17.916  0.00  0.00    +0.000 A 
ATOM      8  C   UNL     1       5.692   5.381  17.058  0.00  0.00    +0.000 A 
ATOM      9  C   UNL     1       4.791   6.465  17.210  0.00  0.00    +0.000 A 
ATOM     10  C   UNL     1       3.814   6.392  18.221  0.00  0.00    +0.000 A 
ATOM     11  C   UNL     1       4.439   2.991  19.793  0.00  0.00    +0.000 C 
ATOM     12  C   UNL     1       2.967   2.926  20.251  0.00  0.00    +0.000 C 
ATOM     13  C   UNL     1       2.454   4.271  20.802  0.00  0.00    +0.000 C 
ENDROOT
BRANCH   8  14
ATOM     14  C   UNL     1       6.688   5.448  15.946  0.00  0.00    +0.000 C 
ATOM     15  O   UNL     1       7.559   6.318  15.987  0.00  0.00    +0.000 OA
BRANCH  14  16
ATOM     16  C   UNL     1       6.596   4.434  14.797  0.00  0.00    +0.000 C 
ATOM     17  C   UNL     1       5.160   4.273  14.295  0.00  0.00    +0.000 C 
ATOM     18  C   UNL     1       7.487   4.850  13.623  0.00  0.00    +0.000 C 
ENDBRANCH  14  16
ENDBRANCH   8  14
BRANCH   1  19
ATOM     19  C   UNL     1       2.438   8.602  18.149  0.00  0.00    +0.000 C 
BRANCH  19  20
ATOM     20  C   UNL     1       1.204   9.226  18.832  0.00  0.00    +0.000 C 
BRANCH  20  30
ATOM     21  C   UNL     1      -3.193  14.643  23.513  0.00  0.00    +0.000 C 
ATOM     22  C   UNL     1      -3.290  13.808  22.271  0.00  0.00    +0.000 A 
ATOM     23  C   UNL     1      -4.375  13.893  21.411  0.00  0.00    +0.000 A 
ATOM     24  C   UNL     1      -4.340  13.150  20.242  0.00  0.00    +0.000 A 
ATOM     25  N   UNL     1      -3.302  12.368  19.871  0.00  0.00    +0.000 NA
ATOM     26  C   UNL     1      -2.252  12.273  20.713  0.00  0.00    +0.000 A 
ATOM     27  N   UNL     1      -1.112  11.622  20.306  0.00  0.00    +0.000 N 
ATOM     28  C   UNL     1      -0.798  11.603  18.881  0.00  0.00    +0.000 C 
ATOM     29  C   UNL     1       0.744  11.637  18.746  0.00  0.00    +0.000 C 
ATOM     30  N   UNL     1       1.456  10.542  19.454  0.00  0.00    +0.000 NA
ATOM     31  C   UNL     1       1.010  10.549  20.881  0.00  0.00    +0.000 C 
ATOM     32  C   UNL     1      -0.526  10.540  21.098  0.00  0.00    +0.000 C 
ATOM     33  C   UNL     1      -2.234  12.960  21.926  0.00  0.00    +0.000 A 
ENDBRANCH  20  30
ENDBRANCH  19  20
ENDBRANCH   1  19
TORSDOF 5
ENDMDL
MODEL 9
REMARK VINA RESULT:      -8.1      3.096      9.431
REMARK  Name = 
REMARK  9 active torsions:
REMARK  status: ('A' for Active; 'I' for Inactive)
REMARK    1  A    between atoms: C_1  and  C_2
REMARK    2  A    between atoms: N_10  and  C_11
REMARK    3  A    between atoms: C_11  and  C_12
REMARK    4  A    between atoms: C_12  and  C_13
REMARK    5  A    between atoms: C_14  and  C_15
REMARK    6  A    between atoms: C_20  and  C_21
REMARK    7  A    between atoms: C_21  and  C_23
REMARK    8  A    between atoms: C_23  and  C_24
REMARK    9  A    between atoms: C_23  and  C_25
REMARK                            x       y       z     vdW  Elec       q    Type
REMARK                         _______ _______ _______ _____ _____    ______ ____
ROOT
ATOM      1  C   UNL     1      -1.400  12.739  20.910  0.00  0.00    +0.000 A 
ATOM      2  C   UNL     1      -1.870  13.071  22.185  0.00  0.00    +0.000 A 
ATOM      3  C   UNL     1      -1.169  13.389  23.461  0.00  0.00    +0.000 C 
ATOM      4  N   UNL     1      -3.235  13.070  22.113  0.00  0.00    +0.000 N 
ATOM      5  C   UNL     1      -3.652  12.660  20.876  0.00  0.00    +0.000 A 
ATOM      6  C   UNL     1      -4.974  12.487  20.476  0.00  0.00    +0.000 A 
ATOM      7  C   UNL     1      -5.168  12.036  19.171  0.00  0.00    +0.000 A 
ATOM      8  C   UNL     1      -4.084  11.877  18.297  0.00  0.00    +0.000 A 
ATOM      9  C   UNL     1      -2.754  12.072  18.746  0.00  0.00    +0.000 A 
ATOM     10  C   UNL     1      -2.544  12.463  20.081  0.00  0.00    +0.000 A 
ATOM     11  C   UNL     1      -6.069  12.759  21.467  0.00  0.00    +0.000 C 
ATOM     12  C   UNL     1      -5.576  13.774  22.519  0.00  0.00    +0.000 C 
ATOM     13  C   UNL     1      -4.221  13.380  23.140  0.00  0.00    +0.000 C 
ENDROOT
BRANCH   8  14
ATOM     14  C   UNL     1      -4.295  11.515  16.862  0.00  0.00    +0.000 C 
ATOM     15  O   UNL     1      -5.321  11.903  16.301  0.00  0.00    +0.000 OA
BRANCH  14  16
ATOM     16  C   UNL     1      -3.231  10.678  16.138  0.00  0.00    +0.000 C 
ATOM     17  C   UNL     1      -2.935   9.372  16.877  0.00  0.00    +0.000 C 
ATOM     18  C   UNL     1      -3.671  10.348  14.708  0.00  0.00    +0.000 C 
ENDBRANCH  14  16
ENDBRANCH   8  14
BRANCH   1  19
ATOM     19  C   UNL     1       0.026  12.650  20.454  0.00  0.00    +0.000 C 
BRANCH  19  20
ATOM     20  C   UNL     1       0.636  11.262  20.733  0.00  0.00    +0.000 C 
BRANCH  20  30
ATOM     21  C   UNL     1       2.531   3.525  18.060  0.00  0.00    +0.000 C 
ATOM     22  C   UNL     1       3.003   4.947  17.986  0.00  0.00    +0.000 A 
ATOM     23  C   UNL     1       4.052   5.332  17.165  0.00  0.00    +0.000 A 
ATOM     24  C   UNL     1       4.363   6.680  17.093  0.00  0.00    +0.000 A 
ATOM     25  N   UNL     1       3.689   7.650  17.751  0.00  0.00    +0.000 NA
ATOM     26  C   UNL     1       2.677   7.276  18.561  0.00  0.00    +0.000 A 
ATOM     27  N   UNL     1       1.866   8.234  19.121  0.00  0.00    +0.000 N 
ATOM     28  C   UNL     1       1.685   9.492  18.403  0.00  0.00    +0.000 C 
ATOM     29  C   UNL     1       0.240   9.977  18.677  0.00  0.00    +0.000 C 
ATOM     30  N   UNL     1      -0.100  10.141  20.114  0.00  0.00    +0.000 NA
ATOM     31  C   UNL     1       0.208   8.854  20.810  0.00  0.00    +0.000 C 
ATOM     32  C   UNL     1       1.633   8.290  20.564  0.00  0.00    +0.000 C 
ATOM     33  C   UNL     1       2.333   5.934  18.715  0.00  0.00    +0.000 A 
ENDBRANCH  20  30
ENDBRANCH  19  20
ENDBRANCH   1  19
TORSDOF 5
ENDMDL
