MODEL 1
REMARK VINA RESULT:      -7.9      0.000      0.000
REMARK  Name = 
REMARK  3 active torsions:
REMARK  status: ('A' for Active; 'I' for Inactive)
REMARK    1  A    between atoms: C_5  and  C_6
REMARK    2  A    between atoms: C_6  and  N_7
REMARK    3  A    between atoms: N_7  and  C_8
REMARK                            x       y       z     vdW  Elec       q    Type
REMARK                         _______ _______ _______ _____ _____    ______ ____
ROOT
ATOM      1  C   UNL     1       5.713   5.411  16.834  0.00  0.00    +0.000 A 
ATOM      2  N   UNL     1       4.721   4.558  17.212  0.00  0.00    +0.000 NA
ATOM      3  C   UNL     1       4.611   4.115  18.491  0.00  0.00    +0.000 A 
ATOM      4  N   UNL     1       3.553   3.300  18.818  0.00  0.00    +0.000 N 
ATOM      5  C   UNL     1       2.607   2.842  17.810  0.00  0.00    +0.000 C 
ATOM      6  C   UNL     1       1.190   3.247  18.223  0.00  0.00    +0.000 C 
ATOM      7  C   UNL     1       0.866   2.790  19.646  0.00  0.00    +0.000 C 
ATOM      8  C   UNL     1       1.929   3.265  20.634  0.00  0.00    +0.000 C 
ATOM      9  C   UNL     1       3.334   2.857  20.188  0.00  0.00    +0.000 C 
ATOM     10  N   UNL     1       5.480   4.432  19.472  0.00  0.00    +0.000 NA
ATOM     11  C   UNL     1       6.477   5.221  19.061  0.00  0.00    +0.000 A 
ATOM     12  N   UNL     1       7.513   5.691  19.806  0.00  0.00    +0.000 N 
ATOM     13  C   UNL     1       8.302   6.453  18.993  0.00  0.00    +0.000 A 
ATOM     14  N   UNL     1       7.825   6.510  17.770  0.00  0.00    +0.000 NA
ATOM     15  C   UNL     1       6.675   5.742  17.805  0.00  0.00    +0.000 A 
ATOM     16  H   UNL     1       7.664   5.493  20.788  0.00  0.00    +0.000 HD
ENDROOT
BRANCH   1  17
ATOM     17  N   UNL     1       5.711   5.891  15.511  0.00  0.00    +0.000 N 
ATOM     18  H   UNL     1       4.845   5.570  15.086  0.00  0.00    +0.000 HD
BRANCH  17  19
ATOM     19  C   UNL     1       6.865   5.458  14.725  0.00  0.00    +0.000 C 
BRANCH  19  24
ATOM     20  F   UNL     1       5.159   1.843  10.748  0.00  0.00    +0.000 F 
ATOM     21  C   UNL     1       5.569   2.694  11.697  0.00  0.00    +0.000 A 
ATOM     22  C   UNL     1       4.651   3.183  12.618  0.00  0.00    +0.000 A 
ATOM     23  C   UNL     1       5.081   4.067  13.607  0.00  0.00    +0.000 A 
ATOM     24  C   UNL     1       6.429   4.456  13.680  0.00  0.00    +0.000 A 
ATOM     25  C   UNL     1       7.337   3.960  12.733  0.00  0.00    +0.000 A 
ATOM     26  C   UNL     1       6.905   3.076  11.744  0.00  0.00    +0.000 A 
ENDBRANCH  19  24
ENDBRANCH  17  19
ENDBRANCH   1  17
TORSDOF 3
ENDMDL
MODEL 2
REMARK VINA RESULT:      -7.9      5.063      7.867
REMARK  Name = 
REMARK  3 active torsions:
REMARK  status: ('A' for Active; 'I' for Inactive)
REMARK    1  A    between atoms: C_5  and  C_6
REMARK    2  A    between atoms: C_6  and  N_7
REMARK    3  A    between atoms: N_7  and  C_8
REMARK                            x       y       z     vdW  Elec       q    Type
REMARK                         _______ _______ _______ _____ _____    ______ ____
ROOT
ATOM      1  C   UNL     1       2.891   5.843  19.772  0.00  0.00    +0.000 A 
ATOM      2  N   UNL     1       3.828   5.952  18.789  0.00  0.00    +0.000 NA
ATOM      3  C   UNL     1       4.548   4.880  18.370  0.00  0.00    +0.000 A 
ATOM      4  N   UNL     1       5.437   5.047  17.334  0.00  0.00    +0.000 N 
ATOM      5  C   UNL     1       5.677   6.356  16.742  0.00  0.00    +0.000 C 
ATOM      6  C   UNL     1       5.404   6.289  15.238  0.00  0.00    +0.000 C 
ATOM      7  C   UNL     1       6.175   5.147  14.575  0.00  0.00    +0.000 C 
ATOM      8  C   UNL     1       5.912   3.820  15.283  0.00  0.00    +0.000 C 
ATOM      9  C   UNL     1       6.181   3.921  16.785  0.00  0.00    +0.000 C 
ATOM     10  N   UNL     1       4.442   3.648  18.908  0.00  0.00    +0.000 NA
ATOM     11  C   UNL     1       3.561   3.581  19.909  0.00  0.00    +0.000 A 
ATOM     12  N   UNL     1       3.249   2.491  20.658  0.00  0.00    +0.000 N 
ATOM     13  C   UNL     1       2.308   2.865  21.574  0.00  0.00    +0.000 A 
ATOM     14  N   UNL     1       1.988   4.134  21.447  0.00  0.00    +0.000 NA
ATOM     15  C   UNL     1       2.767   4.590  20.400  0.00  0.00    +0.000 A 
ATOM     16  H   UNL     1       3.660   1.571  20.550  0.00  0.00    +0.000 HD
ENDROOT
BRANCH   1  17
ATOM     17  N   UNL     1       2.127   6.980  20.092  0.00  0.00    +0.000 N 
ATOM     18  H   UNL     1       1.170   6.661  20.221  0.00  0.00    +0.000 HD
BRANCH  17  19
ATOM     19  C   UNL     1       2.188   8.036  19.083  0.00  0.00    +0.000 C 
BRANCH  19  24
ATOM     20  F   UNL     1      -1.835  11.853  20.099  0.00  0.00    +0.000 F 
ATOM     21  C   UNL     1      -0.873  10.953  19.862  0.00  0.00    +0.000 A 
ATOM     22  C   UNL     1      -0.458  10.726  18.556  0.00  0.00    +0.000 A 
ATOM     23  C   UNL     1       0.546   9.790  18.311  0.00  0.00    +0.000 A 
ATOM     24  C   UNL     1       1.140   9.086  19.373  0.00  0.00    +0.000 A 
ATOM     25  C   UNL     1       0.698   9.322  20.683  0.00  0.00    +0.000 A 
ATOM     26  C   UNL     1      -0.307  10.259  20.926  0.00  0.00    +0.000 A 
ENDBRANCH  19  24
ENDBRANCH  17  19
ENDBRANCH   1  17
TORSDOF 3
ENDMDL
MODEL 3
REMARK VINA RESULT:      -7.9      4.880      6.654
REMARK  Name = 
REMARK  3 active torsions:
REMARK  status: ('A' for Active; 'I' for Inactive)
REMARK    1  A    between atoms: C_5  and  C_6
REMARK    2  A    between atoms: C_6  and  N_7
REMARK    3  A    between atoms: N_7  and  C_8
REMARK                            x       y       z     vdW  Elec       q    Type
REMARK                         _______ _______ _______ _____ _____    ______ ____
ROOT
ATOM      1  C   UNL     1       3.996   6.888  17.785  0.00  0.00    +0.000 A 
ATOM      2  N   UNL     1       3.223   5.895  18.305  0.00  0.00    +0.000 NA
ATOM      3  C   UNL     1       3.755   4.708  18.696  0.00  0.00    +0.000 A 
ATOM      4  N   UNL     1       2.926   3.770  19.267  0.00  0.00    +0.000 N 
ATOM      5  C   UNL     1       1.492   3.993  19.380  0.00  0.00    +0.000 C 
ATOM      6  C   UNL     1       1.073   3.863  20.846  0.00  0.00    +0.000 C 
ATOM      7  C   UNL     1       1.557   2.547  21.456  0.00  0.00    +0.000 C 
ATOM      8  C   UNL     1       3.059   2.363  21.252  0.00  0.00    +0.000 C 
ATOM      9  C   UNL     1       3.448   2.511  19.779  0.00  0.00    +0.000 C 
ATOM     10  N   UNL     1       5.059   4.391  18.565  0.00  0.00    +0.000 NA
ATOM     11  C   UNL     1       5.784   5.357  17.996  0.00  0.00    +0.000 A 
ATOM     12  N   UNL     1       7.113   5.328  17.712  0.00  0.00    +0.000 N 
ATOM     13  C   UNL     1       7.445   6.518  17.130  0.00  0.00    +0.000 A 
ATOM     14  N   UNL     1       6.405   7.317  17.037  0.00  0.00    +0.000 NA
ATOM     15  C   UNL     1       5.358   6.597  17.583  0.00  0.00    +0.000 A 
ATOM     16  H   UNL     1       7.733   4.548  17.896  0.00  0.00    +0.000 HD
ENDROOT
BRANCH   1  17
ATOM     17  N   UNL     1       3.386   8.118  17.482  0.00  0.00    +0.000 N 
ATOM     18  H   UNL     1       3.807   8.811  18.094  0.00  0.00    +0.000 HD
BRANCH  17  19
ATOM     19  C   UNL     1       1.932   8.109  17.635  0.00  0.00    +0.000 C 
BRANCH  19  24
ATOM     20  F   UNL     1       0.285  11.374  21.927  0.00  0.00    +0.000 F 
ATOM     21  C   UNL     1       0.686  10.599  20.911  0.00  0.00    +0.000 A 
ATOM     22  C   UNL     1       0.764  11.135  19.633  0.00  0.00    +0.000 A 
ATOM     23  C   UNL     1       1.184  10.328  18.578  0.00  0.00    +0.000 A 
ATOM     24  C   UNL     1       1.532   8.985  18.801  0.00  0.00    +0.000 A 
ATOM     25  C   UNL     1       1.434   8.458  20.098  0.00  0.00    +0.000 A 
ATOM     26  C   UNL     1       1.014   9.269  21.153  0.00  0.00    +0.000 A 
ENDBRANCH  19  24
ENDBRANCH  17  19
ENDBRANCH   1  17
TORSDOF 3
ENDMDL
MODEL 4
REMARK VINA RESULT:      -7.9      2.846      7.010
REMARK  Name = 
REMARK  3 active torsions:
REMARK  status: ('A' for Active; 'I' for Inactive)
REMARK    1  A    between atoms: C_5  and  C_6
REMARK    2  A    between atoms: C_6  and  N_7
REMARK    3  A    between atoms: N_7  and  C_8
REMARK                            x       y       z     vdW  Elec       q    Type
REMARK                         _______ _______ _______ _____ _____    ______ ____
ROOT
ATOM      1  C   UNL     1       4.835   4.409  16.115  0.00  0.00    +0.000 A 
ATOM      2  N   UNL     1       4.961   4.021  14.816  0.00  0.00    +0.000 NA
ATOM      3  C   UNL     1       6.049   4.353  14.074  0.00  0.00    +0.000 A 
ATOM      4  N   UNL     1       6.138   3.881  12.786  0.00  0.00    +0.000 N 
ATOM      5  C   UNL     1       5.060   3.111  12.183  0.00  0.00    +0.000 C 
ATOM      6  C   UNL     1       5.607   1.765  11.701  0.00  0.00    +0.000 C 
ATOM      7  C   UNL     1       6.833   1.943  10.805  0.00  0.00    +0.000 C 
ATOM      8  C   UNL     1       7.895   2.803  11.486  0.00  0.00    +0.000 C 
ATOM      9  C   UNL     1       7.316   4.135  11.967  0.00  0.00    +0.000 C 
ATOM     10  N   UNL     1       7.060   5.120  14.529  0.00  0.00    +0.000 NA
ATOM     11  C   UNL     1       6.885   5.537  15.786  0.00  0.00    +0.000 A 
ATOM     12  N   UNL     1       7.713   6.336  16.510  0.00  0.00    +0.000 N 
ATOM     13  C   UNL     1       7.151   6.518  17.741  0.00  0.00    +0.000 A 
ATOM     14  N   UNL     1       6.013   5.870  17.854  0.00  0.00    +0.000 NA
ATOM     15  C   UNL     1       5.840   5.248  16.631  0.00  0.00    +0.000 A 
ATOM     16  H   UNL     1       8.587   6.727  16.177  0.00  0.00    +0.000 HD
ENDROOT
BRANCH   1  17
ATOM     17  N   UNL     1       3.720   3.955  16.842  0.00  0.00    +0.000 N 
ATOM     18  H   UNL     1       3.462   4.704  17.478  0.00  0.00    +0.000 HD
BRANCH  17  19
ATOM     19  C   UNL     1       3.959   2.712  17.575  0.00  0.00    +0.000 C 
BRANCH  19  24
ATOM     20  F   UNL     1       0.793   2.716  22.241  0.00  0.00    +0.000 F 
ATOM     21  C   UNL     1       1.541   2.705  21.130  0.00  0.00    +0.000 A 
ATOM     22  C   UNL     1       2.919   2.572  21.238  0.00  0.00    +0.000 A 
ATOM     23  C   UNL     1       3.696   2.560  20.081  0.00  0.00    +0.000 A 
ATOM     24  C   UNL     1       3.095   2.673  18.815  0.00  0.00    +0.000 A 
ATOM     25  C   UNL     1       1.703   2.819  18.730  0.00  0.00    +0.000 A 
ATOM     26  C   UNL     1       0.927   2.831  19.889  0.00  0.00    +0.000 A 
ENDBRANCH  19  24
ENDBRANCH  17  19
ENDBRANCH   1  17
TORSDOF 3
ENDMDL
MODEL 5
REMARK VINA RESULT:      -7.8      5.197      8.229
REMARK  Name = 
REMARK  3 active torsions:
REMARK  status: ('A' for Active; 'I' for Inactive)
REMARK    1  A    between atoms: C_5  and  C_6
REMARK    2  A    between atoms: C_6  and  N_7
REMARK    3  A    between atoms: N_7  and  C_8
REMARK                            x       y       z     vdW  Elec       q    Type
REMARK                         _______ _______ _______ _____ _____    ______ ____
ROOT
ATOM      1  C   UNL     1       2.719   5.667  20.132  0.00  0.00    +0.000 A 
ATOM      2  N   UNL     1       3.631   5.882  19.144  0.00  0.00    +0.000 NA
ATOM      3  C   UNL     1       4.327   4.860  18.582  0.00  0.00    +0.000 A 
ATOM      4  N   UNL     1       5.191   5.140  17.549  0.00  0.00    +0.000 N 
ATOM      5  C   UNL     1       5.431   6.506  17.109  0.00  0.00    +0.000 C 
ATOM      6  C   UNL     1       5.119   6.620  15.615  0.00  0.00    +0.000 C 
ATOM      7  C   UNL     1       5.858   5.557  14.802  0.00  0.00    +0.000 C 
ATOM      8  C   UNL     1       5.597   4.158  15.356  0.00  0.00    +0.000 C 
ATOM      9  C   UNL     1       5.906   4.079  16.852  0.00  0.00    +0.000 C 
ATOM     10  N   UNL     1       4.219   3.574  18.974  0.00  0.00    +0.000 NA
ATOM     11  C   UNL     1       3.363   3.399  19.985  0.00  0.00    +0.000 A 
ATOM     12  N   UNL     1       3.058   2.231  20.609  0.00  0.00    +0.000 N 
ATOM     13  C   UNL     1       2.146   2.504  21.588  0.00  0.00    +0.000 A 
ATOM     14  N   UNL     1       1.838   3.782  21.620  0.00  0.00    +0.000 NA
ATOM     15  C   UNL     1       2.596   4.350  20.613  0.00  0.00    +0.000 A 
ATOM     16  H   UNL     1       3.453   1.326  20.383  0.00  0.00    +0.000 HD
ENDROOT
BRANCH   1  17
ATOM     17  N   UNL     1       1.978   6.766  20.605  0.00  0.00    +0.000 N 
ATOM     18  H   UNL     1       1.035   6.428  20.778  0.00  0.00    +0.000 HD
BRANCH  17  19
ATOM     19  C   UNL     1       1.959   7.904  19.687  0.00  0.00    +0.000 C 
BRANCH  19  24
ATOM     20  F   UNL     1      -1.400  11.956  21.707  0.00  0.00    +0.000 F 
ATOM     21  C   UNL     1      -0.611  10.989  21.223  0.00  0.00    +0.000 A 
ATOM     22  C   UNL     1      -0.092  10.034  22.088  0.00  0.00    +0.000 A 
ATOM     23  C   UNL     1       0.727   9.027  21.581  0.00  0.00    +0.000 A 
ATOM     24  C   UNL     1       1.024   8.970  20.209  0.00  0.00    +0.000 A 
ATOM     25  C   UNL     1       0.500   9.952  19.354  0.00  0.00    +0.000 A 
ATOM     26  C   UNL     1      -0.320  10.959  19.863  0.00  0.00    +0.000 A 
ENDBRANCH  19  24
ENDBRANCH  17  19
ENDBRANCH   1  17
TORSDOF 3
ENDMDL
MODEL 6
REMARK VINA RESULT:      -7.8      4.796      8.139
REMARK  Name = 
REMARK  3 active torsions:
REMARK  status: ('A' for Active; 'I' for Inactive)
REMARK    1  A    between atoms: C_5  and  C_6
REMARK    2  A    between atoms: C_6  and  N_7
REMARK    3  A    between atoms: N_7  and  C_8
REMARK                            x       y       z     vdW  Elec       q    Type
REMARK                         _______ _______ _______ _____ _____    ______ ____
ROOT
ATOM      1  C   UNL     1       2.876   5.129  19.262  0.00  0.00    +0.000 A 
ATOM      2  N   UNL     1       4.021   5.148  18.527  0.00  0.00    +0.000 NA
ATOM      3  C   UNL     1       4.336   4.140  17.673  0.00  0.00    +0.000 A 
ATOM      4  N   UNL     1       5.481   4.249  16.918  0.00  0.00    +0.000 N 
ATOM      5  C   UNL     1       6.392   5.373  17.077  0.00  0.00    +0.000 C 
ATOM      6  C   UNL     1       6.576   6.072  15.728  0.00  0.00    +0.000 C 
ATOM      7  C   UNL     1       6.978   5.085  14.632  0.00  0.00    +0.000 C 
ATOM      8  C   UNL     1       6.005   3.911  14.562  0.00  0.00    +0.000 C 
ATOM      9  C   UNL     1       5.832   3.241  15.927  0.00  0.00    +0.000 C 
ATOM     10  N   UNL     1       3.587   3.031  17.513  0.00  0.00    +0.000 NA
ATOM     11  C   UNL     1       2.501   3.009  18.290  0.00  0.00    +0.000 A 
ATOM     12  N   UNL     1       1.568   2.023  18.371  0.00  0.00    +0.000 N 
ATOM     13  C   UNL     1       0.633   2.404  19.291  0.00  0.00    +0.000 A 
ATOM     14  N   UNL     1       0.906   3.586  19.796  0.00  0.00    +0.000 NA
ATOM     15  C   UNL     1       2.076   3.975  19.170  0.00  0.00    +0.000 A 
ATOM     16  H   UNL     1       1.584   1.159  17.842  0.00  0.00    +0.000 HD
ENDROOT
BRANCH   1  17
ATOM     17  N   UNL     1       2.578   6.249  20.061  0.00  0.00    +0.000 N 
ATOM     18  H   UNL     1       1.729   6.024  20.572  0.00  0.00    +0.000 HD
BRANCH  17  19
ATOM     19  C   UNL     1       2.411   7.488  19.302  0.00  0.00    +0.000 C 
BRANCH  19  24
ATOM     20  F   UNL     1      -1.080  10.956  22.053  0.00  0.00    +0.000 F 
ATOM     21  C   UNL     1      -0.259  10.129  21.394  0.00  0.00    +0.000 A 
ATOM     22  C   UNL     1       0.267   9.024  22.050  0.00  0.00    +0.000 A 
ATOM     23  C   UNL     1       1.119   8.162  21.362  0.00  0.00    +0.000 A 
ATOM     24  C   UNL     1       1.442   8.402  20.015  0.00  0.00    +0.000 A 
ATOM     25  C   UNL     1       0.910   9.530  19.374  0.00  0.00    +0.000 A 
ATOM     26  C   UNL     1       0.057  10.392  20.065  0.00  0.00    +0.000 A 
ENDBRANCH  19  24
ENDBRANCH  17  19
ENDBRANCH   1  17
TORSDOF 3
ENDMDL
MODEL 7
REMARK VINA RESULT:      -7.8      3.894      6.203
REMARK  Name = 
REMARK  3 active torsions:
REMARK  status: ('A' for Active; 'I' for Inactive)
REMARK    1  A    between atoms: C_5  and  C_6
REMARK    2  A    between atoms: C_6  and  N_7
REMARK    3  A    between atoms: N_7  and  C_8
REMARK                            x       y       z     vdW  Elec       q    Type
REMARK                         _______ _______ _______ _____ _____    ______ ____
ROOT
ATOM      1  C   UNL     1       5.795   6.611  16.810  0.00  0.00    +0.000 A 
ATOM      2  N   UNL     1       4.646   6.346  17.491  0.00  0.00    +0.000 NA
ATOM      3  C   UNL     1       4.005   5.155  17.371  0.00  0.00    +0.000 A 
ATOM      4  N   UNL     1       2.880   4.933  18.131  0.00  0.00    +0.000 N 
ATOM      5  C   UNL     1       2.325   5.970  18.988  0.00  0.00    +0.000 C 
ATOM      6  C   UNL     1       2.238   5.449  20.424  0.00  0.00    +0.000 C 
ATOM      7  C   UNL     1       1.500   4.111  20.494  0.00  0.00    +0.000 C 
ATOM      8  C   UNL     1       2.109   3.094  19.531  0.00  0.00    +0.000 C 
ATOM      9  C   UNL     1       2.194   3.649  18.108  0.00  0.00    +0.000 C 
ATOM     10  N   UNL     1       4.409   4.165  16.550  0.00  0.00    +0.000 NA
ATOM     11  C   UNL     1       5.503   4.472  15.848  0.00  0.00    +0.000 A 
ATOM     12  N   UNL     1       6.135   3.695  14.929  0.00  0.00    +0.000 N 
ATOM     13  C   UNL     1       7.204   4.396  14.450  0.00  0.00    +0.000 A 
ATOM     14  N   UNL     1       7.304   5.577  15.021  0.00  0.00    +0.000 NA
ATOM     15  C   UNL     1       6.241   5.631  15.904  0.00  0.00    +0.000 A 
ATOM     16  H   UNL     1       5.844   2.765  14.652  0.00  0.00    +0.000 HD
ENDROOT
BRANCH   1  17
ATOM     17  N   UNL     1       6.446   7.835  17.050  0.00  0.00    +0.000 N 
ATOM     18  H   UNL     1       6.583   8.275  16.145  0.00  0.00    +0.000 HD
BRANCH  17  19
ATOM     19  C   UNL     1       7.720   7.697  17.756  0.00  0.00    +0.000 C 
BRANCH  19  24
ATOM     20  F   UNL     1       9.808  12.736  19.183  0.00  0.00    +0.000 F 
ATOM     21  C   UNL     1       9.303  11.542  18.847  0.00  0.00    +0.000 A 
ATOM     22  C   UNL     1       9.607  10.430  19.621  0.00  0.00    +0.000 A 
ATOM     23  C   UNL     1       9.078   9.189  19.271  0.00  0.00    +0.000 A 
ATOM     24  C   UNL     1       8.239   9.060  18.151  0.00  0.00    +0.000 A 
ATOM     25  C   UNL     1       7.954  10.194  17.376  0.00  0.00    +0.000 A 
ATOM     26  C   UNL     1       8.485  11.435  17.728  0.00  0.00    +0.000 A 
ENDBRANCH  19  24
ENDBRANCH  17  19
ENDBRANCH   1  17
TORSDOF 3
ENDMDL
MODEL 8
REMARK VINA RESULT:      -7.8      2.892      7.028
REMARK  Name = 
REMARK  3 active torsions:
REMARK  status: ('A' for Active; 'I' for Inactive)
REMARK    1  A    between atoms: C_5  and  C_6
REMARK    2  A    between atoms: C_6  and  N_7
REMARK    3  A    between atoms: N_7  and  C_8
REMARK                            x       y       z     vdW  Elec       q    Type
REMARK                         _______ _______ _______ _____ _____    ______ ____
ROOT
ATOM      1  C   UNL     1       5.023   4.228  16.217  0.00  0.00    +0.000 A 
ATOM      2  N   UNL     1       5.112   3.891  14.901  0.00  0.00    +0.000 NA
ATOM      3  C   UNL     1       6.149   4.306  14.128  0.00  0.00    +0.000 A 
ATOM      4  N   UNL     1       6.207   3.882  12.821  0.00  0.00    +0.000 N 
ATOM      5  C   UNL     1       5.147   3.074  12.236  0.00  0.00    +0.000 C 
ATOM      6  C   UNL     1       5.743   1.777  11.685  0.00  0.00    +0.000 C 
ATOM      7  C   UNL     1       6.918   2.050  10.746  0.00  0.00    +0.000 C 
ATOM      8  C   UNL     1       7.961   2.944  11.413  0.00  0.00    +0.000 C 
ATOM      9  C   UNL     1       7.334   4.226  11.964  0.00  0.00    +0.000 C 
ATOM     10  N   UNL     1       7.137   5.111  14.568  0.00  0.00    +0.000 NA
ATOM     11  C   UNL     1       6.994   5.477  15.845  0.00  0.00    +0.000 A 
ATOM     12  N   UNL     1       7.809   6.294  16.561  0.00  0.00    +0.000 N 
ATOM     13  C   UNL     1       7.291   6.406  17.820  0.00  0.00    +0.000 A 
ATOM     14  N   UNL     1       6.194   5.694  17.956  0.00  0.00    +0.000 NA
ATOM     15  C   UNL     1       6.003   5.104  16.720  0.00  0.00    +0.000 A 
ATOM     16  H   UNL     1       8.646   6.743  16.207  0.00  0.00    +0.000 HD
ENDROOT
BRANCH   1  17
ATOM     17  N   UNL     1       3.964   3.691  16.973  0.00  0.00    +0.000 N 
ATOM     18  H   UNL     1       3.467   3.048  16.362  0.00  0.00    +0.000 HD
BRANCH  17  19
ATOM     19  C   UNL     1       3.053   4.699  17.513  0.00  0.00    +0.000 C 
BRANCH  19  24
ATOM     20  F   UNL     1       0.822   2.685  22.283  0.00  0.00    +0.000 F 
ATOM     21  C   UNL     1       1.346   3.172  21.151  0.00  0.00    +0.000 A 
ATOM     22  C   UNL     1       0.922   2.667  19.929  0.00  0.00    +0.000 A 
ATOM     23  C   UNL     1       1.467   3.177  18.752  0.00  0.00    +0.000 A 
ATOM     24  C   UNL     1       2.433   4.197  18.797  0.00  0.00    +0.000 A 
ATOM     25  C   UNL     1       2.857   4.685  20.041  0.00  0.00    +0.000 A 
ATOM     26  C   UNL     1       2.310   4.172  21.218  0.00  0.00    +0.000 A 
ENDBRANCH  19  24
ENDBRANCH  17  19
ENDBRANCH   1  17
TORSDOF 3
ENDMDL
MODEL 9
REMARK VINA RESULT:      -7.8      4.895      8.243
REMARK  Name = 
REMARK  3 active torsions:
REMARK  status: ('A' for Active; 'I' for Inactive)
REMARK    1  A    between atoms: C_5  and  C_6
REMARK    2  A    between atoms: C_6  and  N_7
REMARK    3  A    between atoms: N_7  and  C_8
REMARK                            x       y       z     vdW  Elec       q    Type
REMARK                         _______ _______ _______ _____ _____    ______ ____
ROOT
ATOM      1  C   UNL     1       2.884   5.284  19.296  0.00  0.00    +0.000 A 
ATOM      2  N   UNL     1       4.032   5.269  18.564  0.00  0.00    +0.000 NA
ATOM      3  C   UNL     1       4.333   4.239  17.732  0.00  0.00    +0.000 A 
ATOM      4  N   UNL     1       5.482   4.315  16.978  0.00  0.00    +0.000 N 
ATOM      5  C   UNL     1       6.410   5.426  17.119  0.00  0.00    +0.000 C 
ATOM      6  C   UNL     1       6.610   6.095  15.756  0.00  0.00    +0.000 C 
ATOM      7  C   UNL     1       6.999   5.080  14.682  0.00  0.00    +0.000 C 
ATOM      8  C   UNL     1       6.007   3.920  14.632  0.00  0.00    +0.000 C 
ATOM      9  C   UNL     1       5.819   3.281  16.009  0.00  0.00    +0.000 C 
ATOM     10  N   UNL     1       3.566   3.139  17.592  0.00  0.00    +0.000 NA
ATOM     11  C   UNL     1       2.477   3.151  18.365  0.00  0.00    +0.000 A 
ATOM     12  N   UNL     1       1.528   2.183  18.463  0.00  0.00    +0.000 N 
ATOM     13  C   UNL     1       0.597   2.597  19.372  0.00  0.00    +0.000 A 
ATOM     14  N   UNL     1       0.888   3.785  19.854  0.00  0.00    +0.000 NA
ATOM     15  C   UNL     1       2.066   4.142  19.224  0.00  0.00    +0.000 A 
ATOM     16  H   UNL     1       1.531   1.308  17.952  0.00  0.00    +0.000 HD
ENDROOT
BRANCH   1  17
ATOM     17  N   UNL     1       2.603   6.424  20.071  0.00  0.00    +0.000 N 
ATOM     18  H   UNL     1       1.879   6.156  20.732  0.00  0.00    +0.000 HD
BRANCH  17  19
ATOM     19  C   UNL     1       2.180   7.582  19.285  0.00  0.00    +0.000 C 
BRANCH  19  24
ATOM     20  F   UNL     1      -0.886  11.091  22.460  0.00  0.00    +0.000 F 
ATOM     21  C   UNL     1      -0.149  10.261  21.710  0.00  0.00    +0.000 A 
ATOM     22  C   UNL     1       0.028  10.536  20.361  0.00  0.00    +0.000 A 
ATOM     23  C   UNL     1       0.798   9.673  19.583  0.00  0.00    +0.000 A 
ATOM     24  C   UNL     1       1.395   8.537  20.156  0.00  0.00    +0.000 A 
ATOM     25  C   UNL     1       1.193   8.270  21.518  0.00  0.00    +0.000 A 
ATOM     26  C   UNL     1       0.422   9.136  22.295  0.00  0.00    +0.000 A 
ENDBRANCH  19  24
ENDBRANCH  17  19
ENDBRANCH   1  17
TORSDOF 3
ENDMDL
