MODEL 1
REMARK VINA RESULT:      -7.8      0.000      0.000
REMARK  Name = 
REMARK  8 active torsions:
REMARK  status: ('A' for Active; 'I' for Inactive)
REMARK    1  A    between atoms: C_1  and  C_2
REMARK    2  A    between atoms: C_2  and  C_3
REMARK    3  A    between atoms: C_3  and  C_4
REMARK    4  A    between atoms: C_13  and  C_14
REMARK    5  A    between atoms: N_16  and  C_17
REMARK    6  A    between atoms: C_17  and  C_18
REMARK    7  A    between atoms: C_18  and  O_19
REMARK    8  A    between atoms: O_19  and  C_20
REMARK                            x       y       z     vdW  Elec       q    Type
REMARK                         _______ _______ _______ _____ _____    ______ ____
ROOT
ATOM      1  C   UNL     1       4.678   3.974  16.733  0.00  0.00    +0.000 C 
ATOM      2  O   UNL     1       4.625   2.798  17.092  0.00  0.00    +0.000 OA
ATOM      3  N   UNL     1       3.696   4.877  17.110  0.00  0.00    +0.000 N 
ATOM      4  H   UNL     1       3.776   5.840  16.817  0.00  0.00    +0.000 HD
ENDROOT
BRANCH   1  14
ATOM      5  C   UNL     1       6.812   5.370  16.257  0.00  0.00    +0.000 A 
ATOM      6  N   UNL     1       7.643   5.575  15.182  0.00  0.00    +0.000 NA
ATOM      7  C   UNL     1       7.118   4.908  14.187  0.00  0.00    +0.000 A 
ATOM      8  C   UNL     1       7.542   4.796  12.833  0.00  0.00    +0.000 A 
ATOM      9  C   UNL     1       6.821   4.066  11.962  0.00  0.00    +0.000 A 
ATOM     10  C   UNL     1       5.621   3.388  12.393  0.00  0.00    +0.000 A 
ATOM     11  F   UNL     1       4.922   2.680  11.482  0.00  0.00    +0.000 F 
ATOM     12  C   UNL     1       5.218   3.466  13.670  0.00  0.00    +0.000 A 
ATOM     13  N   UNL     1       5.962   4.235  14.574  0.00  0.00    +0.000 N 
ATOM     14  C   UNL     1       5.774   4.491  15.936  0.00  0.00    +0.000 A 
BRANCH   5  15
ATOM     15  C   UNL     1       7.109   6.098  17.528  0.00  0.00    +0.000 C 
BRANCH  15  17
ATOM     16  C   UNL     1       8.054   8.411  17.849  0.00  0.00    +0.000 C 
ATOM     17  C   UNL     1       6.828   7.605  17.450  0.00  0.00    +0.000 C 
ENDBRANCH  15  17
ENDBRANCH   5  15
ENDBRANCH   1  14
BRANCH   3  18
ATOM     18  C   UNL     1       2.506   4.460  17.857  0.00  0.00    +0.000 C 
BRANCH  18  19
ATOM     19  C   UNL     1       2.352   5.186  19.198  0.00  0.00    +0.000 C 
BRANCH  19  20
ATOM     20  O   UNL     1       3.123   6.396  19.210  0.00  0.00    +0.000 OA
BRANCH  20  21
ATOM     21  C   UNL     1       2.405   7.562  19.094  0.00  0.00    +0.000 A 
ATOM     22  C   UNL     1       2.347   8.355  17.944  0.00  0.00    +0.000 A 
ATOM     23  C   UNL     1       1.613   9.544  17.935  0.00  0.00    +0.000 A 
ATOM     24  C   UNL     1       0.924   9.940  19.077  0.00  0.00    +0.000 A 
ATOM     25 BR   UNL     1      -0.035  11.568  19.069  0.00  0.00    +0.000 Br
ATOM     26  C   UNL     1       0.942   9.145  20.221  0.00  0.00    +0.000 A 
ATOM     27  C   UNL     1       1.687   7.957  20.227  0.00  0.00    +0.000 A 
ENDBRANCH  20  21
ENDBRANCH  19  20
ENDBRANCH  18  19
ENDBRANCH   3  18
TORSDOF 7
ENDMDL
MODEL 2
REMARK VINA RESULT:      -7.7      4.077      7.016
REMARK  Name = 
REMARK  8 active torsions:
REMARK  status: ('A' for Active; 'I' for Inactive)
REMARK    1  A    between atoms: C_1  and  C_2
REMARK    2  A    between atoms: C_2  and  C_3
REMARK    3  A    between atoms: C_3  and  C_4
REMARK    4  A    between atoms: C_13  and  C_14
REMARK    5  A    between atoms: N_16  and  C_17
REMARK    6  A    between atoms: C_17  and  C_18
REMARK    7  A    between atoms: C_18  and  O_19
REMARK    8  A    between atoms: O_19  and  C_20
REMARK                            x       y       z     vdW  Elec       q    Type
REMARK                         _______ _______ _______ _____ _____    ______ ____
ROOT
ATOM      1  C   UNL     1       6.448   5.650  18.551  0.00  0.00    +0.000 C 
ATOM      2  O   UNL     1       6.883   5.447  19.684  0.00  0.00    +0.000 OA
ATOM      3  N   UNL     1       7.018   6.613  17.732  0.00  0.00    +0.000 N 
ATOM      4  H   UNL     1       6.652   6.744  16.800  0.00  0.00    +0.000 HD
ENDROOT
BRANCH   1  14
ATOM      5  C   UNL     1       5.250   4.148  16.808  0.00  0.00    +0.000 A 
ATOM      6  N   UNL     1       4.012   3.561  16.688  0.00  0.00    +0.000 NA
ATOM      7  C   UNL     1       3.322   3.962  17.725  0.00  0.00    +0.000 A 
ATOM      8  C   UNL     1       1.972   3.690  18.087  0.00  0.00    +0.000 A 
ATOM      9  C   UNL     1       1.453   4.239  19.201  0.00  0.00    +0.000 A 
ATOM     10  C   UNL     1       2.259   5.098  20.037  0.00  0.00    +0.000 A 
ATOM     11  F   UNL     1       1.692   5.639  21.136  0.00  0.00    +0.000 F 
ATOM     12  C   UNL     1       3.538   5.348  19.721  0.00  0.00    +0.000 A 
ATOM     13  N   UNL     1       4.075   4.786  18.556  0.00  0.00    +0.000 N 
ATOM     14  C   UNL     1       5.352   4.881  17.993  0.00  0.00    +0.000 A 
BRANCH   5  15
ATOM     15  C   UNL     1       6.235   3.948  15.702  0.00  0.00    +0.000 C 
BRANCH  15  17
ATOM     16  C   UNL     1       6.192   3.719  13.194  0.00  0.00    +0.000 C 
ATOM     17  C   UNL     1       5.806   4.593  14.376  0.00  0.00    +0.000 C 
ENDBRANCH  15  17
ENDBRANCH   5  15
ENDBRANCH   1  14
BRANCH   3  18
ATOM     18  C   UNL     1       8.086   7.498  18.206  0.00  0.00    +0.000 C 
BRANCH  18  19
ATOM     19  C   UNL     1       7.791   8.983  17.963  0.00  0.00    +0.000 C 
BRANCH  19  20
ATOM     20  O   UNL     1       9.002   9.701  17.688  0.00  0.00    +0.000 OA
BRANCH  20  21
ATOM     21  C   UNL     1       9.303  10.719  18.560  0.00  0.00    +0.000 A 
ATOM     22  C   UNL     1       9.330  10.599  19.953  0.00  0.00    +0.000 A 
ATOM     23  C   UNL     1       9.618  11.704  20.758  0.00  0.00    +0.000 A 
ATOM     24  C   UNL     1       9.892  12.935  20.171  0.00  0.00    +0.000 A 
ATOM     25 BR   UNL     1      10.241  14.433  21.268  0.00  0.00    +0.000 Br
ATOM     26  C   UNL     1       9.904  13.065  18.784  0.00  0.00    +0.000 A 
ATOM     27  C   UNL     1       9.606  11.955  17.981  0.00  0.00    +0.000 A 
ENDBRANCH  20  21
ENDBRANCH  19  20
ENDBRANCH  18  19
ENDBRANCH   3  18
TORSDOF 7
ENDMDL
MODEL 3
REMARK VINA RESULT:      -7.7      1.103      1.242
REMARK  Name = 
REMARK  8 active torsions:
REMARK  status: ('A' for Active; 'I' for Inactive)
REMARK    1  A    between atoms: C_1  and  C_2
REMARK    2  A    between atoms: C_2  and  C_3
REMARK    3  A    between atoms: C_3  and  C_4
REMARK    4  A    between atoms: C_13  and  C_14
REMARK    5  A    between atoms: N_16  and  C_17
REMARK    6  A    between atoms: C_17  and  C_18
REMARK    7  A    between atoms: C_18  and  O_19
REMARK    8  A    between atoms: O_19  and  C_20
REMARK                            x       y       z     vdW  Elec       q    Type
REMARK                         _______ _______ _______ _____ _____    ______ ____
ROOT
ATOM      1  C   UNL     1       4.537   3.928  16.816  0.00  0.00    +0.000 C 
ATOM      2  O   UNL     1       3.410   3.859  16.327  0.00  0.00    +0.000 OA
ATOM      3  N   UNL     1       4.812   3.359  18.050  0.00  0.00    +0.000 N 
ATOM      4  H   UNL     1       5.751   3.414  18.418  0.00  0.00    +0.000 HD
ENDROOT
BRANCH   1  14
ATOM      5  C   UNL     1       6.528   5.567  16.535  0.00  0.00    +0.000 A 
ATOM      6  N   UNL     1       7.439   5.860  15.548  0.00  0.00    +0.000 NA
ATOM      7  C   UNL     1       7.106   5.124  14.520  0.00  0.00    +0.000 A 
ATOM      8  C   UNL     1       7.683   5.051  13.220  0.00  0.00    +0.000 A 
ATOM      9  C   UNL     1       7.150   4.231  12.295  0.00  0.00    +0.000 A 
ATOM     10  C   UNL     1       6.000   3.417  12.614  0.00  0.00    +0.000 A 
ATOM     11  F   UNL     1       5.491   2.620  11.651  0.00  0.00    +0.000 F 
ATOM     12  C   UNL     1       5.457   3.459  13.840  0.00  0.00    +0.000 A 
ATOM     13  N   UNL     1       6.004   4.321  14.799  0.00  0.00    +0.000 N 
ATOM     14  C   UNL     1       5.642   4.566  16.127  0.00  0.00    +0.000 A 
BRANCH   5  15
ATOM     15  C   UNL     1       6.599   6.339  17.813  0.00  0.00    +0.000 C 
BRANCH  15  17
ATOM     16  C   UNL     1       7.791   8.556  17.719  0.00  0.00    +0.000 C 
ATOM     17  C   UNL     1       7.933   7.071  18.013  0.00  0.00    +0.000 C 
ENDBRANCH  15  17
ENDBRANCH   5  15
ENDBRANCH   1  14
BRANCH   3  18
ATOM     18  C   UNL     1       3.764   2.746  18.871  0.00  0.00    +0.000 C 
BRANCH  18  19
ATOM     19  C   UNL     1       2.656   3.728  19.267  0.00  0.00    +0.000 C 
BRANCH  19  20
ATOM     20  O   UNL     1       3.202   4.845  19.983  0.00  0.00    +0.000 OA
BRANCH  20  21
ATOM     21  C   UNL     1       2.732   6.081  19.610  0.00  0.00    +0.000 A 
ATOM     22  C   UNL     1       2.916   6.661  18.351  0.00  0.00    +0.000 A 
ATOM     23  C   UNL     1       2.425   7.940  18.078  0.00  0.00    +0.000 A 
ATOM     24  C   UNL     1       1.737   8.643  19.062  0.00  0.00    +0.000 A 
ATOM     25 BR   UNL     1       1.111  10.387  18.697  0.00  0.00    +0.000 Br
ATOM     26  C   UNL     1       1.514   8.066  20.311  0.00  0.00    +0.000 A 
ATOM     27  C   UNL     1       2.016   6.786  20.583  0.00  0.00    +0.000 A 
ENDBRANCH  20  21
ENDBRANCH  19  20
ENDBRANCH  18  19
ENDBRANCH   3  18
TORSDOF 7
ENDMDL
MODEL 4
REMARK VINA RESULT:      -7.6      1.083      1.541
REMARK  Name = 
REMARK  8 active torsions:
REMARK  status: ('A' for Active; 'I' for Inactive)
REMARK    1  A    between atoms: C_1  and  C_2
REMARK    2  A    between atoms: C_2  and  C_3
REMARK    3  A    between atoms: C_3  and  C_4
REMARK    4  A    between atoms: C_13  and  C_14
REMARK    5  A    between atoms: N_16  and  C_17
REMARK    6  A    between atoms: C_17  and  C_18
REMARK    7  A    between atoms: C_18  and  O_19
REMARK    8  A    between atoms: O_19  and  C_20
REMARK                            x       y       z     vdW  Elec       q    Type
REMARK                         _______ _______ _______ _____ _____    ______ ____
ROOT
ATOM      1  C   UNL     1       4.944   4.026  16.780  0.00  0.00    +0.000 C 
ATOM      2  O   UNL     1       3.787   3.883  16.388  0.00  0.00    +0.000 OA
ATOM      3  N   UNL     1       5.313   3.645  18.061  0.00  0.00    +0.000 N 
ATOM      4  H   UNL     1       6.274   3.755  18.349  0.00  0.00    +0.000 HD
ENDROOT
BRANCH   1  14
ATOM      5  C   UNL     1       7.021   5.464  16.189  0.00  0.00    +0.000 A 
ATOM      6  N   UNL     1       7.798   5.672  15.075  0.00  0.00    +0.000 NA
ATOM      7  C   UNL     1       7.244   4.978  14.114  0.00  0.00    +0.000 A 
ATOM      8  C   UNL     1       7.611   4.855  12.744  0.00  0.00    +0.000 A 
ATOM      9  C   UNL     1       6.869   4.095  11.917  0.00  0.00    +0.000 A 
ATOM     10  C   UNL     1       5.707   3.395  12.412  0.00  0.00    +0.000 A 
ATOM     11  F   UNL     1       4.985   2.657  11.543  0.00  0.00    +0.000 F 
ATOM     12  C   UNL     1       5.360   3.483  13.704  0.00  0.00    +0.000 A 
ATOM     13  N   UNL     1       6.124   4.284  14.563  0.00  0.00    +0.000 N 
ATOM     14  C   UNL     1       5.991   4.557  15.928  0.00  0.00    +0.000 A 
BRANCH   5  15
ATOM     15  C   UNL     1       7.356   6.219  17.434  0.00  0.00    +0.000 C 
BRANCH  15  17
ATOM     16  C   UNL     1       8.024   8.622  17.789  0.00  0.00    +0.000 C 
ATOM     17  C   UNL     1       6.892   7.682  17.408  0.00  0.00    +0.000 C 
ENDBRANCH  15  17
ENDBRANCH   5  15
ENDBRANCH   1  14
BRANCH   3  18
ATOM     18  C   UNL     1       4.332   3.159  19.037  0.00  0.00    +0.000 C 
BRANCH  18  19
ATOM     19  C   UNL     1       3.815   4.257  19.971  0.00  0.00    +0.000 C 
BRANCH  19  20
ATOM     20  O   UNL     1       2.472   4.626  19.624  0.00  0.00    +0.000 OA
BRANCH  20  21
ATOM     21  C   UNL     1       2.239   5.974  19.491  0.00  0.00    +0.000 A 
ATOM     22  C   UNL     1       1.774   6.810  20.510  0.00  0.00    +0.000 A 
ATOM     23  C   UNL     1       1.536   8.165  20.267  0.00  0.00    +0.000 A 
ATOM     24  C   UNL     1       1.774   8.693  19.003  0.00  0.00    +0.000 A 
ATOM     25 BR   UNL     1       1.414  10.518  18.672  0.00  0.00    +0.000 Br
ATOM     26  C   UNL     1       2.271   7.882  17.984  0.00  0.00    +0.000 A 
ATOM     27  C   UNL     1       2.499   6.521  18.231  0.00  0.00    +0.000 A 
ENDBRANCH  20  21
ENDBRANCH  19  20
ENDBRANCH  18  19
ENDBRANCH   3  18
TORSDOF 7
ENDMDL
MODEL 5
REMARK VINA RESULT:      -7.6      3.663      6.627
REMARK  Name = 
REMARK  8 active torsions:
REMARK  status: ('A' for Active; 'I' for Inactive)
REMARK    1  A    between atoms: C_1  and  C_2
REMARK    2  A    between atoms: C_2  and  C_3
REMARK    3  A    between atoms: C_3  and  C_4
REMARK    4  A    between atoms: C_13  and  C_14
REMARK    5  A    between atoms: N_16  and  C_17
REMARK    6  A    between atoms: C_17  and  C_18
REMARK    7  A    between atoms: C_18  and  O_19
REMARK    8  A    between atoms: O_19  and  C_20
REMARK                            x       y       z     vdW  Elec       q    Type
REMARK                         _______ _______ _______ _____ _____    ______ ____
ROOT
ATOM      1  C   UNL     1       5.346   6.014  17.002  0.00  0.00    +0.000 C 
ATOM      2  O   UNL     1       5.727   5.700  15.875  0.00  0.00    +0.000 OA
ATOM      3  N   UNL     1       6.191   6.677  17.879  0.00  0.00    +0.000 N 
ATOM      4  H   UNL     1       5.844   6.940  18.790  0.00  0.00    +0.000 HD
ENDROOT
BRANCH   1  14
ATOM      5  C   UNL     1       2.951   6.611  17.799  0.00  0.00    +0.000 A 
ATOM      6  N   UNL     1       1.831   5.913  18.182  0.00  0.00    +0.000 NA
ATOM      7  C   UNL     1       2.168   4.650  18.161  0.00  0.00    +0.000 A 
ATOM      8  C   UNL     1       1.410   3.493  18.499  0.00  0.00    +0.000 A 
ATOM      9  C   UNL     1       1.978   2.275  18.429  0.00  0.00    +0.000 A 
ATOM     10  C   UNL     1       3.352   2.131  18.006  0.00  0.00    +0.000 A 
ATOM     11  F   UNL     1       3.884   0.892  17.965  0.00  0.00    +0.000 F 
ATOM     12  C   UNL     1       4.074   3.208  17.664  0.00  0.00    +0.000 A 
ATOM     13  N   UNL     1       3.486   4.477  17.748  0.00  0.00    +0.000 N 
ATOM     14  C   UNL     1       3.998   5.748  17.465  0.00  0.00    +0.000 A 
BRANCH   5  15
ATOM     15  C   UNL     1       2.895   8.104  17.825  0.00  0.00    +0.000 C 
BRANCH  15  17
ATOM     16  C   UNL     1       0.937   9.673  18.051  0.00  0.00    +0.000 C 
ATOM     17  C   UNL     1       1.818   8.661  18.766  0.00  0.00    +0.000 C 
ENDBRANCH  15  17
ENDBRANCH   5  15
ENDBRANCH   1  14
BRANCH   3  18
ATOM     18  C   UNL     1       7.595   6.942  17.551  0.00  0.00    +0.000 C 
BRANCH  18  19
ATOM     19  C   UNL     1       7.954   8.431  17.594  0.00  0.00    +0.000 C 
BRANCH  19  20
ATOM     20  O   UNL     1       8.652   8.748  18.807  0.00  0.00    +0.000 OA
BRANCH  20  21
ATOM     21  C   UNL     1       9.025  10.062  18.955  0.00  0.00    +0.000 A 
ATOM     22  C   UNL     1       9.668  10.590  20.079  0.00  0.00    +0.000 A 
ATOM     23  C   UNL     1       9.980  11.950  20.148  0.00  0.00    +0.000 A 
ATOM     24  C   UNL     1       9.657  12.789  19.087  0.00  0.00    +0.000 A 
ATOM     25 BR   UNL     1      10.046  14.634  19.204  0.00  0.00    +0.000 Br
ATOM     26  C   UNL     1       9.047  12.274  17.944  0.00  0.00    +0.000 A 
ATOM     27  C   UNL     1       8.729  10.910  17.883  0.00  0.00    +0.000 A 
ENDBRANCH  20  21
ENDBRANCH  19  20
ENDBRANCH  18  19
ENDBRANCH   3  18
TORSDOF 7
ENDMDL
MODEL 6
REMARK VINA RESULT:      -7.5      3.206      5.321
REMARK  Name = 
REMARK  8 active torsions:
REMARK  status: ('A' for Active; 'I' for Inactive)
REMARK    1  A    between atoms: C_1  and  C_2
REMARK    2  A    between atoms: C_2  and  C_3
REMARK    3  A    between atoms: C_3  and  C_4
REMARK    4  A    between atoms: C_13  and  C_14
REMARK    5  A    between atoms: N_16  and  C_17
REMARK    6  A    between atoms: C_17  and  C_18
REMARK    7  A    between atoms: C_18  and  O_19
REMARK    8  A    between atoms: O_19  and  C_20
REMARK                            x       y       z     vdW  Elec       q    Type
REMARK                         _______ _______ _______ _____ _____    ______ ____
ROOT
ATOM      1  C   UNL     1       2.719   7.093  18.494  0.00  0.00    +0.000 C 
ATOM      2  O   UNL     1       2.359   7.122  19.670  0.00  0.00    +0.000 OA
ATOM      3  N   UNL     1       2.629   8.222  17.695  0.00  0.00    +0.000 N 
ATOM      4  H   UNL     1       2.951   8.175  16.739  0.00  0.00    +0.000 HD
ENDROOT
BRANCH   1  14
ATOM      5  C   UNL     1       2.747   4.637  17.658  0.00  0.00    +0.000 A 
ATOM      6  N   UNL     1       3.653   3.812  17.037  0.00  0.00    +0.000 NA
ATOM      7  C   UNL     1       4.759   4.502  16.935  0.00  0.00    +0.000 A 
ATOM      8  C   UNL     1       6.026   4.129  16.405  0.00  0.00    +0.000 A 
ATOM      9  C   UNL     1       7.048   5.005  16.428  0.00  0.00    +0.000 A 
ATOM     10  C   UNL     1       6.865   6.328  16.980  0.00  0.00    +0.000 A 
ATOM     11  F   UNL     1       7.920   7.168  16.995  0.00  0.00    +0.000 F 
ATOM     12  C   UNL     1       5.671   6.703  17.464  0.00  0.00    +0.000 A 
ATOM     13  N   UNL     1       4.612   5.787  17.451  0.00  0.00    +0.000 N 
ATOM     14  C   UNL     1       3.289   5.905  17.887  0.00  0.00    +0.000 A 
BRANCH   5  15
ATOM     15  C   UNL     1       1.404   4.079  18.002  0.00  0.00    +0.000 C 
BRANCH  15  17
ATOM     16  C   UNL     1       1.662   2.203  19.663  0.00  0.00    +0.000 C 
ATOM     17  C   UNL     1       1.273   3.660  19.473  0.00  0.00    +0.000 C 
ENDBRANCH  15  17
ENDBRANCH   5  15
ENDBRANCH   1  14
BRANCH   3  18
ATOM     18  C   UNL     1       2.011   9.463  18.173  0.00  0.00    +0.000 C 
BRANCH  18  19
ATOM     19  C   UNL     1       0.526   9.575  17.812  0.00  0.00    +0.000 C 
BRANCH  19  20
ATOM     20  O   UNL     1      -0.197  10.253  18.849  0.00  0.00    +0.000 OA
BRANCH  20  21
ATOM     21  C   UNL     1      -1.502  10.570  18.557  0.00  0.00    +0.000 A 
ATOM     22  C   UNL     1      -2.299   9.902  17.623  0.00  0.00    +0.000 A 
ATOM     23  C   UNL     1      -3.608  10.322  17.374  0.00  0.00    +0.000 A 
ATOM     24  C   UNL     1      -4.130  11.409  18.068  0.00  0.00    +0.000 A 
ATOM     25 BR   UNL     1      -5.887  11.995  17.697  0.00  0.00    +0.000 Br
ATOM     26  C   UNL     1      -3.362  12.065  19.027  0.00  0.00    +0.000 A 
ATOM     27  C   UNL     1      -2.046  11.645  19.267  0.00  0.00    +0.000 A 
ENDBRANCH  20  21
ENDBRANCH  19  20
ENDBRANCH  18  19
ENDBRANCH   3  18
TORSDOF 7
ENDMDL
MODEL 7
REMARK VINA RESULT:      -7.5      4.123      6.877
REMARK  Name = 
REMARK  8 active torsions:
REMARK  status: ('A' for Active; 'I' for Inactive)
REMARK    1  A    between atoms: C_1  and  C_2
REMARK    2  A    between atoms: C_2  and  C_3
REMARK    3  A    between atoms: C_3  and  C_4
REMARK    4  A    between atoms: C_13  and  C_14
REMARK    5  A    between atoms: N_16  and  C_17
REMARK    6  A    between atoms: C_17  and  C_18
REMARK    7  A    between atoms: C_18  and  O_19
REMARK    8  A    between atoms: O_19  and  C_20
REMARK                            x       y       z     vdW  Elec       q    Type
REMARK                         _______ _______ _______ _____ _____    ______ ____
ROOT
ATOM      1  C   UNL     1       6.701   5.800  18.404  0.00  0.00    +0.000 C 
ATOM      2  O   UNL     1       7.226   5.448  19.460  0.00  0.00    +0.000 OA
ATOM      3  N   UNL     1       7.166   6.908  17.714  0.00  0.00    +0.000 N 
ATOM      4  H   UNL     1       6.729   7.162  16.840  0.00  0.00    +0.000 HD
ENDROOT
BRANCH   1  14
ATOM      5  C   UNL     1       5.502   4.399  16.580  0.00  0.00    +0.000 A 
ATOM      6  N   UNL     1       4.262   3.825  16.426  0.00  0.00    +0.000 NA
ATOM      7  C   UNL     1       3.571   4.172  17.481  0.00  0.00    +0.000 A 
ATOM      8  C   UNL     1       2.219   3.886  17.825  0.00  0.00    +0.000 A 
ATOM      9  C   UNL     1       1.699   4.376  18.966  0.00  0.00    +0.000 A 
ATOM     10  C   UNL     1       2.506   5.185  19.849  0.00  0.00    +0.000 A 
ATOM     11  F   UNL     1       1.939   5.668  20.974  0.00  0.00    +0.000 F 
ATOM     12  C   UNL     1       3.787   5.447  19.550  0.00  0.00    +0.000 A 
ATOM     13  N   UNL     1       4.325   4.947  18.357  0.00  0.00    +0.000 N 
ATOM     14  C   UNL     1       5.604   5.067  17.803  0.00  0.00    +0.000 A 
BRANCH   5  15
ATOM     15  C   UNL     1       6.488   4.256  15.467  0.00  0.00    +0.000 C 
BRANCH  15  17
ATOM     16  C   UNL     1       6.771   4.150  12.966  0.00  0.00    +0.000 C 
ATOM     17  C   UNL     1       5.853   3.833  14.135  0.00  0.00    +0.000 C 
ENDBRANCH  15  17
ENDBRANCH   5  15
ENDBRANCH   1  14
BRANCH   3  18
ATOM     18  C   UNL     1       8.225   7.768  18.253  0.00  0.00    +0.000 C 
BRANCH  18  19
ATOM     19  C   UNL     1       7.990   9.257  17.979  0.00  0.00    +0.000 C 
BRANCH  19  20
ATOM     20  O   UNL     1       9.234   9.972  17.968  0.00  0.00    +0.000 OA
BRANCH  20  21
ATOM     21  C   UNL     1       9.288  11.089  18.766  0.00  0.00    +0.000 A 
ATOM     22  C   UNL     1       9.062  12.398  18.327  0.00  0.00    +0.000 A 
ATOM     23  C   UNL     1       9.171  13.474  19.212  0.00  0.00    +0.000 A 
ATOM     24  C   UNL     1       9.498  13.245  20.544  0.00  0.00    +0.000 A 
ATOM     25 BR   UNL     1       9.682  14.708  21.724  0.00  0.00    +0.000 Br
ATOM     26  C   UNL     1       9.692  11.945  21.006  0.00  0.00    +0.000 A 
ATOM     27  C   UNL     1       9.589  10.869  20.113  0.00  0.00    +0.000 A 
ENDBRANCH  20  21
ENDBRANCH  19  20
ENDBRANCH  18  19
ENDBRANCH   3  18
TORSDOF 7
ENDMDL
MODEL 8
REMARK VINA RESULT:      -7.4      3.837      6.790
REMARK  Name = 
REMARK  8 active torsions:
REMARK  status: ('A' for Active; 'I' for Inactive)
REMARK    1  A    between atoms: C_1  and  C_2
REMARK    2  A    between atoms: C_2  and  C_3
REMARK    3  A    between atoms: C_3  and  C_4
REMARK    4  A    between atoms: C_13  and  C_14
REMARK    5  A    between atoms: N_16  and  C_17
REMARK    6  A    between atoms: C_17  and  C_18
REMARK    7  A    between atoms: C_18  and  O_19
REMARK    8  A    between atoms: O_19  and  C_20
REMARK                            x       y       z     vdW  Elec       q    Type
REMARK                         _______ _______ _______ _____ _____    ______ ____
ROOT
ATOM      1  C   UNL     1       5.439   6.507  16.993  0.00  0.00    +0.000 C 
ATOM      2  O   UNL     1       5.847   6.237  15.864  0.00  0.00    +0.000 OA
ATOM      3  N   UNL     1       6.255   7.153  17.908  0.00  0.00    +0.000 N 
ATOM      4  H   UNL     1       5.887   7.379  18.821  0.00  0.00    +0.000 HD
ENDROOT
BRANCH   1  14
ATOM      5  C   UNL     1       3.021   7.041  17.768  0.00  0.00    +0.000 A 
ATOM      6  N   UNL     1       1.904   6.314  18.101  0.00  0.00    +0.000 NA
ATOM      7  C   UNL     1       2.259   5.057  18.037  0.00  0.00    +0.000 A 
ATOM      8  C   UNL     1       1.511   3.878  18.315  0.00  0.00    +0.000 A 
ATOM      9  C   UNL     1       2.096   2.671  18.208  0.00  0.00    +0.000 A 
ATOM     10  C   UNL     1       3.479   2.561  17.805  0.00  0.00    +0.000 A 
ATOM     11  F   UNL     1       4.029   1.332  17.726  0.00  0.00    +0.000 F 
ATOM     12  C   UNL     1       4.192   3.661  17.520  0.00  0.00    +0.000 A 
ATOM     13  N   UNL     1       3.587   4.918  17.643  0.00  0.00    +0.000 N 
ATOM     14  C   UNL     1       4.085   6.205  17.420  0.00  0.00    +0.000 A 
BRANCH   5  15
ATOM     15  C   UNL     1       2.944   8.531  17.851  0.00  0.00    +0.000 C 
BRANCH  15  17
ATOM     16  C   UNL     1       1.496  10.506  18.438  0.00  0.00    +0.000 C 
ATOM     17  C   UNL     1       1.509   9.065  17.954  0.00  0.00    +0.000 C 
ENDBRANCH  15  17
ENDBRANCH   5  15
ENDBRANCH   1  14
BRANCH   3  18
ATOM     18  C   UNL     1       7.661   7.449  17.618  0.00  0.00    +0.000 C 
BRANCH  18  19
ATOM     19  C   UNL     1       8.016   8.929  17.805  0.00  0.00    +0.000 C 
BRANCH  19  20
ATOM     20  O   UNL     1       8.921   9.096  18.906  0.00  0.00    +0.000 OA
BRANCH  20  21
ATOM     21  C   UNL     1       9.381  10.375  19.111  0.00  0.00    +0.000 A 
ATOM     22  C   UNL     1       9.854  11.226  18.108  0.00  0.00    +0.000 A 
ATOM     23  C   UNL     1      10.332  12.501  18.422  0.00  0.00    +0.000 A 
ATOM     24  C   UNL     1      10.329  12.934  19.744  0.00  0.00    +0.000 A 
ATOM     25 BR   UNL     1      11.012  14.644  20.166  0.00  0.00    +0.000 Br
ATOM     26  C   UNL     1       9.829  12.113  20.752  0.00  0.00    +0.000 A 
ATOM     27  C   UNL     1       9.358  10.831  20.433  0.00  0.00    +0.000 A 
ENDBRANCH  20  21
ENDBRANCH  19  20
ENDBRANCH  18  19
ENDBRANCH   3  18
TORSDOF 7
ENDMDL
MODEL 9
REMARK VINA RESULT:      -7.4      4.103      6.795
REMARK  Name = 
REMARK  8 active torsions:
REMARK  status: ('A' for Active; 'I' for Inactive)
REMARK    1  A    between atoms: C_1  and  C_2
REMARK    2  A    between atoms: C_2  and  C_3
REMARK    3  A    between atoms: C_3  and  C_4
REMARK    4  A    between atoms: C_13  and  C_14
REMARK    5  A    between atoms: N_16  and  C_17
REMARK    6  A    between atoms: C_17  and  C_18
REMARK    7  A    between atoms: C_18  and  O_19
REMARK    8  A    between atoms: O_19  and  C_20
REMARK                            x       y       z     vdW  Elec       q    Type
REMARK                         _______ _______ _______ _____ _____    ______ ____
ROOT
ATOM      1  C   UNL     1       5.749   5.832  18.623  0.00  0.00    +0.000 C 
ATOM      2  O   UNL     1       6.343   5.314  19.568  0.00  0.00    +0.000 OA
ATOM      3  N   UNL     1       6.413   6.670  17.740  0.00  0.00    +0.000 N 
ATOM      4  H   UNL     1       5.906   7.065  16.962  0.00  0.00    +0.000 HD
ENDROOT
BRANCH   1  14
ATOM      5  C   UNL     1       3.278   6.443  18.122  0.00  0.00    +0.000 A 
ATOM      6  N   UNL     1       2.113   5.752  17.896  0.00  0.00    +0.000 NA
ATOM      7  C   UNL     1       2.409   4.487  18.046  0.00  0.00    +0.000 A 
ATOM      8  C   UNL     1       1.577   3.335  17.962  0.00  0.00    +0.000 A 
ATOM      9  C   UNL     1       2.097   2.113  18.184  0.00  0.00    +0.000 A 
ATOM     10  C   UNL     1       3.499   1.962  18.500  0.00  0.00    +0.000 A 
ATOM     11  F   UNL     1       3.973   0.720  18.730  0.00  0.00    +0.000 F 
ATOM     12  C   UNL     1       4.300   3.035  18.564  0.00  0.00    +0.000 A 
ATOM     13  N   UNL     1       3.756   4.307  18.344  0.00  0.00    +0.000 N 
ATOM     14  C   UNL     1       4.348   5.574  18.353  0.00  0.00    +0.000 A 
BRANCH   5  15
ATOM     15  C   UNL     1       3.225   7.937  18.116  0.00  0.00    +0.000 C 
BRANCH  15  17
ATOM     16  C   UNL     1       1.315   9.415  18.831  0.00  0.00    +0.000 C 
ATOM     17  C   UNL     1       1.848   8.499  17.741  0.00  0.00    +0.000 C 
ENDBRANCH  15  17
ENDBRANCH   5  15
ENDBRANCH   1  14
BRANCH   3  18
ATOM     18  C   UNL     1       7.812   7.059  17.945  0.00  0.00    +0.000 C 
BRANCH  18  19
ATOM     19  C   UNL     1       8.066   8.550  17.696  0.00  0.00    +0.000 C 
BRANCH  19  20
ATOM     20  O   UNL     1       8.706   9.150  18.830  0.00  0.00    +0.000 OA
BRANCH  20  21
ATOM     21  C   UNL     1       9.124  10.449  18.662  0.00  0.00    +0.000 A 
ATOM     22  C   UNL     1       8.572  11.356  17.752  0.00  0.00    +0.000 A 
ATOM     23  C   UNL     1       9.089  12.649  17.632  0.00  0.00    +0.000 A 
ATOM     24  C   UNL     1      10.156  13.044  18.432  0.00  0.00    +0.000 A 
ATOM     25 BR   UNL     1      10.874  14.780  18.237  0.00  0.00    +0.000 Br
ATOM     26  C   UNL     1      10.696  12.164  19.369  0.00  0.00    +0.000 A 
ATOM     27  C   UNL     1      10.179  10.866  19.479  0.00  0.00    +0.000 A 
ENDBRANCH  20  21
ENDBRANCH  19  20
ENDBRANCH  18  19
ENDBRANCH   3  18
TORSDOF 7
ENDMDL
