MODEL 1
REMARK VINA RESULT:      -7.2      0.000      0.000
REMARK  Name = 
REMARK  8 active torsions:
REMARK  status: ('A' for Active; 'I' for Inactive)
REMARK    1  A    between atoms: C_1  and  O_2
REMARK    2  A    between atoms: O_2  and  C_3
REMARK    3  A    between atoms: C_7  and  C_8
REMARK    4  A    between atoms: C_8  and  N_9
REMARK    5  A    between atoms: C_10  and  C_12
REMARK    6  A    between atoms: C_12  and  C_13
REMARK    7  A    between atoms: C_13  and  N_14
REMARK    8  A    between atoms: C_15  and  C_16
REMARK                            x       y       z     vdW  Elec       q    Type
REMARK                         _______ _______ _______ _____ _____    ______ ____
ROOT
ATOM      1  C   UNL     1       3.406   6.436  18.216  0.00  0.00    +0.000 C 
ATOM      2  C   UNL     1       2.561   7.502  17.535  0.00  0.00    +0.000 C 
ATOM      3  C   UNL     1       2.699   7.510  19.021  0.00  0.00    +0.000 C 
ENDROOT
BRANCH   1   8
ATOM      4  C   UNL     1       1.626   3.274  19.526  0.00  0.00    +0.000 A 
ATOM      5  C   UNL     1       1.802   2.403  18.450  0.00  0.00    +0.000 A 
ATOM      6  C   UNL     1       2.508   2.812  17.320  0.00  0.00    +0.000 A 
ATOM      7  C   UNL     1       3.035   4.101  17.264  0.00  0.00    +0.000 A 
ATOM      8  C   UNL     1       2.870   5.011  18.323  0.00  0.00    +0.000 A 
ATOM      9  C   UNL     1       2.151   4.568  19.451  0.00  0.00    +0.000 A 
BRANCH   4  11
ATOM     10  C   UNL     1       1.609   2.643  21.820  0.00  0.00    +0.000 C 
ATOM     11  O   UNL     1       0.930   2.741  20.576  0.00  0.00    +0.000 OA
ENDBRANCH   4  11
ENDBRANCH   1   8
BRANCH   1  12
ATOM     12  N   UNL     1       4.813   6.471  17.914  0.00  0.00    +0.000 N 
ATOM     13  C   UNL     1       5.796   5.813  18.628  0.00  0.00    +0.000 C 
ATOM     14  O   UNL     1       5.625   5.237  19.696  0.00  0.00    +0.000 OA
ATOM     15  H   UNL     1       5.050   6.781  16.978  0.00  0.00    +0.000 HD
BRANCH  13  16
ATOM     16  C   UNL     1       7.157   5.942  17.977  0.00  0.00    +0.000 C 
BRANCH  16  17
ATOM     17  C   UNL     1       7.637   4.596  17.452  0.00  0.00    +0.000 C 
BRANCH  17  18
ATOM     18  N   UNL     1       6.808   4.085  16.371  0.00  0.00    +0.000 N 
ATOM     19  C   UNL     1       6.900   4.579  15.089  0.00  0.00    +0.000 C 
ATOM     20  C   UNL     1       5.891   4.010  14.128  0.00  0.00    +0.000 C 
ATOM     21  O   UNL     1       7.742   5.395  14.734  0.00  0.00    +0.000 OA
ATOM     22  H   UNL     1       6.006   3.522  16.622  0.00  0.00    +0.000 HD
ENDBRANCH  17  18
ENDBRANCH  16  17
ENDBRANCH  13  16
ENDBRANCH   1  12
TORSDOF 6
ENDMDL
MODEL 2
REMARK VINA RESULT:      -7.2      2.323      3.958
REMARK  Name = 
REMARK  8 active torsions:
REMARK  status: ('A' for Active; 'I' for Inactive)
REMARK    1  A    between atoms: C_1  and  O_2
REMARK    2  A    between atoms: O_2  and  C_3
REMARK    3  A    between atoms: C_7  and  C_8
REMARK    4  A    between atoms: C_8  and  N_9
REMARK    5  A    between atoms: C_10  and  C_12
REMARK    6  A    between atoms: C_12  and  C_13
REMARK    7  A    between atoms: C_13  and  N_14
REMARK    8  A    between atoms: C_15  and  C_16
REMARK                            x       y       z     vdW  Elec       q    Type
REMARK                         _______ _______ _______ _____ _____    ______ ____
ROOT
ATOM      1  C   UNL     1       6.842   6.010  17.528  0.00  0.00    +0.000 C 
ATOM      2  C   UNL     1       7.782   7.001  18.199  0.00  0.00    +0.000 C 
ATOM      3  C   UNL     1       7.822   5.563  18.597  0.00  0.00    +0.000 C 
ENDROOT
BRANCH   1   8
ATOM      4  C   UNL     1       3.449   5.095  19.120  0.00  0.00    +0.000 A 
ATOM      5  C   UNL     1       2.639   6.122  18.633  0.00  0.00    +0.000 A 
ATOM      6  C   UNL     1       3.165   7.089  17.778  0.00  0.00    +0.000 A 
ATOM      7  C   UNL     1       4.510   7.033  17.415  0.00  0.00    +0.000 A 
ATOM      8  C   UNL     1       5.360   6.020  17.894  0.00  0.00    +0.000 A 
ATOM      9  C   UNL     1       4.798   5.057  18.756  0.00  0.00    +0.000 A 
BRANCH   4  11
ATOM     10  C   UNL     1       2.086   4.740  21.037  0.00  0.00    +0.000 C 
ATOM     11  O   UNL     1       2.803   4.205  19.934  0.00  0.00    +0.000 OA
ENDBRANCH   4  11
ENDBRANCH   1   8
BRANCH   1  12
ATOM     12  N   UNL     1       7.058   5.803  16.121  0.00  0.00    +0.000 N 
ATOM     13  C   UNL     1       6.759   4.643  15.433  0.00  0.00    +0.000 C 
ATOM     14  O   UNL     1       6.411   3.587  15.949  0.00  0.00    +0.000 OA
ATOM     15  H   UNL     1       7.191   6.645  15.572  0.00  0.00    +0.000 HD
BRANCH  13  16
ATOM     16  C   UNL     1       6.980   4.790  13.942  0.00  0.00    +0.000 C 
BRANCH  16  17
ATOM     17  C   UNL     1       5.904   4.050  13.158  0.00  0.00    +0.000 C 
BRANCH  17  18
ATOM     18  N   UNL     1       6.422   2.895  12.443  0.00  0.00    +0.000 N 
ATOM     19  C   UNL     1       5.647   2.183  11.556  0.00  0.00    +0.000 C 
ATOM     20  C   UNL     1       6.311   0.955  10.993  0.00  0.00    +0.000 C 
ATOM     21  O   UNL     1       4.516   2.516  11.220  0.00  0.00    +0.000 OA
ATOM     22  H   UNL     1       7.285   2.486  12.775  0.00  0.00    +0.000 HD
ENDBRANCH  17  18
ENDBRANCH  16  17
ENDBRANCH  13  16
ENDBRANCH   1  12
TORSDOF 6
ENDMDL
MODEL 3
REMARK VINA RESULT:      -7.0      2.250      3.794
REMARK  Name = 
REMARK  8 active torsions:
REMARK  status: ('A' for Active; 'I' for Inactive)
REMARK    1  A    between atoms: C_1  and  O_2
REMARK    2  A    between atoms: O_2  and  C_3
REMARK    3  A    between atoms: C_7  and  C_8
REMARK    4  A    between atoms: C_8  and  N_9
REMARK    5  A    between atoms: C_10  and  C_12
REMARK    6  A    between atoms: C_12  and  C_13
REMARK    7  A    between atoms: C_13  and  N_14
REMARK    8  A    between atoms: C_15  and  C_16
REMARK                            x       y       z     vdW  Elec       q    Type
REMARK                         _______ _______ _______ _____ _____    ______ ____
ROOT
ATOM      1  C   UNL     1       6.444   6.587  17.287  0.00  0.00    +0.000 C 
ATOM      2  C   UNL     1       7.227   7.840  17.650  0.00  0.00    +0.000 C 
ATOM      3  C   UNL     1       7.619   6.530  18.247  0.00  0.00    +0.000 C 
ENDROOT
BRANCH   1   8
ATOM      4  C   UNL     1       3.521   5.256  19.424  0.00  0.00    +0.000 A 
ATOM      5  C   UNL     1       2.483   6.091  19.006  0.00  0.00    +0.000 A 
ATOM      6  C   UNL     1       2.706   7.057  18.027  0.00  0.00    +0.000 A 
ATOM      7  C   UNL     1       3.976   7.195  17.468  0.00  0.00    +0.000 A 
ATOM      8  C   UNL     1       5.049   6.381  17.871  0.00  0.00    +0.000 A 
ATOM      9  C   UNL     1       4.792   5.413  18.863  0.00  0.00    +0.000 A 
BRANCH   4  11
ATOM     10  C   UNL     1       2.644   3.101  19.920  0.00  0.00    +0.000 C 
ATOM     11  O   UNL     1       3.162   4.342  20.377  0.00  0.00    +0.000 OA
ENDBRANCH   4  11
ENDBRANCH   1   8
BRANCH   1  12
ATOM     12  N   UNL     1       6.528   6.179  15.910  0.00  0.00    +0.000 N 
ATOM     13  C   UNL     1       7.115   5.012  15.461  0.00  0.00    +0.000 C 
ATOM     14  O   UNL     1       7.772   4.242  16.152  0.00  0.00    +0.000 OA
ATOM     15  H   UNL     1       5.892   6.650  15.276  0.00  0.00    +0.000 HD
BRANCH  13  16
ATOM     16  C   UNL     1       6.920   4.811  13.973  0.00  0.00    +0.000 C 
BRANCH  16  17
ATOM     17  C   UNL     1       6.106   3.554  13.696  0.00  0.00    +0.000 C 
BRANCH  17  18
ATOM     18  N   UNL     1       5.010   3.786  12.769  0.00  0.00    +0.000 N 
ATOM     19  C   UNL     1       4.809   2.984  11.667  0.00  0.00    +0.000 C 
ATOM     20  C   UNL     1       3.696   3.438  10.761  0.00  0.00    +0.000 C 
ATOM     21  O   UNL     1       5.456   1.969  11.438  0.00  0.00    +0.000 OA
ATOM     22  H   UNL     1       4.534   4.677  12.818  0.00  0.00    +0.000 HD
ENDBRANCH  17  18
ENDBRANCH  16  17
ENDBRANCH  13  16
ENDBRANCH   1  12
TORSDOF 6
ENDMDL
MODEL 4
REMARK VINA RESULT:      -6.8      2.240      6.829
REMARK  Name = 
REMARK  8 active torsions:
REMARK  status: ('A' for Active; 'I' for Inactive)
REMARK    1  A    between atoms: C_1  and  O_2
REMARK    2  A    between atoms: O_2  and  C_3
REMARK    3  A    between atoms: C_7  and  C_8
REMARK    4  A    between atoms: C_8  and  N_9
REMARK    5  A    between atoms: C_10  and  C_12
REMARK    6  A    between atoms: C_12  and  C_13
REMARK    7  A    between atoms: C_13  and  N_14
REMARK    8  A    between atoms: C_15  and  C_16
REMARK                            x       y       z     vdW  Elec       q    Type
REMARK                         _______ _______ _______ _____ _____    ______ ____
ROOT
ATOM      1  C   UNL     1       6.379   4.529  16.290  0.00  0.00    +0.000 C 
ATOM      2  C   UNL     1       7.559   4.527  17.251  0.00  0.00    +0.000 C 
ATOM      3  C   UNL     1       6.825   5.800  16.988  0.00  0.00    +0.000 C 
ENDROOT
BRANCH   1   8
ATOM      4  C   UNL     1       6.103   3.494  12.584  0.00  0.00    +0.000 A 
ATOM      5  C   UNL     1       7.063   4.323  12.003  0.00  0.00    +0.000 A 
ATOM      6  C   UNL     1       7.816   5.192  12.792  0.00  0.00    +0.000 A 
ATOM      7  C   UNL     1       7.602   5.235  14.169  0.00  0.00    +0.000 A 
ATOM      8  C   UNL     1       6.636   4.423  14.789  0.00  0.00    +0.000 A 
ATOM      9  C   UNL     1       5.891   3.556  13.965  0.00  0.00    +0.000 A 
BRANCH   4  11
ATOM     10  C   UNL     1       4.170   3.106  11.253  0.00  0.00    +0.000 C 
ATOM     11  O   UNL     1       5.449   2.680  11.699  0.00  0.00    +0.000 OA
ENDBRANCH   4  11
ENDBRANCH   1   8
BRANCH   1  12
ATOM     12  N   UNL     1       5.238   3.757  16.706  0.00  0.00    +0.000 N 
ATOM     13  C   UNL     1       4.007   4.281  17.050  0.00  0.00    +0.000 C 
ATOM     14  O   UNL     1       3.763   5.473  17.192  0.00  0.00    +0.000 OA
ATOM     15  H   UNL     1       5.273   2.770  16.479  0.00  0.00    +0.000 HD
BRANCH  13  16
ATOM     16  C   UNL     1       2.979   3.200  17.312  0.00  0.00    +0.000 C 
BRANCH  16  17
ATOM     17  C   UNL     1       1.816   3.744  18.131  0.00  0.00    +0.000 C 
BRANCH  17  18
ATOM     18  N   UNL     1       1.607   3.011  19.370  0.00  0.00    +0.000 N 
ATOM     19  C   UNL     1       1.471   3.654  20.579  0.00  0.00    +0.000 C 
ATOM     20  C   UNL     1       1.372   2.734  21.766  0.00  0.00    +0.000 C 
ATOM     21  O   UNL     1       1.408   4.873  20.699  0.00  0.00    +0.000 OA
ATOM     22  H   UNL     1       1.790   2.017  19.363  0.00  0.00    +0.000 HD
ENDBRANCH  17  18
ENDBRANCH  16  17
ENDBRANCH  13  16
ENDBRANCH   1  12
TORSDOF 6
ENDMDL
MODEL 5
REMARK VINA RESULT:      -6.7      2.465      3.372
REMARK  Name = 
REMARK  8 active torsions:
REMARK  status: ('A' for Active; 'I' for Inactive)
REMARK    1  A    between atoms: C_1  and  O_2
REMARK    2  A    between atoms: O_2  and  C_3
REMARK    3  A    between atoms: C_7  and  C_8
REMARK    4  A    between atoms: C_8  and  N_9
REMARK    5  A    between atoms: C_10  and  C_12
REMARK    6  A    between atoms: C_12  and  C_13
REMARK    7  A    between atoms: C_13  and  N_14
REMARK    8  A    between atoms: C_15  and  C_16
REMARK                            x       y       z     vdW  Elec       q    Type
REMARK                         _______ _______ _______ _____ _____    ______ ____
ROOT
ATOM      1  C   UNL     1       5.067   6.023  16.989  0.00  0.00    +0.000 C 
ATOM      2  C   UNL     1       4.316   7.343  17.086  0.00  0.00    +0.000 C 
ATOM      3  C   UNL     1       5.601   7.172  17.825  0.00  0.00    +0.000 C 
ENDROOT
BRANCH   1   8
ATOM      4  C   UNL     1       2.901   2.990  17.982  0.00  0.00    +0.000 A 
ATOM      5  C   UNL     1       3.626   2.486  19.063  0.00  0.00    +0.000 A 
ATOM      6  C   UNL     1       4.787   3.125  19.492  0.00  0.00    +0.000 A 
ATOM      7  C   UNL     1       5.230   4.271  18.832  0.00  0.00    +0.000 A 
ATOM      8  C   UNL     1       4.533   4.802  17.732  0.00  0.00    +0.000 A 
ATOM      9  C   UNL     1       3.363   4.132  17.322  0.00  0.00    +0.000 A 
BRANCH   4  11
ATOM     10  C   UNL     1       0.767   2.197  18.675  0.00  0.00    +0.000 C 
ATOM     11  O   UNL     1       1.774   2.276  17.676  0.00  0.00    +0.000 OA
ENDBRANCH   4  11
ENDBRANCH   1   8
BRANCH   1  12
ATOM     12  N   UNL     1       5.576   5.692  15.684  0.00  0.00    +0.000 N 
ATOM     13  C   UNL     1       6.796   5.094  15.435  0.00  0.00    +0.000 C 
ATOM     14  O   UNL     1       7.671   4.903  16.271  0.00  0.00    +0.000 OA
ATOM     15  H   UNL     1       4.885   5.660  14.942  0.00  0.00    +0.000 HD
BRANCH  13  16
ATOM     16  C   UNL     1       6.978   4.757  13.970  0.00  0.00    +0.000 C 
BRANCH  16  17
ATOM     17  C   UNL     1       5.840   3.877  13.470  0.00  0.00    +0.000 C 
BRANCH  17  18
ATOM     18  N   UNL     1       6.301   2.783  12.629  0.00  0.00    +0.000 N 
ATOM     19  C   UNL     1       5.522   2.268  11.617  0.00  0.00    +0.000 C 
ATOM     20  C   UNL     1       6.114   1.070  10.924  0.00  0.00    +0.000 C 
ATOM     21  O   UNL     1       4.446   2.745  11.276  0.00  0.00    +0.000 OA
ATOM     22  H   UNL     1       7.105   2.257  12.943  0.00  0.00    +0.000 HD
ENDBRANCH  17  18
ENDBRANCH  16  17
ENDBRANCH  13  16
ENDBRANCH   1  12
TORSDOF 6
ENDMDL
MODEL 6
REMARK VINA RESULT:      -6.7      2.271      4.168
REMARK  Name = 
REMARK  8 active torsions:
REMARK  status: ('A' for Active; 'I' for Inactive)
REMARK    1  A    between atoms: C_1  and  O_2
REMARK    2  A    between atoms: O_2  and  C_3
REMARK    3  A    between atoms: C_7  and  C_8
REMARK    4  A    between atoms: C_8  and  N_9
REMARK    5  A    between atoms: C_10  and  C_12
REMARK    6  A    between atoms: C_12  and  C_13
REMARK    7  A    between atoms: C_13  and  N_14
REMARK    8  A    between atoms: C_15  and  C_16
REMARK                            x       y       z     vdW  Elec       q    Type
REMARK                         _______ _______ _______ _____ _____    ______ ____
ROOT
ATOM      1  C   UNL     1       2.908   5.457  18.745  0.00  0.00    +0.000 C 
ATOM      2  C   UNL     1       2.279   4.130  19.143  0.00  0.00    +0.000 C 
ATOM      3  C   UNL     1       2.075   4.657  17.761  0.00  0.00    +0.000 C 
ENDROOT
BRANCH   1   8
ATOM      4  C   UNL     1       1.549   9.063  18.935  0.00  0.00    +0.000 A 
ATOM      5  C   UNL     1       1.109   9.113  20.259  0.00  0.00    +0.000 A 
ATOM      6  C   UNL     1       1.267   8.011  21.097  0.00  0.00    +0.000 A 
ATOM      7  C   UNL     1       1.864   6.850  20.606  0.00  0.00    +0.000 A 
ATOM      8  C   UNL     1       2.310   6.757  19.277  0.00  0.00    +0.000 A 
ATOM      9  C   UNL     1       2.135   7.888  18.454  0.00  0.00    +0.000 A 
BRANCH   4  11
ATOM     10  C   UNL     1       0.369  11.119  18.728  0.00  0.00    +0.000 C 
ATOM     11  O   UNL     1       1.347  10.217  18.229  0.00  0.00    +0.000 OA
ENDBRANCH   4  11
ENDBRANCH   1   8
BRANCH   1  12
ATOM     12  N   UNL     1       4.347   5.483  18.726  0.00  0.00    +0.000 N 
ATOM     13  C   UNL     1       5.119   6.026  17.717  0.00  0.00    +0.000 C 
ATOM     14  O   UNL     1       4.692   6.422  16.639  0.00  0.00    +0.000 OA
ATOM     15  H   UNL     1       4.797   5.329  19.621  0.00  0.00    +0.000 HD
BRANCH  13  16
ATOM     16  C   UNL     1       6.594   6.015  18.059  0.00  0.00    +0.000 C 
BRANCH  16  17
ATOM     17  C   UNL     1       7.258   4.741  17.554  0.00  0.00    +0.000 C 
BRANCH  17  18
ATOM     18  N   UNL     1       6.587   4.177  16.393  0.00  0.00    +0.000 N 
ATOM     19  C   UNL     1       6.900   4.570  15.111  0.00  0.00    +0.000 C 
ATOM     20  C   UNL     1       6.030   3.964  14.043  0.00  0.00    +0.000 C 
ATOM     21  O   UNL     1       7.822   5.330  14.839  0.00  0.00    +0.000 OA
ATOM     22  H   UNL     1       5.732   3.661  16.551  0.00  0.00    +0.000 HD
ENDBRANCH  17  18
ENDBRANCH  16  17
ENDBRANCH  13  16
ENDBRANCH   1  12
TORSDOF 6
ENDMDL
MODEL 7
REMARK VINA RESULT:      -6.7      2.373      3.952
REMARK  Name = 
REMARK  8 active torsions:
REMARK  status: ('A' for Active; 'I' for Inactive)
REMARK    1  A    between atoms: C_1  and  O_2
REMARK    2  A    between atoms: O_2  and  C_3
REMARK    3  A    between atoms: C_7  and  C_8
REMARK    4  A    between atoms: C_8  and  N_9
REMARK    5  A    between atoms: C_10  and  C_12
REMARK    6  A    between atoms: C_12  and  C_13
REMARK    7  A    between atoms: C_13  and  N_14
REMARK    8  A    between atoms: C_15  and  C_16
REMARK                            x       y       z     vdW  Elec       q    Type
REMARK                         _______ _______ _______ _____ _____    ______ ____
ROOT
ATOM      1  C   UNL     1       2.789   5.618  19.782  0.00  0.00    +0.000 C 
ATOM      2  C   UNL     1       2.142   4.821  20.905  0.00  0.00    +0.000 C 
ATOM      3  C   UNL     1       1.900   4.424  19.486  0.00  0.00    +0.000 C 
ENDROOT
BRANCH   1   8
ATOM      4  C   UNL     1       1.189   9.115  20.095  0.00  0.00    +0.000 A 
ATOM      5  C   UNL     1       1.338   9.594  18.793  0.00  0.00    +0.000 A 
ATOM      6  C   UNL     1       1.922   8.797  17.810  0.00  0.00    +0.000 A 
ATOM      7  C   UNL     1       2.366   7.515  18.134  0.00  0.00    +0.000 A 
ATOM      8  C   UNL     1       2.244   7.002  19.437  0.00  0.00    +0.000 A 
ATOM      9  C   UNL     1       1.650   7.832  20.408  0.00  0.00    +0.000 A 
BRANCH   4  11
ATOM     10  C   UNL     1       0.465   9.589  22.311  0.00  0.00    +0.000 C 
ATOM     11  O   UNL     1       0.587   9.992  20.955  0.00  0.00    +0.000 OA
ENDBRANCH   4  11
ENDBRANCH   1   8
BRANCH   1  12
ATOM     12  N   UNL     1       4.226   5.566  19.731  0.00  0.00    +0.000 N 
ATOM     13  C   UNL     1       4.965   4.974  18.724  0.00  0.00    +0.000 C 
ATOM     14  O   UNL     1       4.502   4.286  17.822  0.00  0.00    +0.000 OA
ATOM     15  H   UNL     1       4.707   6.227  20.330  0.00  0.00    +0.000 HD
BRANCH  13  16
ATOM     16  C   UNL     1       6.451   5.207  18.895  0.00  0.00    +0.000 C 
BRANCH  16  17
ATOM     17  C   UNL     1       7.023   5.959  17.701  0.00  0.00    +0.000 C 
BRANCH  17  18
ATOM     18  N   UNL     1       7.189   5.114  16.529  0.00  0.00    +0.000 N 
ATOM     19  C   UNL     1       6.450   5.308  15.384  0.00  0.00    +0.000 C 
ATOM     20  C   UNL     1       6.675   4.273  14.314  0.00  0.00    +0.000 C 
ATOM     21  O   UNL     1       5.684   6.251  15.219  0.00  0.00    +0.000 OA
ATOM     22  H   UNL     1       7.691   4.244  16.645  0.00  0.00    +0.000 HD
ENDBRANCH  17  18
ENDBRANCH  16  17
ENDBRANCH  13  16
ENDBRANCH   1  12
TORSDOF 6
ENDMDL
MODEL 8
REMARK VINA RESULT:      -6.6      2.209      2.877
REMARK  Name = 
REMARK  8 active torsions:
REMARK  status: ('A' for Active; 'I' for Inactive)
REMARK    1  A    between atoms: C_1  and  O_2
REMARK    2  A    between atoms: O_2  and  C_3
REMARK    3  A    between atoms: C_7  and  C_8
REMARK    4  A    between atoms: C_8  and  N_9
REMARK    5  A    between atoms: C_10  and  C_12
REMARK    6  A    between atoms: C_12  and  C_13
REMARK    7  A    between atoms: C_13  and  N_14
REMARK    8  A    between atoms: C_15  and  C_16
REMARK                            x       y       z     vdW  Elec       q    Type
REMARK                         _______ _______ _______ _____ _____    ______ ____
ROOT
ATOM      1  C   UNL     1       4.700   5.784  17.138  0.00  0.00    +0.000 C 
ATOM      2  C   UNL     1       3.905   7.081  17.154  0.00  0.00    +0.000 C 
ATOM      3  C   UNL     1       5.129   6.958  17.999  0.00  0.00    +0.000 C 
ENDROOT
BRANCH   1   8
ATOM      4  C   UNL     1       3.160   3.487  19.827  0.00  0.00    +0.000 A 
ATOM      5  C   UNL     1       3.022   2.295  19.113  0.00  0.00    +0.000 A 
ATOM      6  C   UNL     1       3.442   2.215  17.787  0.00  0.00    +0.000 A 
ATOM      7  C   UNL     1       3.997   3.335  17.169  0.00  0.00    +0.000 A 
ATOM      8  C   UNL     1       4.142   4.555  17.851  0.00  0.00    +0.000 A 
ATOM      9  C   UNL     1       3.707   4.605  19.191  0.00  0.00    +0.000 A 
BRANCH   4  11
ATOM     10  C   UNL     1       1.446   2.844  21.346  0.00  0.00    +0.000 C 
ATOM     11  O   UNL     1       2.723   3.424  21.122  0.00  0.00    +0.000 OA
ENDBRANCH   4  11
ENDBRANCH   1   8
BRANCH   1  12
ATOM     12  N   UNL     1       5.324   5.454  15.884  0.00  0.00    +0.000 N 
ATOM     13  C   UNL     1       6.678   5.250  15.699  0.00  0.00    +0.000 C 
ATOM     14  O   UNL     1       7.544   5.468  16.538  0.00  0.00    +0.000 OA
ATOM     15  H   UNL     1       4.701   5.099  15.167  0.00  0.00    +0.000 HD
BRANCH  13  16
ATOM     16  C   UNL     1       7.000   4.787  14.294  0.00  0.00    +0.000 C 
BRANCH  16  17
ATOM     17  C   UNL     1       5.846   3.982  13.710  0.00  0.00    +0.000 C 
BRANCH  17  18
ATOM     18  N   UNL     1       6.293   2.900  12.848  0.00  0.00    +0.000 N 
ATOM     19  C   UNL     1       5.550   2.479  11.767  0.00  0.00    +0.000 C 
ATOM     20  C   UNL     1       6.112   1.278  11.055  0.00  0.00    +0.000 C 
ATOM     21  O   UNL     1       4.527   3.036  11.386  0.00  0.00    +0.000 OA
ATOM     22  H   UNL     1       7.043   2.312  13.184  0.00  0.00    +0.000 HD
ENDBRANCH  17  18
ENDBRANCH  16  17
ENDBRANCH  13  16
ENDBRANCH   1  12
TORSDOF 6
ENDMDL
MODEL 9
REMARK VINA RESULT:      -6.6      2.288      6.498
REMARK  Name = 
REMARK  8 active torsions:
REMARK  status: ('A' for Active; 'I' for Inactive)
REMARK    1  A    between atoms: C_1  and  O_2
REMARK    2  A    between atoms: O_2  and  C_3
REMARK    3  A    between atoms: C_7  and  C_8
REMARK    4  A    between atoms: C_8  and  N_9
REMARK    5  A    between atoms: C_10  and  C_12
REMARK    6  A    between atoms: C_12  and  C_13
REMARK    7  A    between atoms: C_13  and  N_14
REMARK    8  A    between atoms: C_15  and  C_16
REMARK                            x       y       z     vdW  Elec       q    Type
REMARK                         _______ _______ _______ _____ _____    ______ ____
ROOT
ATOM      1  C   UNL     1       5.567   4.971  16.168  0.00  0.00    +0.000 C 
ATOM      2  C   UNL     1       5.753   5.037  14.659  0.00  0.00    +0.000 C 
ATOM      3  C   UNL     1       6.100   3.782  15.390  0.00  0.00    +0.000 C 
ENDROOT
BRANCH   1   8
ATOM      4  C   UNL     1       7.676   7.772  17.777  0.00  0.00    +0.000 A 
ATOM      5  C   UNL     1       8.280   7.081  18.829  0.00  0.00    +0.000 A 
ATOM      6  C   UNL     1       8.039   5.721  19.009  0.00  0.00    +0.000 A 
ATOM      7  C   UNL     1       7.181   5.049  18.138  0.00  0.00    +0.000 A 
ATOM      8  C   UNL     1       6.546   5.713  17.075  0.00  0.00    +0.000 A 
ATOM      9  C   UNL     1       6.810   7.089  16.919  0.00  0.00    +0.000 A 
BRANCH   4  11
ATOM     10  C   UNL     1       8.819   9.617  18.752  0.00  0.00    +0.000 C 
ATOM     11  O   UNL     1       8.012   9.097  17.705  0.00  0.00    +0.000 OA
ENDBRANCH   4  11
ENDBRANCH   1   8
BRANCH   1  12
ATOM     12  N   UNL     1       4.208   5.068  16.632  0.00  0.00    +0.000 N 
ATOM     13  C   UNL     1       3.554   4.110  17.382  0.00  0.00    +0.000 C 
ATOM     14  O   UNL     1       3.987   2.989  17.625  0.00  0.00    +0.000 OA
ATOM     15  H   UNL     1       3.811   6.001  16.626  0.00  0.00    +0.000 HD
BRANCH  13  16
ATOM     16  C   UNL     1       2.181   4.569  17.823  0.00  0.00    +0.000 C 
BRANCH  16  17
ATOM     17  C   UNL     1       2.236   5.189  19.213  0.00  0.00    +0.000 C 
BRANCH  17  18
ATOM     18  N   UNL     1       1.556   4.385  20.216  0.00  0.00    +0.000 N 
ATOM     19  C   UNL     1       2.193   3.358  20.877  0.00  0.00    +0.000 C 
ATOM     20  C   UNL     1       1.305   2.566  21.799  0.00  0.00    +0.000 C 
ATOM     21  O   UNL     1       3.387   3.108  20.758  0.00  0.00    +0.000 OA
ATOM     22  H   UNL     1       0.548   4.443  20.259  0.00  0.00    +0.000 HD
ENDBRANCH  17  18
ENDBRANCH  16  17
ENDBRANCH  13  16
ENDBRANCH   1  12
TORSDOF 6
ENDMDL
