MODEL 1
REMARK VINA RESULT:      -6.7      0.000      0.000
REMARK  Name = 
REMARK  11 active torsions:
REMARK  status: ('A' for Active; 'I' for Inactive)
REMARK    1  A    between atoms: C_1  and  O_2
REMARK    2  A    between atoms: O_2  and  C_3
REMARK    3  A    between atoms: C_6  and  C_7
REMARK    4  A    between atoms: C_11  and  C_12
REMARK    5  A    between atoms: C_14  and  O_15
REMARK    6  A    between atoms: O_15  and  C_16
REMARK    7  A    between atoms: C_17  and  O_18
REMARK    8  A    between atoms: O_18  and  C_19
REMARK    9  A    between atoms: C_20  and  O_21
REMARK   10  A    between atoms: O_21  and  C_22
REMARK   11  A    between atoms: C_25  and  O_26
REMARK                            x       y       z     vdW  Elec       q    Type
REMARK                         _______ _______ _______ _____ _____    ______ ____
ROOT
ATOM      1  C   UNL     1       3.272   4.452  18.778  0.00  0.00    +0.000 A 
ATOM      2  N   UNL     1       3.160   3.127  18.580  0.00  0.00    +0.000 NA
ATOM      3 SE   UNL     1       1.602   2.471  19.169  0.00  0.00    +0.000 Se
ATOM      4  N   UNL     1       1.166   4.141  19.645  0.00  0.00    +0.000 NA
ATOM      5  C   UNL     1       2.126   5.033  19.341  0.00  0.00    +0.000 A 
ENDROOT
BRANCH   1   9
ATOM      6  C   UNL     1       6.956   6.575  17.992  0.00  0.00    +0.000 A 
ATOM      7  C   UNL     1       5.886   6.638  17.084  0.00  0.00    +0.000 A 
ATOM      8  C   UNL     1       4.697   5.933  17.315  0.00  0.00    +0.000 A 
ATOM      9  C   UNL     1       4.549   5.161  18.476  0.00  0.00    +0.000 A 
ATOM     10  C   UNL     1       5.641   5.059  19.357  0.00  0.00    +0.000 A 
ATOM     11  C   UNL     1       6.827   5.761  19.140  0.00  0.00    +0.000 A 
BRANCH   6  13
ATOM     12  C   UNL     1       8.290   8.635  18.042  0.00  0.00    +0.000 C 
ATOM     13  O   UNL     1       8.066   7.312  17.711  0.00  0.00    +0.000 OA
ENDBRANCH   6  13
BRANCH  11  14
ATOM     14  O   UNL     1       7.820   5.655  20.049  0.00  0.00    +0.000 OA
ATOM     15  H   UNL     1       8.113   6.402  20.589  0.00  0.00    +0.000 HD
ENDBRANCH  11  14
ENDBRANCH   1   9
BRANCH   5  16
ATOM     16  C   UNL     1       1.897   6.493  19.548  0.00  0.00    +0.000 A 
ATOM     17  C   UNL     1       2.006   7.397  18.487  0.00  0.00    +0.000 A 
ATOM     18  C   UNL     1       1.733   8.771  18.670  0.00  0.00    +0.000 A 
ATOM     19  C   UNL     1       1.359   9.243  19.962  0.00  0.00    +0.000 A 
ATOM     20  C   UNL     1       1.287   8.338  21.034  0.00  0.00    +0.000 A 
ATOM     21  C   UNL     1       1.573   6.986  20.820  0.00  0.00    +0.000 A 
BRANCH  18  22
ATOM     22  O   UNL     1       1.803   9.641  17.627  0.00  0.00    +0.000 OA
ATOM     23  C   UNL     1       2.505  10.829  17.606  0.00  0.00    +0.000 C 
ENDBRANCH  18  22
BRANCH  19  24
ATOM     24  O   UNL     1       1.053  10.543  20.235  0.00  0.00    +0.000 OA
ATOM     25  C   UNL     1      -0.133  11.204  19.997  0.00  0.00    +0.000 C 
ENDBRANCH  19  24
BRANCH  20  26
ATOM     26  O   UNL     1       0.922   8.800  22.265  0.00  0.00    +0.000 OA
ATOM     27  C   UNL     1      -0.375   8.897  22.736  0.00  0.00    +0.000 C 
ENDBRANCH  20  26
ENDBRANCH   5  16
TORSDOF 7
ENDMDL
MODEL 2
REMARK VINA RESULT:      -6.5      0.391      2.390
REMARK  Name = 
REMARK  11 active torsions:
REMARK  status: ('A' for Active; 'I' for Inactive)
REMARK    1  A    between atoms: C_1  and  O_2
REMARK    2  A    between atoms: O_2  and  C_3
REMARK    3  A    between atoms: C_6  and  C_7
REMARK    4  A    between atoms: C_11  and  C_12
REMARK    5  A    between atoms: C_14  and  O_15
REMARK    6  A    between atoms: O_15  and  C_16
REMARK    7  A    between atoms: C_17  and  O_18
REMARK    8  A    between atoms: O_18  and  C_19
REMARK    9  A    between atoms: C_20  and  O_21
REMARK   10  A    between atoms: O_21  and  C_22
REMARK   11  A    between atoms: C_25  and  O_26
REMARK                            x       y       z     vdW  Elec       q    Type
REMARK                         _______ _______ _______ _____ _____    ______ ____
ROOT
ATOM      1  C   UNL     1       3.575   4.438  18.444  0.00  0.00    +0.000 A 
ATOM      2  N   UNL     1       3.556   3.128  18.142  0.00  0.00    +0.000 NA
ATOM      3 SE   UNL     1       1.994   2.351  18.543  0.00  0.00    +0.000 Se
ATOM      4  N   UNL     1       1.424   3.955  19.095  0.00  0.00    +0.000 NA
ATOM      5  C   UNL     1       2.353   4.916  18.943  0.00  0.00    +0.000 A 
ENDROOT
BRANCH   1   9
ATOM      6  C   UNL     1       7.185   6.798  18.143  0.00  0.00    +0.000 A 
ATOM      7  C   UNL     1       6.181   6.899  17.167  0.00  0.00    +0.000 A 
ATOM      8  C   UNL     1       5.018   6.120  17.239  0.00  0.00    +0.000 A 
ATOM      9  C   UNL     1       4.830   5.233  18.308  0.00  0.00    +0.000 A 
ATOM     10  C   UNL     1       5.860   5.097  19.256  0.00  0.00    +0.000 A 
ATOM     11  C   UNL     1       7.019   5.872  19.197  0.00  0.00    +0.000 A 
BRANCH   6  13
ATOM     12  C   UNL     1       8.296   8.987  18.133  0.00  0.00    +0.000 C 
ATOM     13  O   UNL     1       8.271   7.611  18.018  0.00  0.00    +0.000 OA
ENDBRANCH   6  13
BRANCH  11  14
ATOM     14  O   UNL     1       7.949   5.724  20.165  0.00  0.00    +0.000 OA
ATOM     15  H   UNL     1       8.682   5.096  20.090  0.00  0.00    +0.000 HD
ENDBRANCH  11  14
ENDBRANCH   1   9
BRANCH   5  16
ATOM     16  C   UNL     1       2.024   6.342  19.232  0.00  0.00    +0.000 A 
ATOM     17  C   UNL     1       1.636   6.746  20.514  0.00  0.00    +0.000 A 
ATOM     18  C   UNL     1       1.381   8.104  20.803  0.00  0.00    +0.000 A 
ATOM     19  C   UNL     1       1.502   9.075  19.765  0.00  0.00    +0.000 A 
ATOM     20  C   UNL     1       1.854   8.661  18.470  0.00  0.00    +0.000 A 
ATOM     21  C   UNL     1       2.092   7.306  18.217  0.00  0.00    +0.000 A 
BRANCH  18  22
ATOM     22  O   UNL     1       1.041   8.499  22.059  0.00  0.00    +0.000 OA
ATOM     23  C   UNL     1      -0.241   8.695  22.531  0.00  0.00    +0.000 C 
ENDBRANCH  18  22
BRANCH  19  24
ATOM     24  O   UNL     1       1.300  10.410  19.948  0.00  0.00    +0.000 OA
ATOM     25  C   UNL     1       0.100  11.081  20.050  0.00  0.00    +0.000 C 
ENDBRANCH  19  24
BRANCH  20  26
ATOM     26  O   UNL     1       1.973   9.598  17.487  0.00  0.00    +0.000 OA
ATOM     27  C   UNL     1       2.608  10.821  17.613  0.00  0.00    +0.000 C 
ENDBRANCH  20  26
ENDBRANCH   5  16
TORSDOF 7
ENDMDL
MODEL 3
REMARK VINA RESULT:      -6.5      1.240      5.976
REMARK  Name = 
REMARK  11 active torsions:
REMARK  status: ('A' for Active; 'I' for Inactive)
REMARK    1  A    between atoms: C_1  and  O_2
REMARK    2  A    between atoms: O_2  and  C_3
REMARK    3  A    between atoms: C_6  and  C_7
REMARK    4  A    between atoms: C_11  and  C_12
REMARK    5  A    between atoms: C_14  and  O_15
REMARK    6  A    between atoms: O_15  and  C_16
REMARK    7  A    between atoms: C_17  and  O_18
REMARK    8  A    between atoms: O_18  and  C_19
REMARK    9  A    between atoms: C_20  and  O_21
REMARK   10  A    between atoms: O_21  and  C_22
REMARK   11  A    between atoms: C_25  and  O_26
REMARK                            x       y       z     vdW  Elec       q    Type
REMARK                         _______ _______ _______ _____ _____    ______ ____
ROOT
ATOM      1  C   UNL     1       2.028   4.467  19.181  0.00  0.00    +0.000 A 
ATOM      2  N   UNL     1       1.069   3.596  19.540  0.00  0.00    +0.000 NA
ATOM      3 SE   UNL     1       1.450   1.915  19.056  0.00  0.00    +0.000 Se
ATOM      4  N   UNL     1       2.990   2.535  18.389  0.00  0.00    +0.000 NA
ATOM      5  C   UNL     1       3.135   3.861  18.569  0.00  0.00    +0.000 A 
ENDROOT
BRANCH   1   9
ATOM      6  C   UNL     1       1.582   8.732  19.731  0.00  0.00    +0.000 A 
ATOM      7  C   UNL     1       1.370   7.847  20.800  0.00  0.00    +0.000 A 
ATOM      8  C   UNL     1       1.485   6.461  20.628  0.00  0.00    +0.000 A 
ATOM      9  C   UNL     1       1.836   5.933  19.378  0.00  0.00    +0.000 A 
ATOM     10  C   UNL     1       1.997   6.819  18.297  0.00  0.00    +0.000 A 
ATOM     11  C   UNL     1       1.891   8.201  18.458  0.00  0.00    +0.000 A 
BRANCH   6  13
ATOM     12  C   UNL     1       0.378  10.736  20.480  0.00  0.00    +0.000 C 
ATOM     13  O   UNL     1       1.480  10.067  19.985  0.00  0.00    +0.000 OA
ENDBRANCH   6  13
BRANCH  11  14
ATOM     14  O   UNL     1       2.102   8.998  17.389  0.00  0.00    +0.000 OA
ATOM     15  H   UNL     1       1.735   9.891  17.325  0.00  0.00    +0.000 HD
ENDBRANCH  11  14
ENDBRANCH   1   9
BRANCH   5  16
ATOM     16  C   UNL     1       4.408   4.542  18.191  0.00  0.00    +0.000 A 
ATOM     17  C   UNL     1       4.709   4.811  16.852  0.00  0.00    +0.000 A 
ATOM     18  C   UNL     1       5.886   5.508  16.497  0.00  0.00    +0.000 A 
ATOM     19  C   UNL     1       6.787   5.924  17.520  0.00  0.00    +0.000 A 
ATOM     20  C   UNL     1       6.500   5.619  18.861  0.00  0.00    +0.000 A 
ATOM     21  C   UNL     1       5.330   4.920  19.176  0.00  0.00    +0.000 A 
BRANCH  18  22
ATOM     22  O   UNL     1       6.158   5.801  15.197  0.00  0.00    +0.000 OA
ATOM     23  C   UNL     1       6.801   4.979  14.295  0.00  0.00    +0.000 C 
ENDBRANCH  18  22
BRANCH  19  24
ATOM     24  O   UNL     1       7.935   6.621  17.283  0.00  0.00    +0.000 OA
ATOM     25  C   UNL     1       8.154   7.974  17.433  0.00  0.00    +0.000 C 
ENDBRANCH  19  24
BRANCH  20  26
ATOM     26  O   UNL     1       7.366   6.028  19.832  0.00  0.00    +0.000 OA
ATOM     27  C   UNL     1       8.410   5.280  20.347  0.00  0.00    +0.000 C 
ENDBRANCH  20  26
ENDBRANCH   5  16
TORSDOF 7
ENDMDL
MODEL 4
REMARK VINA RESULT:      -6.4      1.189      5.937
REMARK  Name = 
REMARK  11 active torsions:
REMARK  status: ('A' for Active; 'I' for Inactive)
REMARK    1  A    between atoms: C_1  and  O_2
REMARK    2  A    between atoms: O_2  and  C_3
REMARK    3  A    between atoms: C_6  and  C_7
REMARK    4  A    between atoms: C_11  and  C_12
REMARK    5  A    between atoms: C_14  and  O_15
REMARK    6  A    between atoms: O_15  and  C_16
REMARK    7  A    between atoms: C_17  and  O_18
REMARK    8  A    between atoms: O_18  and  C_19
REMARK    9  A    between atoms: C_20  and  O_21
REMARK   10  A    between atoms: O_21  and  C_22
REMARK   11  A    between atoms: C_25  and  O_26
REMARK                            x       y       z     vdW  Elec       q    Type
REMARK                         _______ _______ _______ _____ _____    ______ ____
ROOT
ATOM      1  C   UNL     1       1.968   4.698  19.327  0.00  0.00    +0.000 A 
ATOM      2  N   UNL     1       0.985   3.872  19.724  0.00  0.00    +0.000 NA
ATOM      3 SE   UNL     1       1.311   2.162  19.305  0.00  0.00    +0.000 Se
ATOM      4  N   UNL     1       2.865   2.707  18.606  0.00  0.00    +0.000 NA
ATOM      5  C   UNL     1       3.053   4.034  18.733  0.00  0.00    +0.000 A 
ENDROOT
BRANCH   1   9
ATOM      6  C   UNL     1       1.436   8.968  19.751  0.00  0.00    +0.000 A 
ATOM      7  C   UNL     1       1.792   8.410  18.512  0.00  0.00    +0.000 A 
ATOM      8  C   UNL     1       1.993   7.031  18.368  0.00  0.00    +0.000 A 
ATOM      9  C   UNL     1       1.823   6.176  19.466  0.00  0.00    +0.000 A 
ATOM     10  C   UNL     1       1.516   6.742  20.716  0.00  0.00    +0.000 A 
ATOM     11  C   UNL     1       1.308   8.113  20.870  0.00  0.00    +0.000 A 
BRANCH   6  13
ATOM     12  C   UNL     1       0.611  11.095  18.847  0.00  0.00    +0.000 C 
ATOM     13  O   UNL     1       1.229  10.313  19.803  0.00  0.00    +0.000 OA
ENDBRANCH   6  13
BRANCH  11  14
ATOM     14  O   UNL     1       0.972   8.587  22.089  0.00  0.00    +0.000 OA
ATOM     15  H   UNL     1       0.107   8.423  22.491  0.00  0.00    +0.000 HD
ENDBRANCH  11  14
ENDBRANCH   1   9
BRANCH   5  16
ATOM     16  C   UNL     1       4.343   4.660  18.322  0.00  0.00    +0.000 A 
ATOM     17  C   UNL     1       4.623   4.915  16.976  0.00  0.00    +0.000 A 
ATOM     18  C   UNL     1       5.819   5.560  16.590  0.00  0.00    +0.000 A 
ATOM     19  C   UNL     1       6.763   5.938  17.591  0.00  0.00    +0.000 A 
ATOM     20  C   UNL     1       6.496   5.646  18.938  0.00  0.00    +0.000 A 
ATOM     21  C   UNL     1       5.305   4.998  19.284  0.00  0.00    +0.000 A 
BRANCH  18  22
ATOM     22  O   UNL     1       6.071   5.841  15.284  0.00  0.00    +0.000 OA
ATOM     23  C   UNL     1       6.604   4.973  14.354  0.00  0.00    +0.000 C 
ENDBRANCH  18  22
BRANCH  19  24
ATOM     24  O   UNL     1       7.933   6.585  17.324  0.00  0.00    +0.000 OA
ATOM     25  C   UNL     1       8.189   7.938  17.388  0.00  0.00    +0.000 C 
ENDBRANCH  19  24
BRANCH  20  26
ATOM     26  O   UNL     1       7.402   6.018  19.887  0.00  0.00    +0.000 OA
ATOM     27  C   UNL     1       8.467   5.252  20.327  0.00  0.00    +0.000 C 
ENDBRANCH  20  26
ENDBRANCH   5  16
TORSDOF 7
ENDMDL
MODEL 5
REMARK VINA RESULT:      -6.4      1.726      2.117
REMARK  Name = 
REMARK  11 active torsions:
REMARK  status: ('A' for Active; 'I' for Inactive)
REMARK    1  A    between atoms: C_1  and  O_2
REMARK    2  A    between atoms: O_2  and  C_3
REMARK    3  A    between atoms: C_6  and  C_7
REMARK    4  A    between atoms: C_11  and  C_12
REMARK    5  A    between atoms: C_14  and  O_15
REMARK    6  A    between atoms: O_15  and  C_16
REMARK    7  A    between atoms: C_17  and  O_18
REMARK    8  A    between atoms: O_18  and  C_19
REMARK    9  A    between atoms: C_20  and  O_21
REMARK   10  A    between atoms: O_21  and  C_22
REMARK   11  A    between atoms: C_25  and  O_26
REMARK                            x       y       z     vdW  Elec       q    Type
REMARK                         _______ _______ _______ _____ _____    ______ ____
ROOT
ATOM      1  C   UNL     1       3.346   3.551  19.789  0.00  0.00    +0.000 A 
ATOM      2  N   UNL     1       3.200   2.307  20.278  0.00  0.00    +0.000 NA
ATOM      3 SE   UNL     1       2.014   2.228  21.617  0.00  0.00    +0.000 Se
ATOM      4  N   UNL     1       1.754   3.984  21.391  0.00  0.00    +0.000 NA
ATOM      5  C   UNL     1       2.496   4.493  20.390  0.00  0.00    +0.000 A 
ENDROOT
BRANCH   1   9
ATOM      6  C   UNL     1       6.347   4.520  16.832  0.00  0.00    +0.000 A 
ATOM      7  C   UNL     1       5.104   3.996  16.444  0.00  0.00    +0.000 A 
ATOM      8  C   UNL     1       4.133   3.653  17.395  0.00  0.00    +0.000 A 
ATOM      9  C   UNL     1       4.384   3.848  18.760  0.00  0.00    +0.000 A 
ATOM     10  C   UNL     1       5.649   4.325  19.147  0.00  0.00    +0.000 A 
ATOM     11  C   UNL     1       6.620   4.675  18.210  0.00  0.00    +0.000 A 
BRANCH   6  13
ATOM     12  C   UNL     1       7.013   4.782  14.484  0.00  0.00    +0.000 C 
ATOM     13  O   UNL     1       7.226   4.857  15.846  0.00  0.00    +0.000 OA
ENDBRANCH   6  13
BRANCH  11  14
ATOM     14  O   UNL     1       7.798   5.170  18.648  0.00  0.00    +0.000 OA
ATOM     15  H   UNL     1       8.240   5.917  18.219  0.00  0.00    +0.000 HD
ENDBRANCH  11  14
ENDBRANCH   1   9
BRANCH   5  16
ATOM     16  C   UNL     1       2.328   5.914  19.969  0.00  0.00    +0.000 A 
ATOM     17  C   UNL     1       2.834   6.368  18.747  0.00  0.00    +0.000 A 
ATOM     18  C   UNL     1       2.625   7.698  18.321  0.00  0.00    +0.000 A 
ATOM     19  C   UNL     1       1.903   8.596  19.162  0.00  0.00    +0.000 A 
ATOM     20  C   UNL     1       1.430   8.147  20.406  0.00  0.00    +0.000 A 
ATOM     21  C   UNL     1       1.662   6.825  20.800  0.00  0.00    +0.000 A 
BRANCH  18  22
ATOM     22  O   UNL     1       3.086   8.126  17.116  0.00  0.00    +0.000 OA
ATOM     23  C   UNL     1       4.148   7.592  16.415  0.00  0.00    +0.000 C 
ENDBRANCH  18  22
BRANCH  19  24
ATOM     24  O   UNL     1       1.630   9.890  18.832  0.00  0.00    +0.000 OA
ATOM     25  C   UNL     1       0.500  10.389  18.219  0.00  0.00    +0.000 C 
ENDBRANCH  19  24
BRANCH  20  26
ATOM     26  O   UNL     1       0.735   9.013  21.199  0.00  0.00    +0.000 OA
ATOM     27  C   UNL     1      -0.514   8.778  21.745  0.00  0.00    +0.000 C 
ENDBRANCH  20  26
ENDBRANCH   5  16
TORSDOF 7
ENDMDL
MODEL 6
REMARK VINA RESULT:      -6.4      1.895      6.341
REMARK  Name = 
REMARK  11 active torsions:
REMARK  status: ('A' for Active; 'I' for Inactive)
REMARK    1  A    between atoms: C_1  and  O_2
REMARK    2  A    between atoms: O_2  and  C_3
REMARK    3  A    between atoms: C_6  and  C_7
REMARK    4  A    between atoms: C_11  and  C_12
REMARK    5  A    between atoms: C_14  and  O_15
REMARK    6  A    between atoms: O_15  and  C_16
REMARK    7  A    between atoms: C_17  and  O_18
REMARK    8  A    between atoms: O_18  and  C_19
REMARK    9  A    between atoms: C_20  and  O_21
REMARK   10  A    between atoms: O_21  and  C_22
REMARK   11  A    between atoms: C_25  and  O_26
REMARK                            x       y       z     vdW  Elec       q    Type
REMARK                         _______ _______ _______ _____ _____    ______ ____
ROOT
ATOM      1  C   UNL     1       2.523   4.926  20.186  0.00  0.00    +0.000 A 
ATOM      2  N   UNL     1       1.721   4.430  21.144  0.00  0.00    +0.000 NA
ATOM      3 SE   UNL     1       2.066   2.712  21.511  0.00  0.00    +0.000 Se
ATOM      4  N   UNL     1       3.373   2.793  20.291  0.00  0.00    +0.000 NA
ATOM      5  C   UNL     1       3.487   4.012  19.734  0.00  0.00    +0.000 A 
ENDROOT
BRANCH   1   9
ATOM      6  C   UNL     1       1.780   8.894  18.638  0.00  0.00    +0.000 A 
ATOM      7  C   UNL     1       2.308   7.890  17.810  0.00  0.00    +0.000 A 
ATOM      8  C   UNL     1       2.577   6.608  18.306  0.00  0.00    +0.000 A 
ATOM      9  C   UNL     1       2.305   6.300  19.647  0.00  0.00    +0.000 A 
ATOM     10  C   UNL     1       1.825   7.321  20.485  0.00  0.00    +0.000 A 
ATOM     11  C   UNL     1       1.547   8.600  20.001  0.00  0.00    +0.000 A 
BRANCH   6  13
ATOM     12  C   UNL     1       2.395  11.163  17.931  0.00  0.00    +0.000 C 
ATOM     13  O   UNL     1       1.517  10.106  18.073  0.00  0.00    +0.000 OA
ENDBRANCH   6  13
BRANCH  11  14
ATOM     14  O   UNL     1       1.045   9.522  20.850  0.00  0.00    +0.000 OA
ATOM     15  H   UNL     1       0.255  10.041  20.646  0.00  0.00    +0.000 HD
ENDBRANCH  11  14
ENDBRANCH   1   9
BRANCH   5  16
ATOM     16  C   UNL     1       4.598   4.310  18.784  0.00  0.00    +0.000 A 
ATOM     17  C   UNL     1       5.677   5.112  19.168  0.00  0.00    +0.000 A 
ATOM     18  C   UNL     1       6.758   5.348  18.289  0.00  0.00    +0.000 A 
ATOM     19  C   UNL     1       6.735   4.773  16.984  0.00  0.00    +0.000 A 
ATOM     20  C   UNL     1       5.632   4.000  16.588  0.00  0.00    +0.000 A 
ATOM     21  C   UNL     1       4.575   3.794  17.481  0.00  0.00    +0.000 A 
BRANCH  18  22
ATOM     22  O   UNL     1       7.824   6.096  18.678  0.00  0.00    +0.000 OA
ATOM     23  C   UNL     1       8.059   7.414  18.342  0.00  0.00    +0.000 C 
ENDBRANCH  18  22
BRANCH  19  24
ATOM     24  O   UNL     1       7.738   4.922  16.072  0.00  0.00    +0.000 OA
ATOM     25  C   UNL     1       7.758   5.730  14.956  0.00  0.00    +0.000 C 
ENDBRANCH  19  24
BRANCH  20  26
ATOM     26  O   UNL     1       5.624   3.450  15.340  0.00  0.00    +0.000 OA
ATOM     27  C   UNL     1       5.139   4.058  14.196  0.00  0.00    +0.000 C 
ENDBRANCH  20  26
ENDBRANCH   5  16
TORSDOF 7
ENDMDL
MODEL 7
REMARK VINA RESULT:      -6.4      1.680      3.103
REMARK  Name = 
REMARK  11 active torsions:
REMARK  status: ('A' for Active; 'I' for Inactive)
REMARK    1  A    between atoms: C_1  and  O_2
REMARK    2  A    between atoms: O_2  and  C_3
REMARK    3  A    between atoms: C_6  and  C_7
REMARK    4  A    between atoms: C_11  and  C_12
REMARK    5  A    between atoms: C_14  and  O_15
REMARK    6  A    between atoms: O_15  and  C_16
REMARK    7  A    between atoms: C_17  and  O_18
REMARK    8  A    between atoms: O_18  and  C_19
REMARK    9  A    between atoms: C_20  and  O_21
REMARK   10  A    between atoms: O_21  and  C_22
REMARK   11  A    between atoms: C_25  and  O_26
REMARK                            x       y       z     vdW  Elec       q    Type
REMARK                         _______ _______ _______ _____ _____    ______ ____
ROOT
ATOM      1  C   UNL     1       3.480   3.602  19.841  0.00  0.00    +0.000 A 
ATOM      2  N   UNL     1       3.423   2.357  20.345  0.00  0.00    +0.000 NA
ATOM      3 SE   UNL     1       2.247   2.209  21.687  0.00  0.00    +0.000 Se
ATOM      4  N   UNL     1       1.863   3.940  21.440  0.00  0.00    +0.000 NA
ATOM      5  C   UNL     1       2.566   4.488  20.432  0.00  0.00    +0.000 A 
ENDROOT
BRANCH   1   9
ATOM      6  C   UNL     1       6.395   4.746  16.860  0.00  0.00    +0.000 A 
ATOM      7  C   UNL     1       5.243   4.031  16.496  0.00  0.00    +0.000 A 
ATOM      8  C   UNL     1       4.304   3.631  17.457  0.00  0.00    +0.000 A 
ATOM      9  C   UNL     1       4.494   3.959  18.807  0.00  0.00    +0.000 A 
ATOM     10  C   UNL     1       5.673   4.631  19.174  0.00  0.00    +0.000 A 
ATOM     11  C   UNL     1       6.612   5.039  18.226  0.00  0.00    +0.000 A 
BRANCH   6  13
ATOM     12  C   UNL     1       7.120   4.846  14.517  0.00  0.00    +0.000 C 
ATOM     13  O   UNL     1       7.244   5.125  15.864  0.00  0.00    +0.000 OA
ENDBRANCH   6  13
BRANCH  11  14
ATOM     14  O   UNL     1       7.701   5.719  18.641  0.00  0.00    +0.000 OA
ATOM     15  H   UNL     1       8.400   6.004  18.034  0.00  0.00    +0.000 HD
ENDBRANCH  11  14
ENDBRANCH   1   9
BRANCH   5  16
ATOM     16  C   UNL     1       2.296   5.888  19.994  0.00  0.00    +0.000 A 
ATOM     17  C   UNL     1       1.627   6.788  20.829  0.00  0.00    +0.000 A 
ATOM     18  C   UNL     1       1.423   8.130  20.439  0.00  0.00    +0.000 A 
ATOM     19  C   UNL     1       1.891   8.566  19.165  0.00  0.00    +0.000 A 
ATOM     20  C   UNL     1       2.530   7.650  18.313  0.00  0.00    +0.000 A 
ATOM     21  C   UNL     1       2.707   6.326  18.727  0.00  0.00    +0.000 A 
BRANCH  18  22
ATOM     22  O   UNL     1       0.805   9.012  21.269  0.00  0.00    +0.000 OA
ATOM     23  C   UNL     1      -0.450   8.864  21.824  0.00  0.00    +0.000 C 
ENDBRANCH  18  22
BRANCH  19  24
ATOM     24  O   UNL     1       1.765   9.844  18.707  0.00  0.00    +0.000 OA
ATOM     25  C   UNL     1       0.613  10.498  18.323  0.00  0.00    +0.000 C 
ENDBRANCH  19  24
BRANCH  20  26
ATOM     26  O   UNL     1       2.979   8.080  17.099  0.00  0.00    +0.000 OA
ATOM     27  C   UNL     1       4.087   7.590  16.431  0.00  0.00    +0.000 C 
ENDBRANCH  20  26
ENDBRANCH   5  16
TORSDOF 7
ENDMDL
MODEL 8
REMARK VINA RESULT:      -6.3      6.391      9.389
REMARK  Name = 
REMARK  11 active torsions:
REMARK  status: ('A' for Active; 'I' for Inactive)
REMARK    1  A    between atoms: C_1  and  O_2
REMARK    2  A    between atoms: O_2  and  C_3
REMARK    3  A    between atoms: C_6  and  C_7
REMARK    4  A    between atoms: C_11  and  C_12
REMARK    5  A    between atoms: C_14  and  O_15
REMARK    6  A    between atoms: O_15  and  C_16
REMARK    7  A    between atoms: C_17  and  O_18
REMARK    8  A    between atoms: O_18  and  C_19
REMARK    9  A    between atoms: C_20  and  O_21
REMARK   10  A    between atoms: O_21  and  C_22
REMARK   11  A    between atoms: C_25  and  O_26
REMARK                            x       y       z     vdW  Elec       q    Type
REMARK                         _______ _______ _______ _____ _____    ______ ____
ROOT
ATOM      1  C   UNL     1      -1.722  13.745  21.620  0.00  0.00    +0.000 A 
ATOM      2  N   UNL     1      -0.882  14.727  21.991  0.00  0.00    +0.000 NA
ATOM      3 SE   UNL     1      -1.612  16.354  21.832  0.00  0.00    +0.000 Se
ATOM      4  N   UNL     1      -3.107  15.546  21.272  0.00  0.00    +0.000 NA
ATOM      5  C   UNL     1      -2.997  14.206  21.255  0.00  0.00    +0.000 A 
ENDROOT
BRANCH   1   9
ATOM      6  C   UNL     1      -0.274   9.673  21.476  0.00  0.00    +0.000 A 
ATOM      7  C   UNL     1      -0.533  10.383  20.292  0.00  0.00    +0.000 A 
ATOM      8  C   UNL     1      -1.027  11.694  20.326  0.00  0.00    +0.000 A 
ATOM      9  C   UNL     1      -1.257  12.329  21.554  0.00  0.00    +0.000 A 
ATOM     10  C   UNL     1      -1.045  11.598  22.737  0.00  0.00    +0.000 A 
ATOM     11  C   UNL     1      -0.547  10.295  22.716  0.00  0.00    +0.000 A 
BRANCH   6  13
ATOM     12  C   UNL     1       1.455   8.059  20.821  0.00  0.00    +0.000 C 
ATOM     13  O   UNL     1       0.234   8.415  21.360  0.00  0.00    +0.000 OA
ENDBRANCH   6  13
BRANCH  11  14
ATOM     14  O   UNL     1      -0.324   9.665  23.889  0.00  0.00    +0.000 OA
ATOM     15  H   UNL     1      -0.272  10.138  24.732  0.00  0.00    +0.000 HD
ENDBRANCH  11  14
ENDBRANCH   1   9
BRANCH   5  16
ATOM     16  C   UNL     1      -4.177  13.352  20.934  0.00  0.00    +0.000 A 
ATOM     17  C   UNL     1      -4.360  12.829  19.650  0.00  0.00    +0.000 A 
ATOM     18  C   UNL     1      -5.446  11.973  19.359  0.00  0.00    +0.000 A 
ATOM     19  C   UNL     1      -6.379  11.655  20.390  0.00  0.00    +0.000 A 
ATOM     20  C   UNL     1      -6.214  12.212  21.668  0.00  0.00    +0.000 A 
ATOM     21  C   UNL     1      -5.132  13.063  21.918  0.00  0.00    +0.000 A 
BRANCH  18  22
ATOM     22  O   UNL     1      -5.599  11.437  18.120  0.00  0.00    +0.000 OA
ATOM     23  C   UNL     1      -4.585  11.100  17.248  0.00  0.00    +0.000 C 
ENDBRANCH  18  22
BRANCH  19  24
ATOM     24  O   UNL     1      -7.444  10.822  20.217  0.00  0.00    +0.000 OA
ATOM     25  C   UNL     1      -7.458   9.444  20.247  0.00  0.00    +0.000 C 
ENDBRANCH  19  24
BRANCH  20  26
ATOM     26  O   UNL     1      -7.109  11.895  22.647  0.00  0.00    +0.000 OA
ATOM     27  C   UNL     1      -7.109  12.405  23.933  0.00  0.00    +0.000 C 
ENDBRANCH  20  26
ENDBRANCH   5  16
TORSDOF 7
ENDMDL
MODEL 9
REMARK VINA RESULT:      -6.2      6.413      9.652
REMARK  Name = 
REMARK  11 active torsions:
REMARK  status: ('A' for Active; 'I' for Inactive)
REMARK    1  A    between atoms: C_1  and  O_2
REMARK    2  A    between atoms: O_2  and  C_3
REMARK    3  A    between atoms: C_6  and  C_7
REMARK    4  A    between atoms: C_11  and  C_12
REMARK    5  A    between atoms: C_14  and  O_15
REMARK    6  A    between atoms: O_15  and  C_16
REMARK    7  A    between atoms: C_17  and  O_18
REMARK    8  A    between atoms: O_18  and  C_19
REMARK    9  A    between atoms: C_20  and  O_21
REMARK   10  A    between atoms: O_21  and  C_22
REMARK   11  A    between atoms: C_25  and  O_26
REMARK                            x       y       z     vdW  Elec       q    Type
REMARK                         _______ _______ _______ _____ _____    ______ ____
ROOT
ATOM      1  C   UNL     1      -1.478  13.658  21.415  0.00  0.00    +0.000 A 
ATOM      2  N   UNL     1      -0.567  14.625  21.619  0.00  0.00    +0.000 NA
ATOM      3 SE   UNL     1      -1.248  16.268  21.416  0.00  0.00    +0.000 Se
ATOM      4  N   UNL     1      -2.825  15.491  21.080  0.00  0.00    +0.000 NA
ATOM      5  C   UNL     1      -2.767  14.149  21.153  0.00  0.00    +0.000 A 
ENDROOT
BRANCH   1   9
ATOM      6  C   UNL     1      -0.211   9.524  21.438  0.00  0.00    +0.000 A 
ATOM      7  C   UNL     1      -0.447  10.194  20.226  0.00  0.00    +0.000 A 
ATOM      8  C   UNL     1      -0.884  11.525  20.206  0.00  0.00    +0.000 A 
ATOM      9  C   UNL     1      -1.076  12.222  21.408  0.00  0.00    +0.000 A 
ATOM     10  C   UNL     1      -0.887  11.533  22.619  0.00  0.00    +0.000 A 
ATOM     11  C   UNL     1      -0.447  10.210  22.651  0.00  0.00    +0.000 A 
BRANCH   6  13
ATOM     12  C   UNL     1       1.472   7.816  20.912  0.00  0.00    +0.000 C 
ATOM     13  O   UNL     1       0.241   8.241  21.373  0.00  0.00    +0.000 OA
ENDBRANCH   6  13
BRANCH  11  14
ATOM     14  O   UNL     1      -0.243   9.622  23.849  0.00  0.00    +0.000 OA
ATOM     15  H   UNL     1       0.628   9.585  24.270  0.00  0.00    +0.000 HD
ENDBRANCH  11  14
ENDBRANCH   1   9
BRANCH   5  16
ATOM     16  C   UNL     1      -4.006  13.328  21.025  0.00  0.00    +0.000 A 
ATOM     17  C   UNL     1      -4.824  13.081  22.132  0.00  0.00    +0.000 A 
ATOM     18  C   UNL     1      -6.028  12.354  22.001  0.00  0.00    +0.000 A 
ATOM     19  C   UNL     1      -6.402  11.848  20.721  0.00  0.00    +0.000 A 
ATOM     20  C   UNL     1      -5.560  12.065  19.619  0.00  0.00    +0.000 A 
ATOM     21  C   UNL     1      -4.370  12.783  19.787  0.00  0.00    +0.000 A 
BRANCH  18  22
ATOM     22  O   UNL     1      -6.839  12.148  23.072  0.00  0.00    +0.000 OA
ATOM     23  C   UNL     1      -7.820  13.005  23.526  0.00  0.00    +0.000 C 
ENDBRANCH  18  22
BRANCH  19  24
ATOM     24  O   UNL     1      -7.553  11.156  20.486  0.00  0.00    +0.000 OA
ATOM     25  C   UNL     1      -7.821   9.834  20.770  0.00  0.00    +0.000 C 
ENDBRANCH  19  24
BRANCH  20  26
ATOM     26  O   UNL     1      -5.931  11.583  18.398  0.00  0.00    +0.000 OA
ATOM     27  C   UNL     1      -5.478  12.049  17.177  0.00  0.00    +0.000 C 
ENDBRANCH  20  26
ENDBRANCH   5  16
TORSDOF 7
ENDMDL
