MODEL 1
REMARK VINA RESULT:      -6.6      0.000      0.000
REMARK  Name = 
REMARK  9 active torsions:
REMARK  status: ('A' for Active; 'I' for Inactive)
REMARK    1  A    between atoms: C_1  and  C_2
REMARK    2  A    between atoms: C_2  and  C_3
REMARK    3  A    between atoms: C_2  and  C_4
REMARK    4  A    between atoms: C_2  and  C_5
REMARK    5  A    between atoms: C_5  and  C_6
REMARK    6  A    between atoms: N_8  and  C_9
REMARK    7  A    between atoms: N_12  and  C_13
REMARK    8  A    between atoms: C_18  and  S_19
REMARK    9  A    between atoms: S_19  and  C_20
REMARK                            x       y       z     vdW  Elec       q    Type
REMARK                         _______ _______ _______ _____ _____    ______ ____
ROOT
ATOM      1  C   UNL     1       2.725   8.120  18.247  0.00  0.00    +0.000 A 
ATOM      2  C   UNL     1       2.145   7.853  19.500  0.00  0.00    +0.000 A 
ATOM      3  N   UNL     1       1.102   8.643  19.758  0.00  0.00    +0.000 NA
ATOM      4  N   UNL     1       1.031   9.467  18.691  0.00  0.00    +0.000 N 
ATOM      5  C   UNL     1       2.039   9.210  17.780  0.00  0.00    +0.000 A 
ENDROOT
BRANCH   4   6
ATOM      6  C   UNL     1      -0.118  10.273  18.485  0.00  0.00    +0.000 A 
ATOM      7  C   UNL     1      -1.118   9.761  17.631  0.00  0.00    +0.000 A 
ATOM      8  C   UNL     1      -2.327  10.435  17.462  0.00  0.00    +0.000 A 
ATOM      9  C   UNL     1      -2.547  11.639  18.120  0.00  0.00    +0.000 A 
ATOM     10  C   UNL     1      -1.562  12.166  18.953  0.00  0.00    +0.000 A 
ATOM     11  C   UNL     1      -0.347  11.482  19.159  0.00  0.00    +0.000 A 
BRANCH  11  12
ATOM     12  S   UNL     1       0.880  12.341  20.140  0.00  0.00    +0.000 S 
ATOM     13  C   UNL     1       0.184  13.957  20.401  0.00  0.00    +0.000 C 
ATOM     14  O   UNL     1       1.073  11.634  21.389  0.00  0.00    +0.000 OA
ATOM     15  O   UNL     1       2.036  12.532  19.273  0.00  0.00    +0.000 OA
ENDBRANCH  11  12
ENDBRANCH   4   6
BRANCH   1  18
ATOM     16  C   UNL     1       3.834   6.097  17.532  0.00  0.00    +0.000 C 
ATOM     17  O   UNL     1       3.050   5.317  18.069  0.00  0.00    +0.000 OA
ATOM     18  N   UNL     1       3.737   7.474  17.564  0.00  0.00    +0.000 N 
ATOM     19  H   UNL     1       4.321   8.030  16.953  0.00  0.00    +0.000 HD
BRANCH  16  20
ATOM     20  C   UNL     1       5.030   5.579  16.757  0.00  0.00    +0.000 C 
BRANCH  20  22
ATOM     21  C   UNL     1       6.098   5.336  19.057  0.00  0.00    +0.000 C 
ATOM     22  C   UNL     1       6.347   5.615  17.564  0.00  0.00    +0.000 C 
ATOM     23  C   UNL     1       7.047   6.975  17.413  0.00  0.00    +0.000 C 
ATOM     24  C   UNL     1       7.273   4.515  17.015  0.00  0.00    +0.000 C 
ENDBRANCH  20  22
ENDBRANCH  16  20
ENDBRANCH   1  18
TORSDOF 5
ENDMDL
MODEL 2
REMARK VINA RESULT:      -6.5      2.131      2.662
REMARK  Name = 
REMARK  9 active torsions:
REMARK  status: ('A' for Active; 'I' for Inactive)
REMARK    1  A    between atoms: C_1  and  C_2
REMARK    2  A    between atoms: C_2  and  C_3
REMARK    3  A    between atoms: C_2  and  C_4
REMARK    4  A    between atoms: C_2  and  C_5
REMARK    5  A    between atoms: C_5  and  C_6
REMARK    6  A    between atoms: N_8  and  C_9
REMARK    7  A    between atoms: N_12  and  C_13
REMARK    8  A    between atoms: C_18  and  S_19
REMARK    9  A    between atoms: S_19  and  C_20
REMARK                            x       y       z     vdW  Elec       q    Type
REMARK                         _______ _______ _______ _____ _____    ______ ____
ROOT
ATOM      1  C   UNL     1       1.936   7.756  20.079  0.00  0.00    +0.000 A 
ATOM      2  C   UNL     1       1.398   8.278  21.269  0.00  0.00    +0.000 A 
ATOM      3  N   UNL     1       0.626   9.344  21.055  0.00  0.00    +0.000 NA
ATOM      4  N   UNL     1       0.699   9.552  19.724  0.00  0.00    +0.000 N 
ATOM      5  C   UNL     1       1.534   8.638  19.110  0.00  0.00    +0.000 A 
ENDROOT
BRANCH   4   6
ATOM      6  C   UNL     1      -0.205  10.442  19.088  0.00  0.00    +0.000 A 
ATOM      7  C   UNL     1      -1.400   9.889  18.581  0.00  0.00    +0.000 A 
ATOM      8  C   UNL     1      -2.393  10.708  18.043  0.00  0.00    +0.000 A 
ATOM      9  C   UNL     1      -2.198  12.082  17.978  0.00  0.00    +0.000 A 
ATOM     10  C   UNL     1      -1.016  12.640  18.458  0.00  0.00    +0.000 A 
ATOM     11  C   UNL     1      -0.015  11.831  19.034  0.00  0.00    +0.000 A 
BRANCH  11  12
ATOM     12  S   UNL     1       1.506  12.663  19.479  0.00  0.00    +0.000 S 
ATOM     13  C   UNL     1       1.202  14.373  19.099  0.00  0.00    +0.000 C 
ATOM     14  O   UNL     1       1.761  12.466  20.891  0.00  0.00    +0.000 OA
ATOM     15  O   UNL     1       2.514  12.209  18.529  0.00  0.00    +0.000 OA
ENDBRANCH  11  12
ENDBRANCH   4   6
BRANCH   1  18
ATOM     16  C   UNL     1       2.212   5.358  20.144  0.00  0.00    +0.000 C 
ATOM     17  O   UNL     1       1.101   5.108  20.609  0.00  0.00    +0.000 OA
ATOM     18  N   UNL     1       2.687   6.621  19.848  0.00  0.00    +0.000 N 
ATOM     19  H   UNL     1       3.537   6.720  19.310  0.00  0.00    +0.000 HD
BRANCH  16  20
ATOM     20  C   UNL     1       3.194   4.242  19.849  0.00  0.00    +0.000 C 
BRANCH  20  22
ATOM     21  C   UNL     1       4.120   3.236  17.700  0.00  0.00    +0.000 C 
ATOM     22  C   UNL     1       2.863   3.455  18.561  0.00  0.00    +0.000 C 
ATOM     23  C   UNL     1       1.799   4.187  17.728  0.00  0.00    +0.000 C 
ATOM     24  C   UNL     1       2.312   2.078  18.972  0.00  0.00    +0.000 C 
ENDBRANCH  20  22
ENDBRANCH  16  20
ENDBRANCH   1  18
TORSDOF 5
ENDMDL
MODEL 3
REMARK VINA RESULT:      -6.5      2.615      8.006
REMARK  Name = 
REMARK  9 active torsions:
REMARK  status: ('A' for Active; 'I' for Inactive)
REMARK    1  A    between atoms: C_1  and  C_2
REMARK    2  A    between atoms: C_2  and  C_3
REMARK    3  A    between atoms: C_2  and  C_4
REMARK    4  A    between atoms: C_2  and  C_5
REMARK    5  A    between atoms: C_5  and  C_6
REMARK    6  A    between atoms: N_8  and  C_9
REMARK    7  A    between atoms: N_12  and  C_13
REMARK    8  A    between atoms: C_18  and  S_19
REMARK    9  A    between atoms: S_19  and  C_20
REMARK                            x       y       z     vdW  Elec       q    Type
REMARK                         _______ _______ _______ _____ _____    ______ ____
ROOT
ATOM      1  C   UNL     1       1.657   8.576  19.311  0.00  0.00    +0.000 A 
ATOM      2  C   UNL     1       1.979   7.620  20.291  0.00  0.00    +0.000 A 
ATOM      3  N   UNL     1       2.662   6.589  19.794  0.00  0.00    +0.000 NA
ATOM      4  N   UNL     1       2.744   6.846  18.471  0.00  0.00    +0.000 N 
ATOM      5  C   UNL     1       2.093   8.019  18.138  0.00  0.00    +0.000 A 
ENDROOT
BRANCH   4   6
ATOM      6  C   UNL     1       3.631   6.101  17.651  0.00  0.00    +0.000 A 
ATOM      7  C   UNL     1       4.675   6.812  17.023  0.00  0.00    +0.000 A 
ATOM      8  C   UNL     1       5.657   6.142  16.293  0.00  0.00    +0.000 A 
ATOM      9  C   UNL     1       5.596   4.760  16.156  0.00  0.00    +0.000 A 
ATOM     10  C   UNL     1       4.561   4.047  16.755  0.00  0.00    +0.000 A 
ATOM     11  C   UNL     1       3.578   4.705  17.523  0.00  0.00    +0.000 A 
BRANCH  11  12
ATOM     12  S   UNL     1       2.232   3.684  18.116  0.00  0.00    +0.000 S 
ATOM     13  C   UNL     1       2.632   2.049  17.541  0.00  0.00    +0.000 C 
ATOM     14  O   UNL     1       2.188   3.746  19.562  0.00  0.00    +0.000 OA
ATOM     15  O   UNL     1       1.048   4.097  17.373  0.00  0.00    +0.000 OA
ENDBRANCH  11  12
ENDBRANCH   4   6
BRANCH   1  18
ATOM     16  C   UNL     1      -0.013  10.040  20.261  0.00  0.00    +0.000 C 
ATOM     17  O   UNL     1      -0.527   9.199  20.996  0.00  0.00    +0.000 OA
ATOM     18  N   UNL     1       1.060   9.816  19.420  0.00  0.00    +0.000 N 
ATOM     19  H   UNL     1       1.526  10.602  18.986  0.00  0.00    +0.000 HD
BRANCH  16  20
ATOM     20  C   UNL     1      -0.548  11.458  20.218  0.00  0.00    +0.000 C 
BRANCH  20  22
ATOM     21  C   UNL     1      -2.868  12.293  19.582  0.00  0.00    +0.000 C 
ATOM     22  C   UNL     1      -1.545  11.704  19.063  0.00  0.00    +0.000 C 
ATOM     23  C   UNL     1      -1.835  10.401  18.300  0.00  0.00    +0.000 C 
ATOM     24  C   UNL     1      -0.911  12.718  18.094  0.00  0.00    +0.000 C 
ENDBRANCH  20  22
ENDBRANCH  16  20
ENDBRANCH   1  18
TORSDOF 5
ENDMDL
MODEL 4
REMARK VINA RESULT:      -6.4      2.593      8.021
REMARK  Name = 
REMARK  9 active torsions:
REMARK  status: ('A' for Active; 'I' for Inactive)
REMARK    1  A    between atoms: C_1  and  C_2
REMARK    2  A    between atoms: C_2  and  C_3
REMARK    3  A    between atoms: C_2  and  C_4
REMARK    4  A    between atoms: C_2  and  C_5
REMARK    5  A    between atoms: C_5  and  C_6
REMARK    6  A    between atoms: N_8  and  C_9
REMARK    7  A    between atoms: N_12  and  C_13
REMARK    8  A    between atoms: C_18  and  S_19
REMARK    9  A    between atoms: S_19  and  C_20
REMARK                            x       y       z     vdW  Elec       q    Type
REMARK                         _______ _______ _______ _____ _____    ______ ____
ROOT
ATOM      1  C   UNL     1       1.709   8.933  19.000  0.00  0.00    +0.000 A 
ATOM      2  C   UNL     1       1.844   7.999  20.043  0.00  0.00    +0.000 A 
ATOM      3  N   UNL     1       2.491   6.898  19.661  0.00  0.00    +0.000 NA
ATOM      4  N   UNL     1       2.737   7.089  18.347  0.00  0.00    +0.000 N 
ATOM      5  C   UNL     1       2.223   8.293  17.903  0.00  0.00    +0.000 A 
ENDROOT
BRANCH   4   6
ATOM      6  C   UNL     1       3.643   6.243  17.658  0.00  0.00    +0.000 A 
ATOM      7  C   UNL     1       4.777   6.851  17.080  0.00  0.00    +0.000 A 
ATOM      8  C   UNL     1       5.775   6.081  16.484  0.00  0.00    +0.000 A 
ATOM      9  C   UNL     1       5.644   4.699  16.430  0.00  0.00    +0.000 A 
ATOM     10  C   UNL     1       4.521   4.085  16.980  0.00  0.00    +0.000 A 
ATOM     11  C   UNL     1       3.518   4.846  17.615  0.00  0.00    +0.000 A 
BRANCH  11  12
ATOM     12  S   UNL     1       2.069   3.942  18.151  0.00  0.00    +0.000 S 
ATOM     13  C   UNL     1       2.415   2.253  17.714  0.00  0.00    +0.000 C 
ATOM     14  O   UNL     1       1.909   4.102  19.581  0.00  0.00    +0.000 OA
ATOM     15  O   UNL     1       0.977   4.370  17.285  0.00  0.00    +0.000 OA
ENDBRANCH  11  12
ENDBRANCH   4   6
BRANCH   1  18
ATOM     16  C   UNL     1      -0.058  10.510  18.526  0.00  0.00    +0.000 C 
ATOM     17  O   UNL     1      -0.860   9.686  18.089  0.00  0.00    +0.000 OA
ATOM     18  N   UNL     1       1.207  10.219  18.998  0.00  0.00    +0.000 N 
ATOM     19  H   UNL     1       1.728  10.928  19.498  0.00  0.00    +0.000 HD
BRANCH  16  20
ATOM     20  C   UNL     1      -0.415  11.982  18.578  0.00  0.00    +0.000 C 
BRANCH  20  22
ATOM     21  C   UNL     1      -1.072  11.547  21.000  0.00  0.00    +0.000 C 
ATOM     22  C   UNL     1      -1.395  12.337  19.719  0.00  0.00    +0.000 C 
ATOM     23  C   UNL     1      -2.848  12.057  19.303  0.00  0.00    +0.000 C 
ATOM     24  C   UNL     1      -1.245  13.838  20.026  0.00  0.00    +0.000 C 
ENDBRANCH  20  22
ENDBRANCH  16  20
ENDBRANCH   1  18
TORSDOF 5
ENDMDL
MODEL 5
REMARK VINA RESULT:      -6.4      2.609      7.979
REMARK  Name = 
REMARK  9 active torsions:
REMARK  status: ('A' for Active; 'I' for Inactive)
REMARK    1  A    between atoms: C_1  and  C_2
REMARK    2  A    between atoms: C_2  and  C_3
REMARK    3  A    between atoms: C_2  and  C_4
REMARK    4  A    between atoms: C_2  and  C_5
REMARK    5  A    between atoms: C_5  and  C_6
REMARK    6  A    between atoms: N_8  and  C_9
REMARK    7  A    between atoms: N_12  and  C_13
REMARK    8  A    between atoms: C_18  and  S_19
REMARK    9  A    between atoms: S_19  and  C_20
REMARK                            x       y       z     vdW  Elec       q    Type
REMARK                         _______ _______ _______ _____ _____    ______ ____
ROOT
ATOM      1  C   UNL     1       1.722   8.471  19.306  0.00  0.00    +0.000 A 
ATOM      2  C   UNL     1       2.034   7.498  20.273  0.00  0.00    +0.000 A 
ATOM      3  N   UNL     1       2.739   6.485  19.768  0.00  0.00    +0.000 NA
ATOM      4  N   UNL     1       2.846   6.771  18.454  0.00  0.00    +0.000 N 
ATOM      5  C   UNL     1       2.190   7.944  18.131  0.00  0.00    +0.000 A 
ENDROOT
BRANCH   4   6
ATOM      6  C   UNL     1       3.758   6.053  17.638  0.00  0.00    +0.000 A 
ATOM      7  C   UNL     1       4.894   6.751  17.176  0.00  0.00    +0.000 A 
ATOM      8  C   UNL     1       5.897   6.092  16.465  0.00  0.00    +0.000 A 
ATOM      9  C   UNL     1       5.769   4.738  16.180  0.00  0.00    +0.000 A 
ATOM     10  C   UNL     1       4.644   4.040  16.612  0.00  0.00    +0.000 A 
ATOM     11  C   UNL     1       3.637   4.683  17.361  0.00  0.00    +0.000 A 
BRANCH  11  12
ATOM     12  S   UNL     1       2.186   3.701  17.729  0.00  0.00    +0.000 S 
ATOM     13  C   UNL     1       2.309   3.367  19.472  0.00  0.00    +0.000 C 
ATOM     14  O   UNL     1       0.999   4.468  17.414  0.00  0.00    +0.000 OA
ATOM     15  O   UNL     1       2.377   2.422  17.056  0.00  0.00    +0.000 OA
ENDBRANCH  11  12
ENDBRANCH   4   6
BRANCH   1  18
ATOM     16  C   UNL     1       0.027   9.901  20.263  0.00  0.00    +0.000 C 
ATOM     17  O   UNL     1      -0.484   9.042  20.981  0.00  0.00    +0.000 OA
ATOM     18  N   UNL     1       1.110   9.702  19.429  0.00  0.00    +0.000 N 
ATOM     19  H   UNL     1       1.570  10.500  19.011  0.00  0.00    +0.000 HD
BRANCH  16  20
ATOM     20  C   UNL     1      -0.525  11.312  20.236  0.00  0.00    +0.000 C 
BRANCH  20  22
ATOM     21  C   UNL     1      -0.788  12.542  18.022  0.00  0.00    +0.000 C 
ATOM     22  C   UNL     1      -1.451  11.587  19.030  0.00  0.00    +0.000 C 
ATOM     23  C   UNL     1      -2.790  12.186  19.490  0.00  0.00    +0.000 C 
ATOM     24  C   UNL     1      -1.722  10.248  18.321  0.00  0.00    +0.000 C 
ENDBRANCH  20  22
ENDBRANCH  16  20
ENDBRANCH   1  18
TORSDOF 5
ENDMDL
MODEL 6
REMARK VINA RESULT:      -6.4      1.942      2.577
REMARK  Name = 
REMARK  9 active torsions:
REMARK  status: ('A' for Active; 'I' for Inactive)
REMARK    1  A    between atoms: C_1  and  C_2
REMARK    2  A    between atoms: C_2  and  C_3
REMARK    3  A    between atoms: C_2  and  C_4
REMARK    4  A    between atoms: C_2  and  C_5
REMARK    5  A    between atoms: C_5  and  C_6
REMARK    6  A    between atoms: N_8  and  C_9
REMARK    7  A    between atoms: N_12  and  C_13
REMARK    8  A    between atoms: C_18  and  S_19
REMARK    9  A    between atoms: S_19  and  C_20
REMARK                            x       y       z     vdW  Elec       q    Type
REMARK                         _______ _______ _______ _____ _____    ______ ____
ROOT
ATOM      1  C   UNL     1       1.758   7.850  20.218  0.00  0.00    +0.000 A 
ATOM      2  C   UNL     1       1.124   8.055  21.457  0.00  0.00    +0.000 A 
ATOM      3  N   UNL     1       0.241   9.054  21.419  0.00  0.00    +0.000 NA
ATOM      4  N   UNL     1       0.334   9.539  20.163  0.00  0.00    +0.000 N 
ATOM      5  C   UNL     1       1.288   8.864  19.425  0.00  0.00    +0.000 A 
ENDROOT
BRANCH   4   6
ATOM      6  C   UNL     1      -0.646  10.438  19.669  0.00  0.00    +0.000 A 
ATOM      7  C   UNL     1      -1.383  10.028  18.538  0.00  0.00    +0.000 A 
ATOM      8  C   UNL     1      -2.440  10.800  18.056  0.00  0.00    +0.000 A 
ATOM      9  C   UNL     1      -2.760  12.002  18.677  0.00  0.00    +0.000 A 
ATOM     10  C   UNL     1      -2.029  12.429  19.783  0.00  0.00    +0.000 A 
ATOM     11  C   UNL     1      -0.978  11.645  20.302  0.00  0.00    +0.000 A 
BRANCH  11  12
ATOM     12  S   UNL     1      -0.037  12.380  21.637  0.00  0.00    +0.000 S 
ATOM     13  C   UNL     1      -0.453  14.108  21.570  0.00  0.00    +0.000 C 
ATOM     14  O   UNL     1      -0.442  11.781  22.891  0.00  0.00    +0.000 OA
ATOM     15  O   UNL     1       1.365  12.285  21.250  0.00  0.00    +0.000 OA
ENDBRANCH  11  12
ENDBRANCH   4   6
BRANCH   1  18
ATOM     16  C   UNL     1       2.410   5.531  20.042  0.00  0.00    +0.000 C 
ATOM     17  O   UNL     1       1.419   5.070  20.603  0.00  0.00    +0.000 OA
ATOM     18  N   UNL     1       2.642   6.873  19.807  0.00  0.00    +0.000 N 
ATOM     19  H   UNL     1       3.393   7.149  19.188  0.00  0.00    +0.000 HD
BRANCH  16  20
ATOM     20  C   UNL     1       3.511   4.617  19.542  0.00  0.00    +0.000 C 
BRANCH  20  22
ATOM     21  C   UNL     1       4.250   4.376  17.117  0.00  0.00    +0.000 C 
ATOM     22  C   UNL     1       3.202   3.975  18.171  0.00  0.00    +0.000 C 
ATOM     23  C   UNL     1       1.805   4.380  17.676  0.00  0.00    +0.000 C 
ATOM     24  C   UNL     1       3.247   2.446  18.339  0.00  0.00    +0.000 C 
ENDBRANCH  20  22
ENDBRANCH  16  20
ENDBRANCH   1  18
TORSDOF 5
ENDMDL
MODEL 7
REMARK VINA RESULT:      -6.3      2.514      7.906
REMARK  Name = 
REMARK  9 active torsions:
REMARK  status: ('A' for Active; 'I' for Inactive)
REMARK    1  A    between atoms: C_1  and  C_2
REMARK    2  A    between atoms: C_2  and  C_3
REMARK    3  A    between atoms: C_2  and  C_4
REMARK    4  A    between atoms: C_2  and  C_5
REMARK    5  A    between atoms: C_5  and  C_6
REMARK    6  A    between atoms: N_8  and  C_9
REMARK    7  A    between atoms: N_12  and  C_13
REMARK    8  A    between atoms: C_18  and  S_19
REMARK    9  A    between atoms: S_19  and  C_20
REMARK                            x       y       z     vdW  Elec       q    Type
REMARK                         _______ _______ _______ _____ _____    ______ ____
ROOT
ATOM      1  C   UNL     1       1.631   8.857  18.680  0.00  0.00    +0.000 A 
ATOM      2  C   UNL     1       1.870   8.117  19.851  0.00  0.00    +0.000 A 
ATOM      3  N   UNL     1       2.581   7.013  19.621  0.00  0.00    +0.000 NA
ATOM      4  N   UNL     1       2.765   7.003  18.284  0.00  0.00    +0.000 N 
ATOM      5  C   UNL     1       2.151   8.082  17.677  0.00  0.00    +0.000 A 
ENDROOT
BRANCH   4   6
ATOM      6  C   UNL     1       3.705   6.117  17.697  0.00  0.00    +0.000 A 
ATOM      7  C   UNL     1       4.889   6.685  17.182  0.00  0.00    +0.000 A 
ATOM      8  C   UNL     1       5.915   5.877  16.692  0.00  0.00    +0.000 A 
ATOM      9  C   UNL     1       5.764   4.495  16.683  0.00  0.00    +0.000 A 
ATOM     10  C   UNL     1       4.593   3.921  17.171  0.00  0.00    +0.000 A 
ATOM     11  C   UNL     1       3.560   4.721  17.700  0.00  0.00    +0.000 A 
BRANCH  11  12
ATOM     12  S   UNL     1       2.059   3.861  18.161  0.00  0.00    +0.000 S 
ATOM     13  C   UNL     1       2.388   2.158  17.768  0.00  0.00    +0.000 C 
ATOM     14  O   UNL     1       1.819   4.046  19.577  0.00  0.00    +0.000 OA
ATOM     15  O   UNL     1       1.031   4.302  17.226  0.00  0.00    +0.000 OA
ENDBRANCH  11  12
ENDBRANCH   4   6
BRANCH   1  18
ATOM     16  C   UNL     1      -0.055  10.495  19.238  0.00  0.00    +0.000 C 
ATOM     17  O   UNL     1      -0.592   9.837  20.127  0.00  0.00    +0.000 OA
ATOM     18  N   UNL     1       1.038  10.091  18.496  0.00  0.00    +0.000 N 
ATOM     19  H   UNL     1       1.520  10.761  17.911  0.00  0.00    +0.000 HD
BRANCH  16  20
ATOM     20  C   UNL     1      -0.581  11.867  18.867  0.00  0.00    +0.000 C 
BRANCH  20  22
ATOM     21  C   UNL     1       1.383  13.439  18.473  0.00  0.00    +0.000 C 
ATOM     22  C   UNL     1       0.263  13.025  19.444  0.00  0.00    +0.000 C 
ATOM     23  C   UNL     1       0.883  12.635  20.795  0.00  0.00    +0.000 C 
ATOM     24  C   UNL     1      -0.666  14.235  19.653  0.00  0.00    +0.000 C 
ENDBRANCH  20  22
ENDBRANCH  16  20
ENDBRANCH   1  18
TORSDOF 5
ENDMDL
MODEL 8
REMARK VINA RESULT:      -6.3      5.682      8.240
REMARK  Name = 
REMARK  9 active torsions:
REMARK  status: ('A' for Active; 'I' for Inactive)
REMARK    1  A    between atoms: C_1  and  C_2
REMARK    2  A    between atoms: C_2  and  C_3
REMARK    3  A    between atoms: C_2  and  C_4
REMARK    4  A    between atoms: C_2  and  C_5
REMARK    5  A    between atoms: C_5  and  C_6
REMARK    6  A    between atoms: N_8  and  C_9
REMARK    7  A    between atoms: N_12  and  C_13
REMARK    8  A    between atoms: C_18  and  S_19
REMARK    9  A    between atoms: S_19  and  C_20
REMARK                            x       y       z     vdW  Elec       q    Type
REMARK                         _______ _______ _______ _____ _____    ______ ____
ROOT
ATOM      1  C   UNL     1       8.007   8.710  17.945  0.00  0.00    +0.000 A 
ATOM      2  C   UNL     1       8.478   7.663  18.758  0.00  0.00    +0.000 A 
ATOM      3  N   UNL     1       7.913   6.493  18.463  0.00  0.00    +0.000 NA
ATOM      4  N   UNL     1       7.028   6.782  17.486  0.00  0.00    +0.000 N 
ATOM      5  C   UNL     1       7.022   8.132  17.188  0.00  0.00    +0.000 A 
ENDROOT
BRANCH   4   6
ATOM      6  C   UNL     1       6.427   5.741  16.733  0.00  0.00    +0.000 A 
ATOM      7  C   UNL     1       7.125   5.283  15.597  0.00  0.00    +0.000 A 
ATOM      8  C   UNL     1       6.663   4.189  14.867  0.00  0.00    +0.000 A 
ATOM      9  C   UNL     1       5.485   3.553  15.242  0.00  0.00    +0.000 A 
ATOM     10  C   UNL     1       4.774   4.005  16.351  0.00  0.00    +0.000 A 
ATOM     11  C   UNL     1       5.245   5.090  17.119  0.00  0.00    +0.000 A 
BRANCH  11  12
ATOM     12  S   UNL     1       4.162   5.652  18.430  0.00  0.00    +0.000 S 
ATOM     13  C   UNL     1       2.748   4.578  18.324  0.00  0.00    +0.000 C 
ATOM     14  O   UNL     1       4.842   5.516  19.701  0.00  0.00    +0.000 OA
ATOM     15  O   UNL     1       3.697   6.976  18.037  0.00  0.00    +0.000 OA
ENDBRANCH  11  12
ENDBRANCH   4   6
BRANCH   1  18
ATOM     16  C   UNL     1       9.006  10.688  18.906  0.00  0.00    +0.000 C 
ATOM     17  O   UNL     1       9.273  10.187  19.996  0.00  0.00    +0.000 OA
ATOM     18  N   UNL     1       8.400  10.030  17.853  0.00  0.00    +0.000 N 
ATOM     19  H   UNL     1       8.377  10.464  16.940  0.00  0.00    +0.000 HD
BRANCH  16  20
ATOM     20  C   UNL     1       9.335  12.140  18.621  0.00  0.00    +0.000 C 
BRANCH  20  22
ATOM     21  C   UNL     1      11.744  11.504  18.095  0.00  0.00    +0.000 C 
ATOM     22  C   UNL     1      10.824  12.488  18.840  0.00  0.00    +0.000 C 
ATOM     23  C   UNL     1      11.177  12.477  20.336  0.00  0.00    +0.000 C 
ATOM     24  C   UNL     1      11.072  13.900  18.280  0.00  0.00    +0.000 C 
ENDBRANCH  20  22
ENDBRANCH  16  20
ENDBRANCH   1  18
TORSDOF 5
ENDMDL
MODEL 9
REMARK VINA RESULT:      -6.3      1.948      2.599
REMARK  Name = 
REMARK  9 active torsions:
REMARK  status: ('A' for Active; 'I' for Inactive)
REMARK    1  A    between atoms: C_1  and  C_2
REMARK    2  A    between atoms: C_2  and  C_3
REMARK    3  A    between atoms: C_2  and  C_4
REMARK    4  A    between atoms: C_2  and  C_5
REMARK    5  A    between atoms: C_5  and  C_6
REMARK    6  A    between atoms: N_8  and  C_9
REMARK    7  A    between atoms: N_12  and  C_13
REMARK    8  A    between atoms: C_18  and  S_19
REMARK    9  A    between atoms: S_19  and  C_20
REMARK                            x       y       z     vdW  Elec       q    Type
REMARK                         _______ _______ _______ _____ _____    ______ ____
ROOT
ATOM      1  C   UNL     1       2.000   7.789  19.891  0.00  0.00    +0.000 A 
ATOM      2  C   UNL     1       1.481   8.334  21.079  0.00  0.00    +0.000 A 
ATOM      3  N   UNL     1       0.663   9.363  20.855  0.00  0.00    +0.000 NA
ATOM      4  N   UNL     1       0.686   9.526  19.515  0.00  0.00    +0.000 N 
ATOM      5  C   UNL     1       1.534   8.620  18.905  0.00  0.00    +0.000 A 
ENDROOT
BRANCH   4   6
ATOM      6  C   UNL     1      -0.270  10.359  18.879  0.00  0.00    +0.000 A 
ATOM      7  C   UNL     1      -1.508   9.774  18.541  0.00  0.00    +0.000 A 
ATOM      8  C   UNL     1      -2.544  10.547  18.017  0.00  0.00    +0.000 A 
ATOM      9  C   UNL     1      -2.352  11.906  17.798  0.00  0.00    +0.000 A 
ATOM     10  C   UNL     1      -1.129  12.495  18.110  0.00  0.00    +0.000 A 
ATOM     11  C   UNL     1      -0.082  11.734  18.670  0.00  0.00    +0.000 A 
BRANCH  11  12
ATOM     12  S   UNL     1       1.477  12.587  18.890  0.00  0.00    +0.000 S 
ATOM     13  C   UNL     1       1.701  12.651  20.653  0.00  0.00    +0.000 C 
ATOM     14  O   UNL     1       2.529  11.831  18.244  0.00  0.00    +0.000 OA
ATOM     15  O   UNL     1       1.254  13.962  18.460  0.00  0.00    +0.000 OA
ENDBRANCH  11  12
ENDBRANCH   4   6
BRANCH   1  18
ATOM     16  C   UNL     1       2.367   5.407  20.035  0.00  0.00    +0.000 C 
ATOM     17  O   UNL     1       1.284   5.134  20.549  0.00  0.00    +0.000 OA
ATOM     18  N   UNL     1       2.784   6.674  19.675  0.00  0.00    +0.000 N 
ATOM     19  H   UNL     1       3.610   6.783  19.102  0.00  0.00    +0.000 HD
BRANCH  16  20
ATOM     20  C   UNL     1       3.380   4.317  19.745  0.00  0.00    +0.000 C 
BRANCH  20  22
ATOM     21  C   UNL     1       1.873   4.071  17.707  0.00  0.00    +0.000 C 
ATOM     22  C   UNL     1       3.221   3.686  18.344  0.00  0.00    +0.000 C 
ATOM     23  C   UNL     1       3.329   2.154  18.414  0.00  0.00    +0.000 C 
ATOM     24  C   UNL     1       4.350   4.224  17.447  0.00  0.00    +0.000 C 
ENDBRANCH  20  22
ENDBRANCH  16  20
ENDBRANCH   1  18
TORSDOF 5
ENDMDL
