MODEL 1
REMARK VINA RESULT:      -8.8      0.000      0.000
REMARK  Name = 
REMARK  12 active torsions:
REMARK  status: ('A' for Active; 'I' for Inactive)
REMARK    1  A    between atoms: C_1  and  C_2
REMARK    2  A    between atoms: C_2  and  C_3
REMARK    3  A    between atoms: C_2  and  C_4
REMARK    4  A    between atoms: C_2  and  C_5
REMARK    5  A    between atoms: C_8  and  N_9
REMARK    6  A    between atoms: C_10  and  C_12
REMARK    7  A    between atoms: C_12  and  O_13
REMARK    8  A    between atoms: O_13  and  C_14
REMARK    9  A    between atoms: C_14  and  C_16
REMARK   10  A    between atoms: C_16  and  C_17
REMARK   11  A    between atoms: C_17  and  N_18
REMARK   12  A    between atoms: C_25  and  N_26
REMARK                            x       y       z     vdW  Elec       q    Type
REMARK                         _______ _______ _______ _____ _____    ______ ____
ROOT
ATOM      1  C   UNL     1       7.476   4.798  17.140  0.00  0.00    +0.000 C 
ATOM      2  O   UNL     1       8.015   4.124  18.008  0.00  0.00    +0.000 OA
ENDROOT
BRANCH   1   3
ATOM      3  O   UNL     1       7.541   6.156  17.090  0.00  0.00    +0.000 OA
BRANCH   3   4
ATOM      4  C   UNL     1       7.899   6.797  18.325  0.00  0.00    +0.000 C 
BRANCH   4   6
ATOM      5  N   UNL     1       8.976   8.886  19.062  0.00  0.00    +0.000 N 
ATOM      6  C   UNL     1       8.089   8.306  18.161  0.00  0.00    +0.000 C 
ATOM      7  O   UNL     1       7.453   8.889  17.286  0.00  0.00    +0.000 OA
ATOM      8  H   UNL     1       9.393   8.277  19.762  0.00  0.00    +0.000 HD
BRANCH   5  12
ATOM      9  C   UNL     1       9.978  13.045  19.296  0.00  0.00    +0.000 A 
ATOM     10  C   UNL     1       9.547  12.328  20.421  0.00  0.00    +0.000 A 
ATOM     11  C   UNL     1       9.216  10.972  20.352  0.00  0.00    +0.000 A 
ATOM     12  C   UNL     1       9.280  10.268  19.156  0.00  0.00    +0.000 A 
ATOM     13  C   UNL     1       9.682  10.970  18.012  0.00  0.00    +0.000 A 
ATOM     14  C   UNL     1      10.018  12.339  18.083  0.00  0.00    +0.000 A 
BRANCH   9  16
ATOM     15  C   UNL     1      10.847  14.890  20.837  0.00  0.00    +0.000 C 
ATOM     16  C   UNL     1      10.441  14.511  19.392  0.00  0.00    +0.000 C 
ATOM     17  C   UNL     1       9.341  15.497  18.942  0.00  0.00    +0.000 C 
ATOM     18  C   UNL     1      11.672  14.739  18.486  0.00  0.00    +0.000 C 
ENDBRANCH   9  16
ENDBRANCH   5  12
ENDBRANCH   4   6
ENDBRANCH   3   4
ENDBRANCH   1   3
BRANCH   1  19
ATOM     19  C   UNL     1       6.677   4.232  15.978  0.00  0.00    +0.000 C 
BRANCH  19  20
ATOM     20  C   UNL     1       5.306   4.937  15.883  0.00  0.00    +0.000 C 
BRANCH  20  21
ATOM     21  N   UNL     1       4.535   5.035  17.131  0.00  0.00    +0.000 N 
ATOM     22  C   UNL     1       3.966   3.924  17.673  0.00  0.00    +0.000 C 
ATOM     23  O   UNL     1       4.008   2.778  17.299  0.00  0.00    +0.000 OA
ATOM     24  C   UNL     1       3.154   4.361  18.797  0.00  0.00    +0.000 A 
ATOM     25  C   UNL     1       2.501   3.540  19.704  0.00  0.00    +0.000 A 
ATOM     26  C   UNL     1       1.735   4.142  20.694  0.00  0.00    +0.000 A 
ATOM     27  C   UNL     1       1.593   5.536  20.707  0.00  0.00    +0.000 A 
ATOM     28  C   UNL     1       2.274   6.335  19.755  0.00  0.00    +0.000 A 
ATOM     29  C   UNL     1       3.112   5.739  18.823  0.00  0.00    +0.000 A 
ATOM     30  C   UNL     1       4.048   6.179  17.754  0.00  0.00    +0.000 C 
ATOM     31  O   UNL     1       4.322   7.344  17.529  0.00  0.00    +0.000 OA
BRANCH  28  32
ATOM     32  N   UNL     1       1.922   7.736  19.719  0.00  0.00    +0.000 N 
ATOM     33  O   UNL     1       1.844   8.265  18.601  0.00  0.00    +0.000 OA
ATOM     34  O   UNL     1       1.882   8.328  20.803  0.00  0.00    +0.000 OA
ENDBRANCH  28  32
ENDBRANCH  20  21
ENDBRANCH  19  20
ENDBRANCH   1  19
TORSDOF 9
ENDMDL
MODEL 2
REMARK VINA RESULT:      -8.8      1.449      3.021
REMARK  Name = 
REMARK  12 active torsions:
REMARK  status: ('A' for Active; 'I' for Inactive)
REMARK    1  A    between atoms: C_1  and  C_2
REMARK    2  A    between atoms: C_2  and  C_3
REMARK    3  A    between atoms: C_2  and  C_4
REMARK    4  A    between atoms: C_2  and  C_5
REMARK    5  A    between atoms: C_8  and  N_9
REMARK    6  A    between atoms: C_10  and  C_12
REMARK    7  A    between atoms: C_12  and  O_13
REMARK    8  A    between atoms: O_13  and  C_14
REMARK    9  A    between atoms: C_14  and  C_16
REMARK   10  A    between atoms: C_16  and  C_17
REMARK   11  A    between atoms: C_17  and  N_18
REMARK   12  A    between atoms: C_25  and  N_26
REMARK                            x       y       z     vdW  Elec       q    Type
REMARK                         _______ _______ _______ _____ _____    ______ ____
ROOT
ATOM      1  C   UNL     1       6.640   6.570  16.565  0.00  0.00    +0.000 C 
ATOM      2  O   UNL     1       7.591   6.075  15.973  0.00  0.00    +0.000 OA
ENDROOT
BRANCH   1   3
ATOM      3  O   UNL     1       6.738   7.158  17.788  0.00  0.00    +0.000 OA
BRANCH   3   4
ATOM      4  C   UNL     1       8.074   7.477  18.209  0.00  0.00    +0.000 C 
BRANCH   4   6
ATOM      5  N   UNL     1       9.269   9.385  19.209  0.00  0.00    +0.000 N 
ATOM      6  C   UNL     1       8.316   8.985  18.279  0.00  0.00    +0.000 C 
ATOM      7  O   UNL     1       7.660   9.723  17.545  0.00  0.00    +0.000 OA
ATOM      8  H   UNL     1       9.697   8.657  19.778  0.00  0.00    +0.000 HD
BRANCH   5  12
ATOM      9  C   UNL     1      10.276  13.445  20.132  0.00  0.00    +0.000 A 
ATOM     10  C   UNL     1      10.718  12.827  18.955  0.00  0.00    +0.000 A 
ATOM     11  C   UNL     1      10.397  11.502  18.648  0.00  0.00    +0.000 A 
ATOM     12  C   UNL     1       9.633  10.722  19.507  0.00  0.00    +0.000 A 
ATOM     13  C   UNL     1       9.202  11.309  20.703  0.00  0.00    +0.000 A 
ATOM     14  C   UNL     1       9.525  12.648  21.012  0.00  0.00    +0.000 A 
BRANCH   9  16
ATOM     15  C   UNL     1      10.462  15.248  21.934  0.00  0.00    +0.000 C 
ATOM     16  C   UNL     1      10.543  14.935  20.421  0.00  0.00    +0.000 C 
ATOM     17  C   UNL     1       9.533  15.854  19.700  0.00  0.00    +0.000 C 
ATOM     18  C   UNL     1      11.957  15.325  19.938  0.00  0.00    +0.000 C 
ENDBRANCH   9  16
ENDBRANCH   5  12
ENDBRANCH   4   6
ENDBRANCH   3   4
ENDBRANCH   1   3
BRANCH   1  19
ATOM     19  C   UNL     1       5.221   6.625  16.028  0.00  0.00    +0.000 C 
BRANCH  19  20
ATOM     20  C   UNL     1       4.247   7.064  17.145  0.00  0.00    +0.000 C 
BRANCH  20  21
ATOM     21  N   UNL     1       3.619   5.986  17.923  0.00  0.00    +0.000 N 
ATOM     22  C   UNL     1       2.736   6.282  18.914  0.00  0.00    +0.000 C 
ATOM     23  O   UNL     1       2.321   7.354  19.279  0.00  0.00    +0.000 OA
ATOM     24  C   UNL     1       2.415   5.037  19.591  0.00  0.00    +0.000 A 
ATOM     25  C   UNL     1       1.459   4.865  20.581  0.00  0.00    +0.000 A 
ATOM     26  C   UNL     1       1.320   3.602  21.142  0.00  0.00    +0.000 A 
ATOM     27  C   UNL     1       2.183   2.570  20.744  0.00  0.00    +0.000 A 
ATOM     28  C   UNL     1       3.150   2.794  19.733  0.00  0.00    +0.000 A 
ATOM     29  C   UNL     1       3.226   4.031  19.109  0.00  0.00    +0.000 A 
ATOM     30  C   UNL     1       3.988   4.646  17.990  0.00  0.00    +0.000 C 
ATOM     31  O   UNL     1       4.761   4.033  17.276  0.00  0.00    +0.000 OA
BRANCH  28  32
ATOM     32  N   UNL     1       4.118   1.742  19.523  0.00  0.00    +0.000 N 
ATOM     33  O   UNL     1       3.851   0.902  18.653  0.00  0.00    +0.000 OA
ATOM     34  O   UNL     1       5.051   1.674  20.331  0.00  0.00    +0.000 OA
ENDBRANCH  28  32
ENDBRANCH  20  21
ENDBRANCH  19  20
ENDBRANCH   1  19
TORSDOF 9
ENDMDL
MODEL 3
REMARK VINA RESULT:      -8.6      5.305      8.007
REMARK  Name = 
REMARK  12 active torsions:
REMARK  status: ('A' for Active; 'I' for Inactive)
REMARK    1  A    between atoms: C_1  and  C_2
REMARK    2  A    between atoms: C_2  and  C_3
REMARK    3  A    between atoms: C_2  and  C_4
REMARK    4  A    between atoms: C_2  and  C_5
REMARK    5  A    between atoms: C_8  and  N_9
REMARK    6  A    between atoms: C_10  and  C_12
REMARK    7  A    between atoms: C_12  and  O_13
REMARK    8  A    between atoms: O_13  and  C_14
REMARK    9  A    between atoms: C_14  and  C_16
REMARK   10  A    between atoms: C_16  and  C_17
REMARK   11  A    between atoms: C_17  and  N_18
REMARK   12  A    between atoms: C_25  and  N_26
REMARK                            x       y       z     vdW  Elec       q    Type
REMARK                         _______ _______ _______ _____ _____    ______ ____
ROOT
ATOM      1  C   UNL     1       1.506   4.261  20.663  0.00  0.00    +0.000 C 
ATOM      2  O   UNL     1       0.405   4.162  20.137  0.00  0.00    +0.000 OA
ENDROOT
BRANCH   1   3
ATOM      3  O   UNL     1       2.071   5.449  21.011  0.00  0.00    +0.000 OA
BRANCH   3   4
ATOM      4  C   UNL     1       2.441   6.297  19.913  0.00  0.00    +0.000 C 
BRANCH   4   6
ATOM      5  N   UNL     1       0.988   7.878  21.119  0.00  0.00    +0.000 N 
ATOM      6  C   UNL     1       1.814   7.688  20.016  0.00  0.00    +0.000 C 
ATOM      7  O   UNL     1       2.059   8.513  19.138  0.00  0.00    +0.000 OA
ATOM      8  H   UNL     1       0.847   7.082  21.737  0.00  0.00    +0.000 HD
BRANCH   5  12
ATOM      9  C   UNL     1      -1.198  11.470  21.936  0.00  0.00    +0.000 A 
ATOM     10  C   UNL     1      -0.695  10.665  22.967  0.00  0.00    +0.000 A 
ATOM     11  C   UNL     1       0.016   9.490  22.708  0.00  0.00    +0.000 A 
ATOM     12  C   UNL     1       0.247   9.051  21.411  0.00  0.00    +0.000 A 
ATOM     13  C   UNL     1      -0.269   9.825  20.364  0.00  0.00    +0.000 A 
ATOM     14  C   UNL     1      -0.986  11.012  20.625  0.00  0.00    +0.000 A 
BRANCH   9  16
ATOM     15  C   UNL     1      -1.209  13.583  23.375  0.00  0.00    +0.000 C 
ATOM     16  C   UNL     1      -1.892  12.817  22.217  0.00  0.00    +0.000 C 
ATOM     17  C   UNL     1      -3.379  12.635  22.591  0.00  0.00    +0.000 C 
ATOM     18  C   UNL     1      -1.833  13.717  20.963  0.00  0.00    +0.000 C 
ENDBRANCH   9  16
ENDBRANCH   5  12
ENDBRANCH   4   6
ENDBRANCH   3   4
ENDBRANCH   1   3
BRANCH   1  19
ATOM     19  C   UNL     1       2.398   3.087  21.027  0.00  0.00    +0.000 C 
BRANCH  19  20
ATOM     20  C   UNL     1       2.918   2.397  19.746  0.00  0.00    +0.000 C 
BRANCH  20  21
ATOM     21  N   UNL     1       3.727   3.227  18.841  0.00  0.00    +0.000 N 
ATOM     22  C   UNL     1       3.422   3.293  17.517  0.00  0.00    +0.000 C 
ATOM     23  O   UNL     1       2.517   2.775  16.909  0.00  0.00    +0.000 OA
ATOM     24  C   UNL     1       4.478   4.053  16.869  0.00  0.00    +0.000 A 
ATOM     25  C   UNL     1       4.497   4.464  15.544  0.00  0.00    +0.000 A 
ATOM     26  C   UNL     1       5.617   5.151  15.091  0.00  0.00    +0.000 A 
ATOM     27  C   UNL     1       6.704   5.346  15.954  0.00  0.00    +0.000 A 
ATOM     28  C   UNL     1       6.642   4.901  17.298  0.00  0.00    +0.000 A 
ATOM     29  C   UNL     1       5.488   4.298  17.775  0.00  0.00    +0.000 A 
ATOM     30  C   UNL     1       4.977   3.789  19.076  0.00  0.00    +0.000 C 
ATOM     31  O   UNL     1       5.577   3.898  20.131  0.00  0.00    +0.000 OA
BRANCH  28  32
ATOM     32  N   UNL     1       7.870   4.970  18.056  0.00  0.00    +0.000 N 
ATOM     33  O   UNL     1       8.654   4.017  17.938  0.00  0.00    +0.000 OA
ATOM     34  O   UNL     1       7.968   5.889  18.878  0.00  0.00    +0.000 OA
ENDBRANCH  28  32
ENDBRANCH  20  21
ENDBRANCH  19  20
ENDBRANCH   1  19
TORSDOF 9
ENDMDL
MODEL 4
REMARK VINA RESULT:      -8.3      6.360      9.973
REMARK  Name = 
REMARK  12 active torsions:
REMARK  status: ('A' for Active; 'I' for Inactive)
REMARK    1  A    between atoms: C_1  and  C_2
REMARK    2  A    between atoms: C_2  and  C_3
REMARK    3  A    between atoms: C_2  and  C_4
REMARK    4  A    between atoms: C_2  and  C_5
REMARK    5  A    between atoms: C_8  and  N_9
REMARK    6  A    between atoms: C_10  and  C_12
REMARK    7  A    between atoms: C_12  and  O_13
REMARK    8  A    between atoms: O_13  and  C_14
REMARK    9  A    between atoms: C_14  and  C_16
REMARK   10  A    between atoms: C_16  and  C_17
REMARK   11  A    between atoms: C_17  and  N_18
REMARK   12  A    between atoms: C_25  and  N_26
REMARK                            x       y       z     vdW  Elec       q    Type
REMARK                         _______ _______ _______ _____ _____    ______ ____
ROOT
ATOM      1  C   UNL     1      -1.204  11.879  22.923  0.00  0.00    +0.000 C 
ATOM      2  O   UNL     1      -2.418  11.878  23.083  0.00  0.00    +0.000 OA
ENDROOT
BRANCH   1   3
ATOM      3  O   UNL     1      -0.378  10.917  23.417  0.00  0.00    +0.000 OA
BRANCH   3   4
ATOM      4  C   UNL     1      -0.560   9.607  22.857  0.00  0.00    +0.000 C 
BRANCH   4   6
ATOM      5  N   UNL     1       0.467   8.240  21.084  0.00  0.00    +0.000 N 
ATOM      6  C   UNL     1       0.699   9.096  22.155  0.00  0.00    +0.000 C 
ATOM      7  O   UNL     1       1.798   9.449  22.581  0.00  0.00    +0.000 OA
ATOM      8  H   UNL     1      -0.501   8.004  20.879  0.00  0.00    +0.000 HD
BRANCH   5  12
ATOM      9  C   UNL     1       3.416   6.293  18.661  0.00  0.00    +0.000 A 
ATOM     10  C   UNL     1       2.923   5.706  19.835  0.00  0.00    +0.000 A 
ATOM     11  C   UNL     1       1.964   6.336  20.632  0.00  0.00    +0.000 A 
ATOM     12  C   UNL     1       1.460   7.589  20.308  0.00  0.00    +0.000 A 
ATOM     13  C   UNL     1       1.956   8.209  19.154  0.00  0.00    +0.000 A 
ATOM     14  C   UNL     1       2.924   7.571  18.349  0.00  0.00    +0.000 A 
BRANCH   9  16
ATOM     15  C   UNL     1       3.760   4.279  17.125  0.00  0.00    +0.000 C 
ATOM     16  C   UNL     1       4.395   5.555  17.729  0.00  0.00    +0.000 C 
ATOM     17  C   UNL     1       5.685   5.131  18.463  0.00  0.00    +0.000 C 
ATOM     18  C   UNL     1       4.805   6.473  16.556  0.00  0.00    +0.000 C 
ENDBRANCH   9  16
ENDBRANCH   5  12
ENDBRANCH   4   6
ENDBRANCH   3   4
ENDBRANCH   1   3
BRANCH   1  19
ATOM     19  C   UNL     1      -0.436  12.929  22.139  0.00  0.00    +0.000 C 
BRANCH  19  20
ATOM     20  C   UNL     1      -1.344  13.553  21.056  0.00  0.00    +0.000 C 
BRANCH  20  21
ATOM     21  N   UNL     1      -1.919  12.623  20.072  0.00  0.00    +0.000 N 
ATOM     22  C   UNL     1      -1.113  11.992  19.175  0.00  0.00    +0.000 C 
ATOM     23  O   UNL     1       0.086  12.041  19.051  0.00  0.00    +0.000 OA
ATOM     24  C   UNL     1      -1.976  11.275  18.252  0.00  0.00    +0.000 A 
ATOM     25  C   UNL     1      -1.565  10.399  17.258  0.00  0.00    +0.000 A 
ATOM     26  C   UNL     1      -2.538   9.835  16.442  0.00  0.00    +0.000 A 
ATOM     27  C   UNL     1      -3.878  10.213  16.603  0.00  0.00    +0.000 A 
ATOM     28  C   UNL     1      -4.251  11.117  17.628  0.00  0.00    +0.000 A 
ATOM     29  C   UNL     1      -3.291  11.608  18.501  0.00  0.00    +0.000 A 
ATOM     30  C   UNL     1      -3.254  12.463  19.718  0.00  0.00    +0.000 C 
ATOM     31  O   UNL     1      -4.247  12.892  20.277  0.00  0.00    +0.000 OA
BRANCH  28  32
ATOM     32  N   UNL     1      -5.614  11.597  17.600  0.00  0.00    +0.000 N 
ATOM     33  O   UNL     1      -6.473  10.874  18.124  0.00  0.00    +0.000 OA
ATOM     34  O   UNL     1      -5.834  12.607  16.921  0.00  0.00    +0.000 OA
ENDBRANCH  28  32
ENDBRANCH  20  21
ENDBRANCH  19  20
ENDBRANCH   1  19
TORSDOF 9
ENDMDL
MODEL 5
REMARK VINA RESULT:      -8.2      1.774      2.732
REMARK  Name = 
REMARK  12 active torsions:
REMARK  status: ('A' for Active; 'I' for Inactive)
REMARK    1  A    between atoms: C_1  and  C_2
REMARK    2  A    between atoms: C_2  and  C_3
REMARK    3  A    between atoms: C_2  and  C_4
REMARK    4  A    between atoms: C_2  and  C_5
REMARK    5  A    between atoms: C_8  and  N_9
REMARK    6  A    between atoms: C_10  and  C_12
REMARK    7  A    between atoms: C_12  and  O_13
REMARK    8  A    between atoms: O_13  and  C_14
REMARK    9  A    between atoms: C_14  and  C_16
REMARK   10  A    between atoms: C_16  and  C_17
REMARK   11  A    between atoms: C_17  and  N_18
REMARK   12  A    between atoms: C_25  and  N_26
REMARK                            x       y       z     vdW  Elec       q    Type
REMARK                         _______ _______ _______ _____ _____    ______ ____
ROOT
ATOM      1  C   UNL     1       7.204   5.173  15.714  0.00  0.00    +0.000 C 
ATOM      2  O   UNL     1       7.317   5.473  14.533  0.00  0.00    +0.000 OA
ENDROOT
BRANCH   1   3
ATOM      3  O   UNL     1       7.814   5.849  16.725  0.00  0.00    +0.000 OA
BRANCH   3   4
ATOM      4  C   UNL     1       7.055   6.936  17.281  0.00  0.00    +0.000 C 
BRANCH   4   6
ATOM      5  N   UNL     1       7.819   9.259  17.576  0.00  0.00    +0.000 N 
ATOM      6  C   UNL     1       7.940   7.945  18.015  0.00  0.00    +0.000 C 
ATOM      7  O   UNL     1       8.687   7.539  18.903  0.00  0.00    +0.000 OA
ATOM      8  H   UNL     1       7.188   9.433  16.796  0.00  0.00    +0.000 HD
BRANCH   5  12
ATOM      9  C   UNL     1      10.059  12.578  19.101  0.00  0.00    +0.000 A 
ATOM     10  C   UNL     1       9.116  12.735  18.076  0.00  0.00    +0.000 A 
ATOM     11  C   UNL     1       8.383  11.657  17.571  0.00  0.00    +0.000 A 
ATOM     12  C   UNL     1       8.566  10.367  18.050  0.00  0.00    +0.000 A 
ATOM     13  C   UNL     1       9.523  10.179  19.056  0.00  0.00    +0.000 A 
ATOM     14  C   UNL     1      10.261  11.268  19.567  0.00  0.00    +0.000 A 
BRANCH   9  16
ATOM     15  C   UNL     1      10.318  14.045  21.178  0.00  0.00    +0.000 C 
ATOM     16  C   UNL     1      10.790  13.779  19.728  0.00  0.00    +0.000 C 
ATOM     17  C   UNL     1      10.570  15.077  18.921  0.00  0.00    +0.000 C 
ATOM     18  C   UNL     1      12.311  13.510  19.774  0.00  0.00    +0.000 C 
ENDBRANCH   9  16
ENDBRANCH   5  12
ENDBRANCH   4   6
ENDBRANCH   3   4
ENDBRANCH   1   3
BRANCH   1  19
ATOM     19  C   UNL     1       6.356   4.027  16.238  0.00  0.00    +0.000 C 
BRANCH  19  20
ATOM     20  C   UNL     1       4.865   4.282  15.925  0.00  0.00    +0.000 C 
BRANCH  20  21
ATOM     21  N   UNL     1       3.984   4.494  17.083  0.00  0.00    +0.000 N 
ATOM     22  C   UNL     1       3.677   5.756  17.488  0.00  0.00    +0.000 C 
ATOM     23  O   UNL     1       4.000   6.817  17.012  0.00  0.00    +0.000 OA
ATOM     24  C   UNL     1       2.930   5.641  18.729  0.00  0.00    +0.000 A 
ATOM     25  C   UNL     1       2.316   6.678  19.416  0.00  0.00    +0.000 A 
ATOM     26  C   UNL     1       1.678   6.380  20.613  0.00  0.00    +0.000 A 
ATOM     27  C   UNL     1       1.730   5.073  21.118  0.00  0.00    +0.000 A 
ATOM     28  C   UNL     1       2.376   4.047  20.385  0.00  0.00    +0.000 A 
ATOM     29  C   UNL     1       2.933   4.326  19.145  0.00  0.00    +0.000 A 
ATOM     30  C   UNL     1       3.591   3.571  18.046  0.00  0.00    +0.000 C 
ATOM     31  O   UNL     1       3.712   2.358  18.032  0.00  0.00    +0.000 OA
BRANCH  28  32
ATOM     32  N   UNL     1       2.550   2.782  21.063  0.00  0.00    +0.000 N 
ATOM     33  O   UNL     1       1.528   2.239  21.504  0.00  0.00    +0.000 OA
ATOM     34  O   UNL     1       3.713   2.425  21.286  0.00  0.00    +0.000 OA
ENDBRANCH  28  32
ENDBRANCH  20  21
ENDBRANCH  19  20
ENDBRANCH   1  19
TORSDOF 9
ENDMDL
MODEL 6
REMARK VINA RESULT:      -8.2      4.643      7.958
REMARK  Name = 
REMARK  12 active torsions:
REMARK  status: ('A' for Active; 'I' for Inactive)
REMARK    1  A    between atoms: C_1  and  C_2
REMARK    2  A    between atoms: C_2  and  C_3
REMARK    3  A    between atoms: C_2  and  C_4
REMARK    4  A    between atoms: C_2  and  C_5
REMARK    5  A    between atoms: C_8  and  N_9
REMARK    6  A    between atoms: C_10  and  C_12
REMARK    7  A    between atoms: C_12  and  O_13
REMARK    8  A    between atoms: O_13  and  C_14
REMARK    9  A    between atoms: C_14  and  C_16
REMARK   10  A    between atoms: C_16  and  C_17
REMARK   11  A    between atoms: C_17  and  N_18
REMARK   12  A    between atoms: C_25  and  N_26
REMARK                            x       y       z     vdW  Elec       q    Type
REMARK                         _______ _______ _______ _____ _____    ______ ____
ROOT
ATOM      1  C   UNL     1       1.202   3.486  20.225  0.00  0.00    +0.000 C 
ATOM      2  O   UNL     1       1.270   2.729  21.185  0.00  0.00    +0.000 OA
ENDROOT
BRANCH   1   3
ATOM      3  O   UNL     1       0.905   4.810  20.330  0.00  0.00    +0.000 OA
BRANCH   3   4
ATOM      4  C   UNL     1       2.036   5.680  20.501  0.00  0.00    +0.000 C 
BRANCH   4   6
ATOM      5  N   UNL     1       0.737   7.557  21.427  0.00  0.00    +0.000 N 
ATOM      6  C   UNL     1       1.643   7.157  20.450  0.00  0.00    +0.000 C 
ATOM      7  O   UNL     1       2.124   7.867  19.568  0.00  0.00    +0.000 OA
ATOM      8  H   UNL     1       0.393   6.841  22.063  0.00  0.00    +0.000 HD
BRANCH   5  12
ATOM      9  C   UNL     1      -1.030  11.432  21.888  0.00  0.00    +0.000 A 
ATOM     10  C   UNL     1      -0.661  10.937  20.630  0.00  0.00    +0.000 A 
ATOM     11  C   UNL     1      -0.081   9.676  20.471  0.00  0.00    +0.000 A 
ATOM     12  C   UNL     1       0.175   8.852  21.560  0.00  0.00    +0.000 A 
ATOM     13  C   UNL     1      -0.160   9.336  22.831  0.00  0.00    +0.000 A 
ATOM     14  C   UNL     1      -0.747  10.609  22.990  0.00  0.00    +0.000 A 
BRANCH   9  16
ATOM     15  C   UNL     1      -1.286  13.540  23.311  0.00  0.00    +0.000 C 
ATOM     16  C   UNL     1      -1.763  12.778  22.052  0.00  0.00    +0.000 C 
ATOM     17  C   UNL     1      -3.291  12.593  22.169  0.00  0.00    +0.000 C 
ATOM     18  C   UNL     1      -1.494  13.682  20.829  0.00  0.00    +0.000 C 
ENDBRANCH   9  16
ENDBRANCH   5  12
ENDBRANCH   4   6
ENDBRANCH   3   4
ENDBRANCH   1   3
BRANCH   1  19
ATOM     19  C   UNL     1       1.457   3.081  18.784  0.00  0.00    +0.000 C 
BRANCH  19  20
ATOM     20  C   UNL     1       2.802   2.329  18.673  0.00  0.00    +0.000 C 
BRANCH  20  21
ATOM     21  N   UNL     1       3.982   3.148  18.360  0.00  0.00    +0.000 N 
ATOM     22  C   UNL     1       4.781   3.609  19.360  0.00  0.00    +0.000 C 
ATOM     23  O   UNL     1       4.704   3.428  20.550  0.00  0.00    +0.000 OA
ATOM     24  C   UNL     1       5.755   4.502  18.756  0.00  0.00    +0.000 A 
ATOM     25  C   UNL     1       6.835   5.091  19.398  0.00  0.00    +0.000 A 
ATOM     26  C   UNL     1       7.640   5.952  18.662  0.00  0.00    +0.000 A 
ATOM     27  C   UNL     1       7.303   6.248  17.334  0.00  0.00    +0.000 A 
ATOM     28  C   UNL     1       6.186   5.627  16.722  0.00  0.00    +0.000 A 
ATOM     29  C   UNL     1       5.437   4.697  17.428  0.00  0.00    +0.000 A 
ATOM     30  C   UNL     1       4.298   3.780  17.161  0.00  0.00    +0.000 C 
ATOM     31  O   UNL     1       3.790   3.628  16.064  0.00  0.00    +0.000 OA
BRANCH  28  32
ATOM     32  N   UNL     1       5.800   6.130  15.424  0.00  0.00    +0.000 N 
ATOM     33  O   UNL     1       4.931   7.014  15.402  0.00  0.00    +0.000 OA
ATOM     34  O   UNL     1       6.249   5.533  14.438  0.00  0.00    +0.000 OA
ENDBRANCH  28  32
ENDBRANCH  20  21
ENDBRANCH  19  20
ENDBRANCH   1  19
TORSDOF 9
ENDMDL
MODEL 7
REMARK VINA RESULT:      -8.0      5.034      8.046
REMARK  Name = 
REMARK  12 active torsions:
REMARK  status: ('A' for Active; 'I' for Inactive)
REMARK    1  A    between atoms: C_1  and  C_2
REMARK    2  A    between atoms: C_2  and  C_3
REMARK    3  A    between atoms: C_2  and  C_4
REMARK    4  A    between atoms: C_2  and  C_5
REMARK    5  A    between atoms: C_8  and  N_9
REMARK    6  A    between atoms: C_10  and  C_12
REMARK    7  A    between atoms: C_12  and  O_13
REMARK    8  A    between atoms: O_13  and  C_14
REMARK    9  A    between atoms: C_14  and  C_16
REMARK   10  A    between atoms: C_16  and  C_17
REMARK   11  A    between atoms: C_17  and  N_18
REMARK   12  A    between atoms: C_25  and  N_26
REMARK                            x       y       z     vdW  Elec       q    Type
REMARK                         _______ _______ _______ _____ _____    ______ ____
ROOT
ATOM      1  C   UNL     1       1.529   4.025  19.120  0.00  0.00    +0.000 C 
ATOM      2  O   UNL     1       0.931   3.443  18.225  0.00  0.00    +0.000 OA
ENDROOT
BRANCH   1   3
ATOM      3  O   UNL     1       1.716   5.373  19.149  0.00  0.00    +0.000 OA
BRANCH   3   4
ATOM      4  C   UNL     1       1.894   5.938  20.458  0.00  0.00    +0.000 C 
BRANCH   4   6
ATOM      5  N   UNL     1       0.527   7.746  21.423  0.00  0.00    +0.000 N 
ATOM      6  C   UNL     1       1.519   7.421  20.504  0.00  0.00    +0.000 C 
ATOM      7  O   UNL     1       2.087   8.198  19.740  0.00  0.00    +0.000 OA
ATOM      8  H   UNL     1       0.118   6.981  21.956  0.00  0.00    +0.000 HD
BRANCH   5  12
ATOM      9  C   UNL     1      -1.244  11.593  22.072  0.00  0.00    +0.000 A 
ATOM     10  C   UNL     1      -0.863  11.164  20.793  0.00  0.00    +0.000 A 
ATOM     11  C   UNL     1      -0.282   9.912  20.573  0.00  0.00    +0.000 A 
ATOM     12  C   UNL     1      -0.036   9.032  21.619  0.00  0.00    +0.000 A 
ATOM     13  C   UNL     1      -0.384   9.448  22.911  0.00  0.00    +0.000 A 
ATOM     14  C   UNL     1      -0.972  10.712  23.132  0.00  0.00    +0.000 A 
BRANCH   9  16
ATOM     15  C   UNL     1      -3.390  12.711  22.895  0.00  0.00    +0.000 C 
ATOM     16  C   UNL     1      -1.978  12.928  22.300  0.00  0.00    +0.000 C 
ATOM     17  C   UNL     1      -2.141  13.730  20.991  0.00  0.00    +0.000 C 
ATOM     18  C   UNL     1      -1.183  13.808  23.290  0.00  0.00    +0.000 C 
ENDBRANCH   9  16
ENDBRANCH   5  12
ENDBRANCH   4   6
ENDBRANCH   3   4
ENDBRANCH   1   3
BRANCH   1  19
ATOM     19  C   UNL     1       2.131   3.349  20.340  0.00  0.00    +0.000 C 
BRANCH  19  20
ATOM     20  C   UNL     1       3.596   2.948  20.056  0.00  0.00    +0.000 C 
BRANCH  20  21
ATOM     21  N   UNL     1       4.238   3.599  18.905  0.00  0.00    +0.000 N 
ATOM     22  C   UNL     1       4.288   2.966  17.701  0.00  0.00    +0.000 C 
ATOM     23  O   UNL     1       3.839   1.894  17.377  0.00  0.00    +0.000 OA
ATOM     24  C   UNL     1       5.109   3.780  16.821  0.00  0.00    +0.000 A 
ATOM     25  C   UNL     1       5.318   3.567  15.466  0.00  0.00    +0.000 A 
ATOM     26  C   UNL     1       6.172   4.433  14.794  0.00  0.00    +0.000 A 
ATOM     27  C   UNL     1       6.839   5.438  15.507  0.00  0.00    +0.000 A 
ATOM     28  C   UNL     1       6.600   5.614  16.893  0.00  0.00    +0.000 A 
ATOM     29  C   UNL     1       5.677   4.808  17.544  0.00  0.00    +0.000 A 
ATOM     30  C   UNL     1       5.076   4.709  18.900  0.00  0.00    +0.000 C 
ATOM     31  O   UNL     1       5.291   5.504  19.798  0.00  0.00    +0.000 OA
BRANCH  28  32
ATOM     32  N   UNL     1       7.466   6.541  17.584  0.00  0.00    +0.000 N 
ATOM     33  O   UNL     1       8.065   6.110  18.580  0.00  0.00    +0.000 OA
ATOM     34  O   UNL     1       7.419   7.722  17.224  0.00  0.00    +0.000 OA
ENDBRANCH  28  32
ENDBRANCH  20  21
ENDBRANCH  19  20
ENDBRANCH   1  19
TORSDOF 9
ENDMDL
MODEL 8
REMARK VINA RESULT:      -8.0      4.698      6.903
REMARK  Name = 
REMARK  12 active torsions:
REMARK  status: ('A' for Active; 'I' for Inactive)
REMARK    1  A    between atoms: C_1  and  C_2
REMARK    2  A    between atoms: C_2  and  C_3
REMARK    3  A    between atoms: C_2  and  C_4
REMARK    4  A    between atoms: C_2  and  C_5
REMARK    5  A    between atoms: C_8  and  N_9
REMARK    6  A    between atoms: C_10  and  C_12
REMARK    7  A    between atoms: C_12  and  O_13
REMARK    8  A    between atoms: O_13  and  C_14
REMARK    9  A    between atoms: C_14  and  C_16
REMARK   10  A    between atoms: C_16  and  C_17
REMARK   11  A    between atoms: C_17  and  N_18
REMARK   12  A    between atoms: C_25  and  N_26
REMARK                            x       y       z     vdW  Elec       q    Type
REMARK                         _______ _______ _______ _____ _____    ______ ____
ROOT
ATOM      1  C   UNL     1       5.412   6.939  16.942  0.00  0.00    +0.000 C 
ATOM      2  O   UNL     1       5.098   7.003  15.760  0.00  0.00    +0.000 OA
ENDROOT
BRANCH   1   3
ATOM      3  O   UNL     1       4.578   7.276  17.963  0.00  0.00    +0.000 OA
BRANCH   3   4
ATOM      4  C   UNL     1       3.178   7.094  17.696  0.00  0.00    +0.000 C 
BRANCH   4   6
ATOM      5  N   UNL     1       1.994   8.331  19.467  0.00  0.00    +0.000 N 
ATOM      6  C   UNL     1       2.345   8.303  18.121  0.00  0.00    +0.000 C 
ATOM      7  O   UNL     1       2.035   9.136  17.271  0.00  0.00    +0.000 OA
ATOM      8  H   UNL     1       2.288   7.543  20.040  0.00  0.00    +0.000 HD
BRANCH   5  12
ATOM      9  C   UNL     1      -0.528  11.215  21.384  0.00  0.00    +0.000 A 
ATOM     10  C   UNL     1       0.083  11.477  20.151  0.00  0.00    +0.000 A 
ATOM     11  C   UNL     1       0.910  10.543  19.520  0.00  0.00    +0.000 A 
ATOM     12  C   UNL     1       1.181   9.308  20.096  0.00  0.00    +0.000 A 
ATOM     13  C   UNL     1       0.603   9.032  21.341  0.00  0.00    +0.000 A 
ATOM     14  C   UNL     1      -0.233   9.976  21.977  0.00  0.00    +0.000 A 
BRANCH   9  16
ATOM     15  C   UNL     1      -2.204  11.593  23.276  0.00  0.00    +0.000 C 
ATOM     16  C   UNL     1      -1.520  12.201  22.029  0.00  0.00    +0.000 C 
ATOM     17  C   UNL     1      -2.633  12.627  21.047  0.00  0.00    +0.000 C 
ATOM     18  C   UNL     1      -0.780  13.480  22.479  0.00  0.00    +0.000 C 
ENDBRANCH   9  16
ENDBRANCH   5  12
ENDBRANCH   4   6
ENDBRANCH   3   4
ENDBRANCH   1   3
BRANCH   1  19
ATOM     19  C   UNL     1       6.759   6.458  17.453  0.00  0.00    +0.000 C 
BRANCH  19  20
ATOM     20  C   UNL     1       6.822   4.914  17.413  0.00  0.00    +0.000 C 
BRANCH  20  21
ATOM     21  N   UNL     1       5.632   4.201  17.898  0.00  0.00    +0.000 N 
ATOM     22  C   UNL     1       4.756   3.651  17.014  0.00  0.00    +0.000 C 
ATOM     23  O   UNL     1       4.799   3.617  15.809  0.00  0.00    +0.000 OA
ATOM     24  C   UNL     1       3.622   3.161  17.779  0.00  0.00    +0.000 A 
ATOM     25  C   UNL     1       2.559   2.420  17.286  0.00  0.00    +0.000 A 
ATOM     26  C   UNL     1       1.541   2.073  18.166  0.00  0.00    +0.000 A 
ATOM     27  C   UNL     1       1.586   2.532  19.490  0.00  0.00    +0.000 A 
ATOM     28  C   UNL     1       2.689   3.294  19.948  0.00  0.00    +0.000 A 
ATOM     29  C   UNL     1       3.749   3.561  19.093  0.00  0.00    +0.000 A 
ATOM     30  C   UNL     1       5.084   4.210  19.176  0.00  0.00    +0.000 C 
ATOM     31  O   UNL     1       5.573   4.629  20.211  0.00  0.00    +0.000 OA
BRANCH  28  32
ATOM     32  N   UNL     1       2.563   3.886  21.260  0.00  0.00    +0.000 N 
ATOM     33  O   UNL     1       2.527   3.108  22.223  0.00  0.00    +0.000 OA
ATOM     34  O   UNL     1       2.344   5.102  21.304  0.00  0.00    +0.000 OA
ENDBRANCH  28  32
ENDBRANCH  20  21
ENDBRANCH  19  20
ENDBRANCH   1  19
TORSDOF 9
ENDMDL
MODEL 9
REMARK VINA RESULT:      -8.0      4.558      7.709
REMARK  Name = 
REMARK  12 active torsions:
REMARK  status: ('A' for Active; 'I' for Inactive)
REMARK    1  A    between atoms: C_1  and  C_2
REMARK    2  A    between atoms: C_2  and  C_3
REMARK    3  A    between atoms: C_2  and  C_4
REMARK    4  A    between atoms: C_2  and  C_5
REMARK    5  A    between atoms: C_8  and  N_9
REMARK    6  A    between atoms: C_10  and  C_12
REMARK    7  A    between atoms: C_12  and  O_13
REMARK    8  A    between atoms: O_13  and  C_14
REMARK    9  A    between atoms: C_14  and  C_16
REMARK   10  A    between atoms: C_16  and  C_17
REMARK   11  A    between atoms: C_17  and  N_18
REMARK   12  A    between atoms: C_25  and  N_26
REMARK                            x       y       z     vdW  Elec       q    Type
REMARK                         _______ _______ _______ _____ _____    ______ ____
ROOT
ATOM      1  C   UNL     1       1.661   4.281  18.507  0.00  0.00    +0.000 C 
ATOM      2  O   UNL     1       1.225   4.487  17.382  0.00  0.00    +0.000 OA
ENDROOT
BRANCH   1   3
ATOM      3  O   UNL     1       2.020   5.271  19.369  0.00  0.00    +0.000 OA
BRANCH   3   4
ATOM      4  C   UNL     1       2.679   6.397  18.768  0.00  0.00    +0.000 C 
BRANCH   4   6
ATOM      5  N   UNL     1       1.602   7.947  20.351  0.00  0.00    +0.000 N 
ATOM      6  C   UNL     1       1.933   7.708  19.022  0.00  0.00    +0.000 C 
ATOM      7  O   UNL     1       1.668   8.432  18.064  0.00  0.00    +0.000 OA
ATOM      8  H   UNL     1       1.850   7.229  21.029  0.00  0.00    +0.000 HD
BRANCH   5  12
ATOM      9  C   UNL     1      -0.703  11.237  21.840  0.00  0.00    +0.000 A 
ATOM     10  C   UNL     1       0.050  11.339  20.663  0.00  0.00    +0.000 A 
ATOM     11  C   UNL     1       0.807  10.272  20.172  0.00  0.00    +0.000 A 
ATOM     12  C   UNL     1       0.864   9.055  20.839  0.00  0.00    +0.000 A 
ATOM     13  C   UNL     1       0.142   8.936  22.033  0.00  0.00    +0.000 A 
ATOM     14  C   UNL     1      -0.624  10.014  22.527  0.00  0.00    +0.000 A 
BRANCH   9  16
ATOM     15  C   UNL     1      -0.805  13.548  22.927  0.00  0.00    +0.000 C 
ATOM     16  C   UNL     1      -1.618  12.377  22.326  0.00  0.00    +0.000 C 
ATOM     17  C   UNL     1      -2.615  11.900  23.403  0.00  0.00    +0.000 C 
ATOM     18  C   UNL     1      -2.441  12.938  21.144  0.00  0.00    +0.000 C 
ENDBRANCH   9  16
ENDBRANCH   5  12
ENDBRANCH   4   6
ENDBRANCH   3   4
ENDBRANCH   1   3
BRANCH   1  19
ATOM     19  C   UNL     1       1.847   2.905  19.123  0.00  0.00    +0.000 C 
BRANCH  19  20
ATOM     20  C   UNL     1       3.106   2.227  18.537  0.00  0.00    +0.000 C 
BRANCH  20  21
ATOM     21  N   UNL     1       4.250   3.107  18.257  0.00  0.00    +0.000 N 
ATOM     22  C   UNL     1       4.959   3.655  19.281  0.00  0.00    +0.000 C 
ATOM     23  O   UNL     1       4.825   3.514  20.471  0.00  0.00    +0.000 OA
ATOM     24  C   UNL     1       5.910   4.586  18.696  0.00  0.00    +0.000 A 
ATOM     25  C   UNL     1       6.913   5.266  19.372  0.00  0.00    +0.000 A 
ATOM     26  C   UNL     1       7.704   6.149  18.648  0.00  0.00    +0.000 A 
ATOM     27  C   UNL     1       7.427   6.373  17.292  0.00  0.00    +0.000 A 
ATOM     28  C   UNL     1       6.388   5.660  16.645  0.00  0.00    +0.000 A 
ATOM     29  C   UNL     1       5.658   4.711  17.346  0.00  0.00    +0.000 A 
ATOM     30  C   UNL     1       4.595   3.713  17.053  0.00  0.00    +0.000 C 
ATOM     31  O   UNL     1       4.162   3.489  15.937  0.00  0.00    +0.000 OA
BRANCH  28  32
ATOM     32  N   UNL     1       6.047   6.089  15.308  0.00  0.00    +0.000 N 
ATOM     33  O   UNL     1       6.770   5.680  14.388  0.00  0.00    +0.000 OA
ATOM     34  O   UNL     1       5.166   6.951  15.207  0.00  0.00    +0.000 OA
ENDBRANCH  28  32
ENDBRANCH  20  21
ENDBRANCH  19  20
ENDBRANCH   1  19
TORSDOF 9
ENDMDL
