MODEL 1
REMARK VINA RESULT:      -7.2      0.000      0.000
REMARK  Name = 
REMARK  5 active torsions:
REMARK  status: ('A' for Active; 'I' for Inactive)
REMARK    1  A    between atoms: C_1  and  C_2
REMARK    2  A    between atoms: C_6  and  C_7
REMARK    3  A    between atoms: C_19  and  C_20
REMARK    4  A    between atoms: C_21  and  N_22
REMARK    5  A    between atoms: C_26  and  N_27
REMARK                            x       y       z     vdW  Elec       q    Type
REMARK                         _______ _______ _______ _____ _____    ______ ____
ROOT
ATOM      1  C   UNL     1      -4.392  13.760  23.072  0.00  0.00    +0.000 A 
ATOM      2  C   UNL     1      -4.317  13.164  21.813  0.00  0.00    +0.000 A 
ATOM      3  C   UNL     1      -5.515  12.686  21.271  0.00  0.00    +0.000 A 
ATOM      4  C   UNL     1      -6.709  12.788  21.983  0.00  0.00    +0.000 A 
ATOM      5  C   UNL     1      -6.703  13.352  23.257  0.00  0.00    +0.000 A 
ATOM      6  N   UNL     1      -5.555  13.850  23.775  0.00  0.00    +0.000 NA
ATOM      7  C   UNL     1      -7.685  12.250  21.133  0.00  0.00    +0.000 A 
ATOM      8  N   UNL     1      -7.189  11.853  19.963  0.00  0.00    +0.000 NA
ATOM      9  N   UNL     1      -5.843  12.093  20.055  0.00  0.00    +0.000 N 
ATOM     10  C   UNL     1      -4.978  11.754  18.970  0.00  0.00    +0.000 A 
ATOM     11  C   UNL     1      -5.567  11.305  17.800  0.00  0.00    +0.000 A 
ATOM     12  N   UNL     1      -4.850  10.995  16.702  0.00  0.00    +0.000 NA
ATOM     13  C   UNL     1      -3.498  11.130  16.809  0.00  0.00    +0.000 A 
ATOM     14  C   UNL     1      -2.780  10.922  15.507  0.00  0.00    +0.000 C 
ATOM     15  C   UNL     1      -2.857  11.521  18.012  0.00  0.00    +0.000 A 
ATOM     16  N   UNL     1      -3.623  11.871  19.083  0.00  0.00    +0.000 NA
ENDROOT
BRANCH   1  22
ATOM     17  C   UNL     1       0.169  15.396  22.681  0.00  0.00    +0.000 C 
ATOM     18  C   UNL     1      -1.037  15.150  23.528  0.00  0.00    +0.000 A 
ATOM     19  C   UNL     1      -1.048  15.478  24.877  0.00  0.00    +0.000 A 
ATOM     20  N   UNL     1      -2.118  15.268  25.676  0.00  0.00    +0.000 NA
ATOM     21  C   UNL     1      -3.187  14.697  25.058  0.00  0.00    +0.000 A 
ATOM     22  C   UNL     1      -3.209  14.363  23.709  0.00  0.00    +0.000 A 
ATOM     23  N   UNL     1      -2.119  14.605  22.919  0.00  0.00    +0.000 NA
ENDBRANCH   1  22
BRANCH  15  24
ATOM     24  N   UNL     1      -1.479  11.590  18.152  0.00  0.00    +0.000 N 
ATOM     25  C   UNL     1      -0.816  12.886  18.312  0.00  0.00    +0.000 C 
ATOM     26  C   UNL     1      -0.144  13.016  19.677  0.00  0.00    +0.000 C 
ATOM     27  C   UNL     1       0.787  11.838  19.961  0.00  0.00    +0.000 C 
ATOM     28  C   UNL     1       0.005  10.530  19.878  0.00  0.00    +0.000 C 
ATOM     29  C   UNL     1      -0.713  10.399  18.518  0.00  0.00    +0.000 C 
BRANCH  28  30
ATOM     30  N   UNL     1       0.905   9.393  20.126  0.00  0.00    +0.000 NA
ATOM     31  H   UNL     1       1.618   9.656  20.805  0.00  0.00    +0.000 HD
ATOM     32  H   UNL     1       1.406   9.164  19.266  0.00  0.00    +0.000 HD
ENDBRANCH  28  30
ENDBRANCH  15  24
TORSDOF 3
ENDMDL
MODEL 2
REMARK VINA RESULT:      -7.0      1.508      6.232
REMARK  Name = 
REMARK  5 active torsions:
REMARK  status: ('A' for Active; 'I' for Inactive)
REMARK    1  A    between atoms: C_1  and  C_2
REMARK    2  A    between atoms: C_6  and  C_7
REMARK    3  A    between atoms: C_19  and  C_20
REMARK    4  A    between atoms: C_21  and  N_22
REMARK    5  A    between atoms: C_26  and  N_27
REMARK                            x       y       z     vdW  Elec       q    Type
REMARK                         _______ _______ _______ _____ _____    ______ ____
ROOT
ATOM      1  C   UNL     1      -2.457  11.386  18.118  0.00  0.00    +0.000 A 
ATOM      2  C   UNL     1      -3.438  11.792  19.024  0.00  0.00    +0.000 A 
ATOM      3  C   UNL     1      -4.743  11.902  18.531  0.00  0.00    +0.000 A 
ATOM      4  C   UNL     1      -5.022  11.640  17.191  0.00  0.00    +0.000 A 
ATOM      5  C   UNL     1      -3.985  11.285  16.330  0.00  0.00    +0.000 A 
ATOM      6  N   UNL     1      -2.725  11.141  16.805  0.00  0.00    +0.000 NA
ATOM      7  C   UNL     1      -6.407  11.813  17.069  0.00  0.00    +0.000 A 
ATOM      8  N   UNL     1      -6.991  12.135  18.221  0.00  0.00    +0.000 NA
ATOM      9  N   UNL     1      -5.962  12.221  19.121  0.00  0.00    +0.000 N 
ATOM     10  C   UNL     1      -6.225  12.583  20.478  0.00  0.00    +0.000 A 
ATOM     11  C   UNL     1      -7.549  12.711  20.860  0.00  0.00    +0.000 A 
ATOM     12  N   UNL     1      -7.912  13.010  22.123  0.00  0.00    +0.000 NA
ATOM     13  C   UNL     1      -6.897  13.200  23.011  0.00  0.00    +0.000 A 
ATOM     14  C   UNL     1      -7.373  13.372  24.425  0.00  0.00    +0.000 C 
ATOM     15  C   UNL     1      -5.529  13.145  22.640  0.00  0.00    +0.000 A 
ATOM     16  N   UNL     1      -5.207  12.793  21.363  0.00  0.00    +0.000 NA
ENDROOT
BRANCH   1  22
ATOM     17  C   UNL     1       1.617   8.750  17.822  0.00  0.00    +0.000 C 
ATOM     18  C   UNL     1       0.883   9.917  18.399  0.00  0.00    +0.000 A 
ATOM     19  C   UNL     1       1.492  10.771  19.308  0.00  0.00    +0.000 A 
ATOM     20  N   UNL     1       0.861  11.835  19.855  0.00  0.00    +0.000 NA
ATOM     21  C   UNL     1      -0.428  12.000  19.453  0.00  0.00    +0.000 A 
ATOM     22  C   UNL     1      -1.064  11.165  18.541  0.00  0.00    +0.000 A 
ATOM     23  N   UNL     1      -0.395  10.108  17.988  0.00  0.00    +0.000 NA
ENDBRANCH   1  22
BRANCH  15  24
ATOM     24  N   UNL     1      -4.490  13.411  23.519  0.00  0.00    +0.000 N 
ATOM     25  C   UNL     1      -3.508  12.372  23.838  0.00  0.00    +0.000 C 
ATOM     26  C   UNL     1      -2.108  12.745  23.353  0.00  0.00    +0.000 C 
ATOM     27  C   UNL     1      -1.689  14.126  23.853  0.00  0.00    +0.000 C 
ATOM     28  C   UNL     1      -2.704  15.171  23.395  0.00  0.00    +0.000 C 
ATOM     29  C   UNL     1      -4.131  14.791  23.845  0.00  0.00    +0.000 C 
BRANCH  28  30
ATOM     30  N   UNL     1      -2.315  16.498  23.897  0.00  0.00    +0.000 NA
ATOM     31  H   UNL     1      -3.089  17.153  23.783  0.00  0.00    +0.000 HD
ATOM     32  H   UNL     1      -1.551  16.865  23.328  0.00  0.00    +0.000 HD
ENDBRANCH  28  30
ENDBRANCH  15  24
TORSDOF 3
ENDMDL
MODEL 3
REMARK VINA RESULT:      -7.0      8.662     11.734
REMARK  Name = 
REMARK  5 active torsions:
REMARK  status: ('A' for Active; 'I' for Inactive)
REMARK    1  A    between atoms: C_1  and  C_2
REMARK    2  A    between atoms: C_6  and  C_7
REMARK    3  A    between atoms: C_19  and  C_20
REMARK    4  A    between atoms: C_21  and  N_22
REMARK    5  A    between atoms: C_26  and  N_27
REMARK                            x       y       z     vdW  Elec       q    Type
REMARK                         _______ _______ _______ _____ _____    ______ ____
ROOT
ATOM      1  C   UNL     1       5.368  14.160  22.609  0.00  0.00    +0.000 A 
ATOM      2  C   UNL     1       6.230  14.724  21.668  0.00  0.00    +0.000 A 
ATOM      3  C   UNL     1       5.688  15.695  20.820  0.00  0.00    +0.000 A 
ATOM      4  C   UNL     1       4.342  16.048  20.911  0.00  0.00    +0.000 A 
ATOM      5  C   UNL     1       3.526  15.409  21.842  0.00  0.00    +0.000 A 
ATOM      6  N   UNL     1       4.050  14.494  22.692  0.00  0.00    +0.000 NA
ATOM      7  C   UNL     1       4.166  17.054  19.951  0.00  0.00    +0.000 A 
ATOM      8  N   UNL     1       5.291  17.355  19.306  0.00  0.00    +0.000 NA
ATOM      9  N   UNL     1       6.227  16.496  19.818  0.00  0.00    +0.000 N 
ATOM     10  C   UNL     1       7.568  16.520  19.324  0.00  0.00    +0.000 A 
ATOM     11  C   UNL     1       7.898  17.514  18.420  0.00  0.00    +0.000 A 
ATOM     12  N   UNL     1       9.142  17.654  17.921  0.00  0.00    +0.000 NA
ATOM     13  C   UNL     1      10.064  16.744  18.342  0.00  0.00    +0.000 A 
ATOM     14  C   UNL     1      11.457  17.053  17.872  0.00  0.00    +0.000 C 
ATOM     15  C   UNL     1       9.745  15.671  19.213  0.00  0.00    +0.000 A 
ATOM     16  N   UNL     1       8.487  15.595  19.731  0.00  0.00    +0.000 NA
ENDROOT
BRANCH   1  22
ATOM     17  C   UNL     1       5.128  12.337  27.109  0.00  0.00    +0.000 C 
ATOM     18  C   UNL     1       5.731  12.305  25.742  0.00  0.00    +0.000 A 
ATOM     19  C   UNL     1       6.714  11.381  25.411  0.00  0.00    +0.000 A 
ATOM     20  N   UNL     1       7.285  11.321  24.188  0.00  0.00    +0.000 NA
ATOM     21  C   UNL     1       6.831  12.248  23.302  0.00  0.00    +0.000 A 
ATOM     22  C   UNL     1       5.845  13.181  23.601  0.00  0.00    +0.000 A 
ATOM     23  N   UNL     1       5.270  13.206  24.842  0.00  0.00    +0.000 NA
ENDBRANCH   1  22
BRANCH  15  24
ATOM     24  N   UNL     1      10.658  14.697  19.588  0.00  0.00    +0.000 N 
ATOM     25  C   UNL     1      10.631  14.142  20.943  0.00  0.00    +0.000 C 
ATOM     26  C   UNL     1      10.280  12.655  20.941  0.00  0.00    +0.000 C 
ATOM     27  C   UNL     1      11.185  11.865  19.998  0.00  0.00    +0.000 C 
ATOM     28  C   UNL     1      11.082  12.434  18.585  0.00  0.00    +0.000 C 
ATOM     29  C   UNL     1      11.397  13.945  18.573  0.00  0.00    +0.000 C 
BRANCH  28  30
ATOM     30  N   UNL     1      11.971  11.690  17.680  0.00  0.00    +0.000 NA
ATOM     31  H   UNL     1      11.427  11.036  17.118  0.00  0.00    +0.000 HD
ATOM     32  H   UNL     1      12.615  11.120  18.230  0.00  0.00    +0.000 HD
ENDBRANCH  28  30
ENDBRANCH  15  24
TORSDOF 3
ENDMDL
MODEL 4
REMARK VINA RESULT:      -6.9      9.269     11.551
REMARK  Name = 
REMARK  5 active torsions:
REMARK  status: ('A' for Active; 'I' for Inactive)
REMARK    1  A    between atoms: C_1  and  C_2
REMARK    2  A    between atoms: C_6  and  C_7
REMARK    3  A    between atoms: C_19  and  C_20
REMARK    4  A    between atoms: C_21  and  N_22
REMARK    5  A    between atoms: C_26  and  N_27
REMARK                            x       y       z     vdW  Elec       q    Type
REMARK                         _______ _______ _______ _____ _____    ______ ____
ROOT
ATOM      1  C   UNL     1       5.596  14.510  22.881  0.00  0.00    +0.000 A 
ATOM      2  C   UNL     1       6.400  14.856  21.795  0.00  0.00    +0.000 A 
ATOM      3  C   UNL     1       6.028  15.996  21.074  0.00  0.00    +0.000 A 
ATOM      4  C   UNL     1       4.891  16.720  21.426  0.00  0.00    +0.000 A 
ATOM      5  C   UNL     1       4.106  16.291  22.495  0.00  0.00    +0.000 A 
ATOM      6  N   UNL     1       4.478  15.209  23.220  0.00  0.00    +0.000 NA
ATOM      7  C   UNL     1       4.851  17.794  20.526  0.00  0.00    +0.000 A 
ATOM      8  N   UNL     1       5.877  17.792  19.676  0.00  0.00    +0.000 NA
ATOM      9  N   UNL     1       6.590  16.666  19.991  0.00  0.00    +0.000 N 
ATOM     10  C   UNL     1       7.761  16.327  19.247  0.00  0.00    +0.000 A 
ATOM     11  C   UNL     1       8.203  17.237  18.302  0.00  0.00    +0.000 A 
ATOM     12  N   UNL     1       9.319  17.038  17.572  0.00  0.00    +0.000 NA
ATOM     13  C   UNL     1       9.986  15.873  17.800  0.00  0.00    +0.000 A 
ATOM     14  C   UNL     1      11.296  15.791  17.071  0.00  0.00    +0.000 C 
ATOM     15  C   UNL     1       9.525  14.887  18.710  0.00  0.00    +0.000 A 
ATOM     16  N   UNL     1       8.420  15.150  19.462  0.00  0.00    +0.000 NA
ENDROOT
BRANCH   1  22
ATOM     17  C   UNL     1       4.949  12.158  27.086  0.00  0.00    +0.000 C 
ATOM     18  C   UNL     1       5.623  12.244  25.755  0.00  0.00    +0.000 A 
ATOM     19  C   UNL     1       6.540  11.284  25.349  0.00  0.00    +0.000 A 
ATOM     20  N   UNL     1       7.172  11.329  24.155  0.00  0.00    +0.000 NA
ATOM     21  C   UNL     1       6.849  12.399  23.380  0.00  0.00    +0.000 A 
ATOM     22  C   UNL     1       5.931  13.373  23.755  0.00  0.00    +0.000 A 
ATOM     23  N   UNL     1       5.292  13.292  24.962  0.00  0.00    +0.000 NA
ENDBRANCH   1  22
BRANCH  15  24
ATOM     24  N   UNL     1      10.156  13.666  18.895  0.00  0.00    +0.000 N 
ATOM     25  C   UNL     1      10.944  13.417  20.104  0.00  0.00    +0.000 C 
ATOM     26  C   UNL     1      10.336  12.309  20.960  0.00  0.00    +0.000 C 
ATOM     27  C   UNL     1      10.088  11.040  20.146  0.00  0.00    +0.000 C 
ATOM     28  C   UNL     1       9.177  11.356  18.963  0.00  0.00    +0.000 C 
ATOM     29  C   UNL     1       9.758  12.501  18.106  0.00  0.00    +0.000 C 
BRANCH  28  30
ATOM     30  N   UNL     1       8.957  10.141  18.163  0.00  0.00    +0.000 NA
ATOM     31  H   UNL     1       9.270  10.294  17.205  0.00  0.00    +0.000 HD
ATOM     32  H   UNL     1       7.956   9.949  18.105  0.00  0.00    +0.000 HD
ENDBRANCH  28  30
ENDBRANCH  15  24
TORSDOF 3
ENDMDL
MODEL 5
REMARK VINA RESULT:      -6.9      1.450      6.135
REMARK  Name = 
REMARK  5 active torsions:
REMARK  status: ('A' for Active; 'I' for Inactive)
REMARK    1  A    between atoms: C_1  and  C_2
REMARK    2  A    between atoms: C_6  and  C_7
REMARK    3  A    between atoms: C_19  and  C_20
REMARK    4  A    between atoms: C_21  and  N_22
REMARK    5  A    between atoms: C_26  and  N_27
REMARK                            x       y       z     vdW  Elec       q    Type
REMARK                         _______ _______ _______ _____ _____    ______ ____
ROOT
ATOM      1  C   UNL     1      -2.641  11.393  18.020  0.00  0.00    +0.000 A 
ATOM      2  C   UNL     1      -3.568  11.810  18.976  0.00  0.00    +0.000 A 
ATOM      3  C   UNL     1      -4.887  11.984  18.540  0.00  0.00    +0.000 A 
ATOM      4  C   UNL     1      -5.229  11.771  17.206  0.00  0.00    +0.000 A 
ATOM      5  C   UNL     1      -4.242  11.402  16.294  0.00  0.00    +0.000 A 
ATOM      6  N   UNL     1      -2.970  11.196  16.713  0.00  0.00    +0.000 NA
ATOM      7  C   UNL     1      -6.611  12.000  17.145  0.00  0.00    +0.000 A 
ATOM      8  N   UNL     1      -7.135  12.310  18.329  0.00  0.00    +0.000 NA
ATOM      9  N   UNL     1      -6.068  12.331  19.188  0.00  0.00    +0.000 N 
ATOM     10  C   UNL     1      -6.262  12.663  20.564  0.00  0.00    +0.000 A 
ATOM     11  C   UNL     1      -7.564  12.831  21.004  0.00  0.00    +0.000 A 
ATOM     12  N   UNL     1      -7.864  13.106  22.288  0.00  0.00    +0.000 NA
ATOM     13  C   UNL     1      -6.808  13.232  23.139  0.00  0.00    +0.000 A 
ATOM     14  C   UNL     1      -7.221  13.381  24.575  0.00  0.00    +0.000 C 
ATOM     15  C   UNL     1      -5.459  13.136  22.710  0.00  0.00    +0.000 A 
ATOM     16  N   UNL     1      -5.202  12.809  21.412  0.00  0.00    +0.000 NA
ENDROOT
BRANCH   1  22
ATOM     17  C   UNL     1       1.365  12.640  20.475  0.00  0.00    +0.000 C 
ATOM     18  C   UNL     1       0.669  11.694  19.551  0.00  0.00    +0.000 A 
ATOM     19  C   UNL     1       1.318  10.577  19.042  0.00  0.00    +0.000 A 
ATOM     20  N   UNL     1       0.724   9.700  18.202  0.00  0.00    +0.000 NA
ATOM     21  C   UNL     1      -0.563  10.002  17.881  0.00  0.00    +0.000 A 
ATOM     22  C   UNL     1      -1.242  11.108  18.378  0.00  0.00    +0.000 A 
ATOM     23  N   UNL     1      -0.622  11.969  19.243  0.00  0.00    +0.000 NA
ENDBRANCH   1  22
BRANCH  15  24
ATOM     24  N   UNL     1      -4.376  13.337  23.553  0.00  0.00    +0.000 N 
ATOM     25  C   UNL     1      -3.418  12.256  23.795  0.00  0.00    +0.000 C 
ATOM     26  C   UNL     1      -2.028  12.599  23.264  0.00  0.00    +0.000 C 
ATOM     27  C   UNL     1      -1.541  13.948  23.791  0.00  0.00    +0.000 C 
ATOM     28  C   UNL     1      -2.537  15.041  23.412  0.00  0.00    +0.000 C 
ATOM     29  C   UNL     1      -3.957  14.692  23.908  0.00  0.00    +0.000 C 
BRANCH  28  30
ATOM     30  N   UNL     1      -2.083  16.336  23.941  0.00  0.00    +0.000 NA
ATOM     31  H   UNL     1      -2.755  16.688  24.623  0.00  0.00    +0.000 HD
ATOM     32  H   UNL     1      -2.064  17.023  23.185  0.00  0.00    +0.000 HD
ENDBRANCH  28  30
ENDBRANCH  15  24
TORSDOF 3
ENDMDL
MODEL 6
REMARK VINA RESULT:      -6.8      1.720      6.020
REMARK  Name = 
REMARK  5 active torsions:
REMARK  status: ('A' for Active; 'I' for Inactive)
REMARK    1  A    between atoms: C_1  and  C_2
REMARK    2  A    between atoms: C_6  and  C_7
REMARK    3  A    between atoms: C_19  and  C_20
REMARK    4  A    between atoms: C_21  and  N_22
REMARK    5  A    between atoms: C_26  and  N_27
REMARK                            x       y       z     vdW  Elec       q    Type
REMARK                         _______ _______ _______ _____ _____    ______ ____
ROOT
ATOM      1  C   UNL     1      -1.576  12.158  18.832  0.00  0.00    +0.000 A 
ATOM      2  C   UNL     1      -2.741  12.359  19.573  0.00  0.00    +0.000 A 
ATOM      3  C   UNL     1      -3.942  11.957  18.980  0.00  0.00    +0.000 A 
ATOM      4  C   UNL     1      -3.954  11.408  17.698  0.00  0.00    +0.000 A 
ATOM      5  C   UNL     1      -2.758  11.280  16.995  0.00  0.00    +0.000 A 
ATOM      6  N   UNL     1      -1.586  11.633  17.575  0.00  0.00    +0.000 NA
ATOM      7  C   UNL     1      -5.298  11.097  17.450  0.00  0.00    +0.000 A 
ATOM      8  N   UNL     1      -6.094  11.389  18.476  0.00  0.00    +0.000 NA
ATOM      9  N   UNL     1      -5.265  11.949  19.412  0.00  0.00    +0.000 N 
ATOM     10  C   UNL     1      -5.797  12.416  20.653  0.00  0.00    +0.000 A 
ATOM     11  C   UNL     1      -7.133  12.163  20.912  0.00  0.00    +0.000 A 
ATOM     12  N   UNL     1      -7.728  12.523  22.066  0.00  0.00    +0.000 NA
ATOM     13  C   UNL     1      -6.942  13.173  22.969  0.00  0.00    +0.000 A 
ATOM     14  C   UNL     1      -7.624  13.402  24.288  0.00  0.00    +0.000 C 
ATOM     15  C   UNL     1      -5.589  13.510  22.711  0.00  0.00    +0.000 A 
ATOM     16  N   UNL     1      -5.014  13.085  21.550  0.00  0.00    +0.000 NA
ENDROOT
BRANCH   1  22
ATOM     17  C   UNL     1       2.810  14.166  18.233  0.00  0.00    +0.000 C 
ATOM     18  C   UNL     1       1.842  13.436  19.107  0.00  0.00    +0.000 A 
ATOM     19  C   UNL     1       2.179  13.065  20.402  0.00  0.00    +0.000 A 
ATOM     20  N   UNL     1       1.332  12.401  21.221  0.00  0.00    +0.000 NA
ATOM     21  C   UNL     1       0.121  12.113  20.674  0.00  0.00    +0.000 A 
ATOM     22  C   UNL     1      -0.248  12.475  19.384  0.00  0.00    +0.000 A 
ATOM     23  N   UNL     1       0.622  13.164  18.583  0.00  0.00    +0.000 NA
ENDBRANCH   1  22
BRANCH  15  24
ATOM     24  N   UNL     1      -4.803  14.237  23.592  0.00  0.00    +0.000 N 
ATOM     25  C   UNL     1      -3.730  13.579  24.340  0.00  0.00    +0.000 C 
ATOM     26  C   UNL     1      -2.354  14.115  23.951  0.00  0.00    +0.000 C 
ATOM     27  C   UNL     1      -2.295  15.638  24.051  0.00  0.00    +0.000 C 
ATOM     28  C   UNL     1      -3.374  16.257  23.166  0.00  0.00    +0.000 C 
ATOM     29  C   UNL     1      -4.768  15.697  23.521  0.00  0.00    +0.000 C 
BRANCH  28  30
ATOM     30  N   UNL     1      -3.335  17.723  23.280  0.00  0.00    +0.000 NA
ATOM     31  H   UNL     1      -2.657  18.105  22.621  0.00  0.00    +0.000 HD
ATOM     32  H   UNL     1      -3.000  17.981  24.209  0.00  0.00    +0.000 HD
ENDBRANCH  28  30
ENDBRANCH  15  24
TORSDOF 3
ENDMDL
MODEL 7
REMARK VINA RESULT:      -6.7      0.895      1.047
REMARK  Name = 
REMARK  5 active torsions:
REMARK  status: ('A' for Active; 'I' for Inactive)
REMARK    1  A    between atoms: C_1  and  C_2
REMARK    2  A    between atoms: C_6  and  C_7
REMARK    3  A    between atoms: C_19  and  C_20
REMARK    4  A    between atoms: C_21  and  N_22
REMARK    5  A    between atoms: C_26  and  N_27
REMARK                            x       y       z     vdW  Elec       q    Type
REMARK                         _______ _______ _______ _____ _____    ______ ____
ROOT
ATOM      1  C   UNL     1      -4.279  14.215  22.832  0.00  0.00    +0.000 A 
ATOM      2  C   UNL     1      -4.216  13.515  21.627  0.00  0.00    +0.000 A 
ATOM      3  C   UNL     1      -5.423  13.014  21.126  0.00  0.00    +0.000 A 
ATOM      4  C   UNL     1      -6.614  13.195  21.828  0.00  0.00    +0.000 A 
ATOM      5  C   UNL     1      -6.596  13.864  23.050  0.00  0.00    +0.000 A 
ATOM      6  N   UNL     1      -5.439  14.383  23.526  0.00  0.00    +0.000 NA
ATOM      7  C   UNL     1      -7.600  12.605  21.026  0.00  0.00    +0.000 A 
ATOM      8  N   UNL     1      -7.112  12.104  19.893  0.00  0.00    +0.000 NA
ATOM      9  N   UNL     1      -5.762  12.328  19.965  0.00  0.00    +0.000 N 
ATOM     10  C   UNL     1      -4.905  11.885  18.911  0.00  0.00    +0.000 A 
ATOM     11  C   UNL     1      -5.503  11.350  17.783  0.00  0.00    +0.000 A 
ATOM     12  N   UNL     1      -4.793  10.938  16.714  0.00  0.00    +0.000 NA
ATOM     13  C   UNL     1      -3.439  11.058  16.810  0.00  0.00    +0.000 A 
ATOM     14  C   UNL     1      -2.726  10.730  15.529  0.00  0.00    +0.000 C 
ATOM     15  C   UNL     1      -2.789  11.537  17.976  0.00  0.00    +0.000 A 
ATOM     16  N   UNL     1      -3.547  11.987  19.015  0.00  0.00    +0.000 NA
ENDROOT
BRANCH   1  22
ATOM     17  C   UNL     1      -1.987  18.258  24.260  0.00  0.00    +0.000 C 
ATOM     18  C   UNL     1      -1.989  16.771  24.104  0.00  0.00    +0.000 A 
ATOM     19  C   UNL     1      -0.900  16.005  24.498  0.00  0.00    +0.000 A 
ATOM     20  N   UNL     1      -0.864  14.659  24.371  0.00  0.00    +0.000 NA
ATOM     21  C   UNL     1      -1.977  14.109  23.815  0.00  0.00    +0.000 A 
ATOM     22  C   UNL     1      -3.085  14.849  23.417  0.00  0.00    +0.000 A 
ATOM     23  N   UNL     1      -3.102  16.207  23.575  0.00  0.00    +0.000 NA
ENDBRANCH   1  22
BRANCH  15  24
ATOM     24  N   UNL     1      -1.410  11.593  18.110  0.00  0.00    +0.000 N 
ATOM     25  C   UNL     1      -0.736  12.883  18.272  0.00  0.00    +0.000 C 
ATOM     26  C   UNL     1      -0.056  13.002  19.634  0.00  0.00    +0.000 C 
ATOM     27  C   UNL     1       0.866  11.816  19.909  0.00  0.00    +0.000 C 
ATOM     28  C   UNL     1       0.073  10.514  19.825  0.00  0.00    +0.000 C 
ATOM     29  C   UNL     1      -0.652  10.394  18.467  0.00  0.00    +0.000 C 
BRANCH  28  30
ATOM     30  N   UNL     1       0.964   9.369  20.064  0.00  0.00    +0.000 NA
ATOM     31  H   UNL     1       1.768   9.663  20.619  0.00  0.00    +0.000 HD
ATOM     32  H   UNL     1       1.342   9.042  19.174  0.00  0.00    +0.000 HD
ENDBRANCH  28  30
ENDBRANCH  15  24
TORSDOF 3
ENDMDL
MODEL 8
REMARK VINA RESULT:      -6.6      1.623      6.239
REMARK  Name = 
REMARK  5 active torsions:
REMARK  status: ('A' for Active; 'I' for Inactive)
REMARK    1  A    between atoms: C_1  and  C_2
REMARK    2  A    between atoms: C_6  and  C_7
REMARK    3  A    between atoms: C_19  and  C_20
REMARK    4  A    between atoms: C_21  and  N_22
REMARK    5  A    between atoms: C_26  and  N_27
REMARK                            x       y       z     vdW  Elec       q    Type
REMARK                         _______ _______ _______ _____ _____    ______ ____
ROOT
ATOM      1  C   UNL     1      -5.165  11.699  18.888  0.00  0.00    +0.000 A 
ATOM      2  C   UNL     1      -4.731  12.461  19.974  0.00  0.00    +0.000 A 
ATOM      3  C   UNL     1      -5.685  12.766  20.950  0.00  0.00    +0.000 A 
ATOM      4  C   UNL     1      -7.005  12.342  20.812  0.00  0.00    +0.000 A 
ATOM      5  C   UNL     1      -7.381  11.624  19.679  0.00  0.00    +0.000 A 
ATOM      6  N   UNL     1      -6.458  11.293  18.745  0.00  0.00    +0.000 NA
ATOM      7  C   UNL     1      -7.653  12.789  21.972  0.00  0.00    +0.000 A 
ATOM      8  N   UNL     1      -6.835  13.426  22.807  0.00  0.00    +0.000 NA
ATOM      9  N   UNL     1      -5.624  13.441  22.166  0.00  0.00    +0.000 N 
ATOM     10  C   UNL     1      -4.500  14.082  22.771  0.00  0.00    +0.000 A 
ATOM     11  C   UNL     1      -4.655  14.561  24.061  0.00  0.00    +0.000 A 
ATOM     12  N   UNL     1      -3.649  15.146  24.741  0.00  0.00    +0.000 NA
ATOM     13  C   UNL     1      -2.464  15.262  24.080  0.00  0.00    +0.000 A 
ATOM     14  C   UNL     1      -1.352  15.777  24.948  0.00  0.00    +0.000 C 
ATOM     15  C   UNL     1      -2.288  14.845  22.735  0.00  0.00    +0.000 A 
ATOM     16  N   UNL     1      -3.317  14.215  22.101  0.00  0.00    +0.000 NA
ENDROOT
BRANCH   1  22
ATOM     17  C   UNL     1      -0.814   9.911  17.663  0.00  0.00    +0.000 C 
ATOM     18  C   UNL     1      -2.164  10.399  17.247  0.00  0.00    +0.000 A 
ATOM     19  C   UNL     1      -2.535  10.436  15.909  0.00  0.00    +0.000 A 
ATOM     20  N   UNL     1      -3.744  10.874  15.493  0.00  0.00    +0.000 NA
ATOM     21  C   UNL     1      -4.573  11.287  16.489  0.00  0.00    +0.000 A 
ATOM     22  C   UNL     1      -4.234  11.256  17.837  0.00  0.00    +0.000 A 
ATOM     23  N   UNL     1      -3.010  10.790  18.231  0.00  0.00    +0.000 NA
ENDBRANCH   1  22
BRANCH  15  24
ATOM     24  N   UNL     1      -1.108  15.026  22.030  0.00  0.00    +0.000 N 
ATOM     25  C   UNL     1      -0.012  14.065  22.164  0.00  0.00    +0.000 C 
ATOM     26  C   UNL     1       0.270  13.337  20.851  0.00  0.00    +0.000 C 
ATOM     27  C   UNL     1       0.483  14.317  19.699  0.00  0.00    +0.000 C 
ATOM     28  C   UNL     1      -0.741  15.217  19.553  0.00  0.00    +0.000 C 
ATOM     29  C   UNL     1      -1.064  15.933  20.882  0.00  0.00    +0.000 C 
BRANCH  28  30
ATOM     30  N   UNL     1      -0.528  16.178  18.460  0.00  0.00    +0.000 NA
ATOM     31  H   UNL     1       0.204  15.839  17.837  0.00  0.00    +0.000 HD
ATOM     32  H   UNL     1      -0.183  17.059  18.846  0.00  0.00    +0.000 HD
ENDBRANCH  28  30
ENDBRANCH  15  24
TORSDOF 3
ENDMDL
MODEL 9
REMARK VINA RESULT:      -6.6      1.767      5.261
REMARK  Name = 
REMARK  5 active torsions:
REMARK  status: ('A' for Active; 'I' for Inactive)
REMARK    1  A    between atoms: C_1  and  C_2
REMARK    2  A    between atoms: C_6  and  C_7
REMARK    3  A    between atoms: C_19  and  C_20
REMARK    4  A    between atoms: C_21  and  N_22
REMARK    5  A    between atoms: C_26  and  N_27
REMARK                            x       y       z     vdW  Elec       q    Type
REMARK                         _______ _______ _______ _____ _____    ______ ____
ROOT
ATOM      1  C   UNL     1      -3.398  14.016  22.753  0.00  0.00    +0.000 A 
ATOM      2  C   UNL     1      -3.115  13.300  21.590  0.00  0.00    +0.000 A 
ATOM      3  C   UNL     1      -1.764  13.084  21.296  0.00  0.00    +0.000 A 
ATOM      4  C   UNL     1      -0.766  13.593  22.126  0.00  0.00    +0.000 A 
ATOM      5  C   UNL     1      -1.120  14.341  23.246  0.00  0.00    +0.000 A 
ATOM      6  N   UNL     1      -2.425  14.525  23.558  0.00  0.00    +0.000 NA
ATOM      7  C   UNL     1       0.438  13.160  21.552  0.00  0.00    +0.000 A 
ATOM      8  N   UNL     1       0.252  12.416  20.463  0.00  0.00    +0.000 NA
ATOM      9  N   UNL     1      -1.106  12.393  20.284  0.00  0.00    +0.000 N 
ATOM     10  C   UNL     1      -1.670  11.697  19.171  0.00  0.00    +0.000 A 
ATOM     11  C   UNL     1      -0.810  10.957  18.377  0.00  0.00    +0.000 A 
ATOM     12  N   UNL     1      -1.240  10.231  17.326  0.00  0.00    +0.000 NA
ATOM     13  C   UNL     1      -2.578  10.277  17.070  0.00  0.00    +0.000 A 
ATOM     14  C   UNL     1      -3.005   9.325  15.990  0.00  0.00    +0.000 C 
ATOM     15  C   UNL     1      -3.477  11.078  17.820  0.00  0.00    +0.000 A 
ATOM     16  N   UNL     1      -3.008  11.759  18.903  0.00  0.00    +0.000 NA
ENDROOT
BRANCH   1  22
ATOM     17  C   UNL     1      -7.916  12.317  23.328  0.00  0.00    +0.000 C 
ATOM     18  C   UNL     1      -6.937  13.435  23.482  0.00  0.00    +0.000 A 
ATOM     19  C   UNL     1      -7.316  14.653  24.031  0.00  0.00    +0.000 A 
ATOM     20  N   UNL     1      -6.461  15.689  24.184  0.00  0.00    +0.000 NA
ATOM     21  C   UNL     1      -5.195  15.451  23.748  0.00  0.00    +0.000 A 
ATOM     22  C   UNL     1      -4.783  14.241  23.200  0.00  0.00    +0.000 A 
ATOM     23  N   UNL     1      -5.665  13.204  23.075  0.00  0.00    +0.000 NA
ENDBRANCH   1  22
BRANCH  15  24
ATOM     24  N   UNL     1      -4.827  11.190  17.521  0.00  0.00    +0.000 N 
ATOM     25  C   UNL     1      -5.821  10.467  18.316  0.00  0.00    +0.000 C 
ATOM     26  C   UNL     1      -6.745  11.419  19.073  0.00  0.00    +0.000 C 
ATOM     27  C   UNL     1      -7.374  12.453  18.141  0.00  0.00    +0.000 C 
ATOM     28  C   UNL     1      -6.277  13.237  17.425  0.00  0.00    +0.000 C 
ATOM     29  C   UNL     1      -5.311  12.288  16.685  0.00  0.00    +0.000 C 
BRANCH  28  30
ATOM     30  N   UNL     1      -6.880  14.217  16.508  0.00  0.00    +0.000 NA
ATOM     31  H   UNL     1      -7.876  14.028  16.404  0.00  0.00    +0.000 HD
ATOM     32  H   UNL     1      -6.474  14.104  15.578  0.00  0.00    +0.000 HD
ENDBRANCH  28  30
ENDBRANCH  15  24
TORSDOF 3
ENDMDL
