MODEL 1
REMARK VINA RESULT:      -8.3      0.000      0.000
REMARK  Name = 
REMARK  5 active torsions:
REMARK  status: ('A' for Active; 'I' for Inactive)
REMARK    1  A    between atoms: S_2  and  C_4
REMARK    2  A    between atoms: S_2  and  N_10
REMARK    3  A    between atoms: N_10  and  C_11
REMARK    4  A    between atoms: N_10  and  C_20
REMARK    5  A    between atoms: C_11  and  C_12
REMARK                            x       y       z     vdW  Elec       q    Type
REMARK                         _______ _______ _______ _____ _____    ______ ____
ROOT
ATOM      1  N   UNL     1       3.600   5.251  17.992  0.00  0.00    +0.000 N 
ENDROOT
BRANCH   1   2
ATOM      2  C   UNL     1       2.913   6.434  18.470  0.00  0.00    +0.000 A 
ATOM      3  C   UNL     1       2.501   6.552  19.774  0.00  0.00    +0.000 A 
ATOM      4  C   UNL     1       1.823   7.791  20.031  0.00  0.00    +0.000 A 
ATOM      5  C   UNL     1       1.248   8.291  21.223  0.00  0.00    +0.000 A 
ATOM      6  C   UNL     1       0.598   9.526  21.229  0.00  0.00    +0.000 A 
ATOM      7  C   UNL     1       0.510  10.280  20.066  0.00  0.00    +0.000 A 
ATOM      8  C   UNL     1       1.082   9.819  18.878  0.00  0.00    +0.000 A 
ATOM      9  C   UNL     1       1.742   8.574  18.876  0.00  0.00    +0.000 A 
ATOM     10  S   UNL     1       2.533   7.811  17.548  0.00  0.00    +0.000 S 
ENDBRANCH   1   2
BRANCH   1  12
ATOM     11  O   UNL     1       3.063   2.996  16.876  0.00  0.00    +0.000 OA
ATOM     12  S   UNL     1       2.447   3.999  17.724  0.00  0.00    +0.000 S 
ATOM     13  O   UNL     1       1.174   4.593  17.371  0.00  0.00    +0.000 OA
BRANCH  12  14
ATOM     14  C   UNL     1       2.215   3.270  19.317  0.00  0.00    +0.000 A 
ATOM     15  C   UNL     1       3.300   2.848  20.085  0.00  0.00    +0.000 A 
ATOM     16  C   UNL     1       3.074   2.427  21.395  0.00  0.00    +0.000 A 
ATOM     17  C   UNL     1       1.775   2.438  21.876  0.00  0.00    +0.000 A 
ATOM     18  N   UNL     1       0.708   2.835  21.146  0.00  0.00    +0.000 NA
ATOM     19  C   UNL     1       0.954   3.271  19.887  0.00  0.00    +0.000 A 
ENDBRANCH  12  14
ENDBRANCH   1  12
BRANCH   1  20
ATOM     20  C   UNL     1       4.579   5.453  16.883  0.00  0.00    +0.000 C 
BRANCH  20  21
ATOM     21  C   UNL     1       5.865   6.054  17.424  0.00  0.00    +0.000 A 
ATOM     22  C   UNL     1       6.642   5.364  18.371  0.00  0.00    +0.000 A 
ATOM     23  C   UNL     1       7.766   5.970  18.942  0.00  0.00    +0.000 A 
ATOM     24  C   UNL     1       8.119   7.262  18.568  0.00  0.00    +0.000 A 
ATOM     25  F   UNL     1       9.170   7.852  19.152  0.00  0.00    +0.000 F 
ATOM     26  C   UNL     1       7.383   7.938  17.606  0.00  0.00    +0.000 A 
ATOM     27  F   UNL     1       7.724   9.181  17.241  0.00  0.00    +0.000 F 
ATOM     28  C   UNL     1       6.269   7.340  17.023  0.00  0.00    +0.000 A 
ENDBRANCH  20  21
ENDBRANCH   1  20
TORSDOF 5
ENDMDL
MODEL 2
REMARK VINA RESULT:      -8.3      0.693      1.223
REMARK  Name = 
REMARK  5 active torsions:
REMARK  status: ('A' for Active; 'I' for Inactive)
REMARK    1  A    between atoms: S_2  and  C_4
REMARK    2  A    between atoms: S_2  and  N_10
REMARK    3  A    between atoms: N_10  and  C_11
REMARK    4  A    between atoms: N_10  and  C_20
REMARK    5  A    between atoms: C_11  and  C_12
REMARK                            x       y       z     vdW  Elec       q    Type
REMARK                         _______ _______ _______ _____ _____    ______ ____
ROOT
ATOM      1  N   UNL     1       3.635   5.108  17.995  0.00  0.00    +0.000 N 
ENDROOT
BRANCH   1   2
ATOM      2  C   UNL     1       2.929   6.279  18.473  0.00  0.00    +0.000 A 
ATOM      3  C   UNL     1       2.693   7.361  17.661  0.00  0.00    +0.000 A 
ATOM      4  C   UNL     1       1.999   8.421  18.337  0.00  0.00    +0.000 A 
ATOM      5  C   UNL     1       1.579   9.687  17.867  0.00  0.00    +0.000 A 
ATOM      6  C   UNL     1       0.943  10.583  18.728  0.00  0.00    +0.000 A 
ATOM      7  C   UNL     1       0.715  10.243  20.055  0.00  0.00    +0.000 A 
ATOM      8  C   UNL     1       1.105   8.994  20.542  0.00  0.00    +0.000 A 
ATOM      9  C   UNL     1       1.743   8.089  19.670  0.00  0.00    +0.000 A 
ATOM     10  S   UNL     1       2.294   6.496  20.034  0.00  0.00    +0.000 S 
ENDBRANCH   1   2
BRANCH   1  12
ATOM     11  O   UNL     1       3.154   2.815  16.931  0.00  0.00    +0.000 OA
ATOM     12  S   UNL     1       2.503   3.836  17.729  0.00  0.00    +0.000 S 
ATOM     13  O   UNL     1       1.236   4.405  17.321  0.00  0.00    +0.000 OA
BRANCH  12  14
ATOM     14  C   UNL     1       2.229   3.151  19.335  0.00  0.00    +0.000 A 
ATOM     15  C   UNL     1       3.295   2.766  20.149  0.00  0.00    +0.000 A 
ATOM     16  C   UNL     1       3.034   2.382  21.463  0.00  0.00    +0.000 A 
ATOM     17  C   UNL     1       1.720   2.390  21.903  0.00  0.00    +0.000 A 
ATOM     18  N   UNL     1       0.671   2.751  21.130  0.00  0.00    +0.000 NA
ATOM     19  C   UNL     1       0.952   3.153  19.866  0.00  0.00    +0.000 A 
ENDBRANCH  12  14
ENDBRANCH   1  12
BRANCH   1  20
ATOM     20  C   UNL     1       4.608   5.325  16.884  0.00  0.00    +0.000 C 
BRANCH  20  21
ATOM     21  C   UNL     1       5.879   5.962  17.420  0.00  0.00    +0.000 A 
ATOM     22  C   UNL     1       6.681   5.294  18.361  0.00  0.00    +0.000 A 
ATOM     23  C   UNL     1       7.790   5.932  18.928  0.00  0.00    +0.000 A 
ATOM     24  C   UNL     1       8.103   7.234  18.555  0.00  0.00    +0.000 A 
ATOM     25  F   UNL     1       9.139   7.854  19.135  0.00  0.00    +0.000 F 
ATOM     26  C   UNL     1       7.341   7.890  17.599  0.00  0.00    +0.000 A 
ATOM     27  F   UNL     1       7.644   9.144  17.236  0.00  0.00    +0.000 F 
ATOM     28  C   UNL     1       6.242   7.261  17.020  0.00  0.00    +0.000 A 
ENDBRANCH  20  21
ENDBRANCH   1  20
TORSDOF 5
ENDMDL
MODEL 3
REMARK VINA RESULT:      -8.1      3.200      6.075
REMARK  Name = 
REMARK  5 active torsions:
REMARK  status: ('A' for Active; 'I' for Inactive)
REMARK    1  A    between atoms: S_2  and  C_4
REMARK    2  A    between atoms: S_2  and  N_10
REMARK    3  A    between atoms: N_10  and  C_11
REMARK    4  A    between atoms: N_10  and  C_20
REMARK    5  A    between atoms: C_11  and  C_12
REMARK                            x       y       z     vdW  Elec       q    Type
REMARK                         _______ _______ _______ _____ _____    ______ ____
ROOT
ATOM      1  N   UNL     1       4.253   4.759  17.815  0.00  0.00    +0.000 N 
ENDROOT
BRANCH   1   2
ATOM      2  C   UNL     1       5.027   4.780  16.591  0.00  0.00    +0.000 A 
ATOM      3  C   UNL     1       4.653   4.053  15.487  0.00  0.00    +0.000 A 
ATOM      4  C   UNL     1       5.569   4.198  14.391  0.00  0.00    +0.000 A 
ATOM      5  C   UNL     1       5.550   3.622  13.099  0.00  0.00    +0.000 A 
ATOM      6  C   UNL     1       6.583   3.881  12.197  0.00  0.00    +0.000 A 
ATOM      7  C   UNL     1       7.639   4.709  12.554  0.00  0.00    +0.000 A 
ATOM      8  C   UNL     1       7.675   5.304  13.817  0.00  0.00    +0.000 A 
ATOM      9  C   UNL     1       6.629   5.044  14.726  0.00  0.00    +0.000 A 
ATOM     10  S   UNL     1       6.448   5.672  16.321  0.00  0.00    +0.000 S 
ENDBRANCH   1   2
BRANCH   1  12
ATOM     11  O   UNL     1       5.572   2.995  19.144  0.00  0.00    +0.000 OA
ATOM     12  S   UNL     1       4.294   3.171  18.482  0.00  0.00    +0.000 S 
ATOM     13  O   UNL     1       3.836   2.225  17.486  0.00  0.00    +0.000 OA
BRANCH  12  14
ATOM     14  C   UNL     1       3.051   3.192  19.737  0.00  0.00    +0.000 A 
ATOM     15  C   UNL     1       1.718   3.468  19.431  0.00  0.00    +0.000 A 
ATOM     16  C   UNL     1       0.754   3.316  20.427  0.00  0.00    +0.000 A 
ATOM     17  C   UNL     1       1.164   2.903  21.684  0.00  0.00    +0.000 A 
ATOM     18  N   UNL     1       2.450   2.638  22.004  0.00  0.00    +0.000 NA
ATOM     19  C   UNL     1       3.367   2.761  21.013  0.00  0.00    +0.000 A 
ENDBRANCH  12  14
ENDBRANCH   1  12
BRANCH   1  20
ATOM     20  C   UNL     1       4.520   5.858  18.789  0.00  0.00    +0.000 C 
BRANCH  20  21
ATOM     21  C   UNL     1       3.376   6.857  18.778  0.00  0.00    +0.000 A 
ATOM     22  C   UNL     1       3.188   7.728  17.691  0.00  0.00    +0.000 A 
ATOM     23  C   UNL     1       2.199   8.716  17.737  0.00  0.00    +0.000 A 
ATOM     24  C   UNL     1       1.393   8.835  18.864  0.00  0.00    +0.000 A 
ATOM     25  F   UNL     1       0.477   9.811  18.919  0.00  0.00    +0.000 F 
ATOM     26  C   UNL     1       1.543   7.956  19.927  0.00  0.00    +0.000 A 
ATOM     27  F   UNL     1       0.764   8.067  21.012  0.00  0.00    +0.000 F 
ATOM     28  C   UNL     1       2.517   6.962  19.887  0.00  0.00    +0.000 A 
ENDBRANCH  20  21
ENDBRANCH   1  20
TORSDOF 5
ENDMDL
MODEL 4
REMARK VINA RESULT:      -8.1      0.795      1.094
REMARK  Name = 
REMARK  5 active torsions:
REMARK  status: ('A' for Active; 'I' for Inactive)
REMARK    1  A    between atoms: S_2  and  C_4
REMARK    2  A    between atoms: S_2  and  N_10
REMARK    3  A    between atoms: N_10  and  C_11
REMARK    4  A    between atoms: N_10  and  C_20
REMARK    5  A    between atoms: C_11  and  C_12
REMARK                            x       y       z     vdW  Elec       q    Type
REMARK                         _______ _______ _______ _____ _____    ______ ____
ROOT
ATOM      1  N   UNL     1       4.206   4.918  18.091  0.00  0.00    +0.000 N 
ENDROOT
BRANCH   1   2
ATOM      2  C   UNL     1       3.411   6.095  18.374  0.00  0.00    +0.000 A 
ATOM      3  C   UNL     1       2.881   6.326  19.620  0.00  0.00    +0.000 A 
ATOM      4  C   UNL     1       2.110   7.536  19.678  0.00  0.00    +0.000 A 
ATOM      5  C   UNL     1       1.405   8.122  20.756  0.00  0.00    +0.000 A 
ATOM      6  C   UNL     1       0.684   9.303  20.568  0.00  0.00    +0.000 A 
ATOM      7  C   UNL     1       0.653   9.918  19.324  0.00  0.00    +0.000 A 
ATOM      8  C   UNL     1       1.353   9.371  18.246  0.00  0.00    +0.000 A 
ATOM      9  C   UNL     1       2.083   8.181  18.439  0.00  0.00    +0.000 A 
ATOM     10  S   UNL     1       3.032   7.334  17.274  0.00  0.00    +0.000 S 
ENDBRANCH   1   2
BRANCH   1  12
ATOM     11  O   UNL     1       3.966   2.428  17.491  0.00  0.00    +0.000 OA
ATOM     12  S   UNL     1       3.158   3.567  17.879  0.00  0.00    +0.000 S 
ATOM     13  O   UNL     1       2.014   3.972  17.089  0.00  0.00    +0.000 OA
BRANCH  12  14
ATOM     14  C   UNL     1       2.533   3.240  19.500  0.00  0.00    +0.000 A 
ATOM     15  C   UNL     1       1.164   3.255  19.764  0.00  0.00    +0.000 A 
ATOM     16  C   UNL     1       0.715   2.836  21.016  0.00  0.00    +0.000 A 
ATOM     17  C   UNL     1       1.654   2.429  21.950  0.00  0.00    +0.000 A 
ATOM     18  N   UNL     1       2.986   2.414  21.718  0.00  0.00    +0.000 NA
ATOM     19  C   UNL     1       3.398   2.795  20.484  0.00  0.00    +0.000 A 
ENDBRANCH  12  14
ENDBRANCH   1  12
BRANCH   1  20
ATOM     20  C   UNL     1       5.262   5.064  17.046  0.00  0.00    +0.000 C 
BRANCH  20  21
ATOM     21  C   UNL     1       6.394   5.934  17.565  0.00  0.00    +0.000 A 
ATOM     22  C   UNL     1       7.225   5.491  18.608  0.00  0.00    +0.000 A 
ATOM     23  C   UNL     1       8.195   6.341  19.151  0.00  0.00    +0.000 A 
ATOM     24  C   UNL     1       8.341   7.631  18.652  0.00  0.00    +0.000 A 
ATOM     25  F   UNL     1       9.241   8.453  19.207  0.00  0.00    +0.000 F 
ATOM     26  C   UNL     1       7.553   8.065  17.597  0.00  0.00    +0.000 A 
ATOM     27  F   UNL     1       7.695   9.307  17.113  0.00  0.00    +0.000 F 
ATOM     28  C   UNL     1       6.592   7.224  17.042  0.00  0.00    +0.000 A 
ENDBRANCH  20  21
ENDBRANCH   1  20
TORSDOF 5
ENDMDL
MODEL 5
REMARK VINA RESULT:      -7.9      0.846      1.752
REMARK  Name = 
REMARK  5 active torsions:
REMARK  status: ('A' for Active; 'I' for Inactive)
REMARK    1  A    between atoms: S_2  and  C_4
REMARK    2  A    between atoms: S_2  and  N_10
REMARK    3  A    between atoms: N_10  and  C_11
REMARK    4  A    between atoms: N_10  and  C_20
REMARK    5  A    between atoms: C_11  and  C_12
REMARK                            x       y       z     vdW  Elec       q    Type
REMARK                         _______ _______ _______ _____ _____    ______ ____
ROOT
ATOM      1  N   UNL     1       3.571   5.305  18.050  0.00  0.00    +0.000 N 
ENDROOT
BRANCH   1   2
ATOM      2  C   UNL     1       2.836   6.460  18.522  0.00  0.00    +0.000 A 
ATOM      3  C   UNL     1       2.560   7.525  17.700  0.00  0.00    +0.000 A 
ATOM      4  C   UNL     1       1.842   8.572  18.371  0.00  0.00    +0.000 A 
ATOM      5  C   UNL     1       1.380   9.820  17.892  0.00  0.00    +0.000 A 
ATOM      6  C   UNL     1       0.726  10.707  18.748  0.00  0.00    +0.000 A 
ATOM      7  C   UNL     1       0.519  10.375  20.080  0.00  0.00    +0.000 A 
ATOM      8  C   UNL     1       0.951   9.143  20.578  0.00  0.00    +0.000 A 
ATOM      9  C   UNL     1       1.607   8.247  19.710  0.00  0.00    +0.000 A 
ATOM     10  S   UNL     1       2.209   6.676  20.086  0.00  0.00    +0.000 S 
ENDBRANCH   1   2
BRANCH   1  12
ATOM     11  O   UNL     1       3.135   3.051  16.888  0.00  0.00    +0.000 OA
ATOM     12  S   UNL     1       2.466   4.023  17.731  0.00  0.00    +0.000 S 
ATOM     13  O   UNL     1       1.186   4.583  17.349  0.00  0.00    +0.000 OA
BRANCH  12  14
ATOM     14  C   UNL     1       2.209   3.264  19.306  0.00  0.00    +0.000 A 
ATOM     15  C   UNL     1       3.283   2.840  20.088  0.00  0.00    +0.000 A 
ATOM     16  C   UNL     1       3.036   2.394  21.386  0.00  0.00    +0.000 A 
ATOM     17  C   UNL     1       1.727   2.383  21.841  0.00  0.00    +0.000 A 
ATOM     18  N   UNL     1       0.671   2.781  21.096  0.00  0.00    +0.000 NA
ATOM     19  C   UNL     1       0.937   3.241  19.850  0.00  0.00    +0.000 A 
ENDBRANCH  12  14
ENDBRANCH   1  12
BRANCH   1  20
ATOM     20  C   UNL     1       4.577   5.550  16.974  0.00  0.00    +0.000 C 
BRANCH  20  21
ATOM     21  C   UNL     1       5.795   6.255  17.547  0.00  0.00    +0.000 A 
ATOM     22  C   UNL     1       6.176   7.527  17.085  0.00  0.00    +0.000 A 
ATOM     23  C   UNL     1       7.358   8.120  17.541  0.00  0.00    +0.000 A 
ATOM     24  C   UNL     1       8.159   7.450  18.459  0.00  0.00    +0.000 A 
ATOM     25  F   UNL     1       9.311   8.006  18.857  0.00  0.00    +0.000 F 
ATOM     26  C   UNL     1       7.773   6.212  18.951  0.00  0.00    +0.000 A 
ATOM     27  F   UNL     1       8.541   5.567  19.839  0.00  0.00    +0.000 F 
ATOM     28  C   UNL     1       6.593   5.617  18.513  0.00  0.00    +0.000 A 
ENDBRANCH  20  21
ENDBRANCH   1  20
TORSDOF 5
ENDMDL
MODEL 6
REMARK VINA RESULT:      -7.9      0.506      1.258
REMARK  Name = 
REMARK  5 active torsions:
REMARK  status: ('A' for Active; 'I' for Inactive)
REMARK    1  A    between atoms: S_2  and  C_4
REMARK    2  A    between atoms: S_2  and  N_10
REMARK    3  A    between atoms: N_10  and  C_11
REMARK    4  A    between atoms: N_10  and  C_20
REMARK    5  A    between atoms: C_11  and  C_12
REMARK                            x       y       z     vdW  Elec       q    Type
REMARK                         _______ _______ _______ _____ _____    ______ ____
ROOT
ATOM      1  N   UNL     1       3.587   5.329  18.060  0.00  0.00    +0.000 N 
ENDROOT
BRANCH   1   2
ATOM      2  C   UNL     1       2.869   6.497  18.527  0.00  0.00    +0.000 A 
ATOM      3  C   UNL     1       2.465   6.622  19.834  0.00  0.00    +0.000 A 
ATOM      4  C   UNL     1       1.752   7.844  20.079  0.00  0.00    +0.000 A 
ATOM      5  C   UNL     1       1.172   8.343  21.268  0.00  0.00    +0.000 A 
ATOM      6  C   UNL     1       0.485   9.558  21.262  0.00  0.00    +0.000 A 
ATOM      7  C   UNL     1       0.364  10.292  20.089  0.00  0.00    +0.000 A 
ATOM      8  C   UNL     1       0.940   9.831  18.903  0.00  0.00    +0.000 A 
ATOM      9  C   UNL     1       1.637   8.606  18.913  0.00  0.00    +0.000 A 
ATOM     10  S   UNL     1       2.440   7.848  17.589  0.00  0.00    +0.000 S 
ENDBRANCH   1   2
BRANCH   1  12
ATOM     11  O   UNL     1       3.111   3.090  16.886  0.00  0.00    +0.000 OA
ATOM     12  S   UNL     1       2.461   4.065  17.740  0.00  0.00    +0.000 S 
ATOM     13  O   UNL     1       1.187   4.645  17.371  0.00  0.00    +0.000 OA
BRANCH  12  14
ATOM     14  C   UNL     1       2.205   3.298  19.312  0.00  0.00    +0.000 A 
ATOM     15  C   UNL     1       3.281   2.885  20.099  0.00  0.00    +0.000 A 
ATOM     16  C   UNL     1       3.032   2.433  21.394  0.00  0.00    +0.000 A 
ATOM     17  C   UNL     1       1.721   2.405  21.842  0.00  0.00    +0.000 A 
ATOM     18  N   UNL     1       0.663   2.792  21.093  0.00  0.00    +0.000 NA
ATOM     19  C   UNL     1       0.931   3.259  19.850  0.00  0.00    +0.000 A 
ENDBRANCH  12  14
ENDBRANCH   1  12
BRANCH   1  20
ATOM     20  C   UNL     1       4.600   5.555  16.988  0.00  0.00    +0.000 C 
BRANCH  20  21
ATOM     21  C   UNL     1       5.814   6.270  17.556  0.00  0.00    +0.000 A 
ATOM     22  C   UNL     1       6.183   7.545  17.094  0.00  0.00    +0.000 A 
ATOM     23  C   UNL     1       7.362   8.148  17.546  0.00  0.00    +0.000 A 
ATOM     24  C   UNL     1       8.172   7.484  18.460  0.00  0.00    +0.000 A 
ATOM     25  F   UNL     1       9.321   8.049  18.854  0.00  0.00    +0.000 F 
ATOM     26  C   UNL     1       7.798   6.242  18.953  0.00  0.00    +0.000 A 
ATOM     27  F   UNL     1       8.575   5.603  19.837  0.00  0.00    +0.000 F 
ATOM     28  C   UNL     1       6.622   5.637  18.518  0.00  0.00    +0.000 A 
ENDBRANCH  20  21
ENDBRANCH   1  20
TORSDOF 5
ENDMDL
MODEL 7
REMARK VINA RESULT:      -7.8      2.977      5.896
REMARK  Name = 
REMARK  5 active torsions:
REMARK  status: ('A' for Active; 'I' for Inactive)
REMARK    1  A    between atoms: S_2  and  C_4
REMARK    2  A    between atoms: S_2  and  N_10
REMARK    3  A    between atoms: N_10  and  C_11
REMARK    4  A    between atoms: N_10  and  C_20
REMARK    5  A    between atoms: C_11  and  C_12
REMARK                            x       y       z     vdW  Elec       q    Type
REMARK                         _______ _______ _______ _____ _____    ______ ____
ROOT
ATOM      1  N   UNL     1       3.806   4.731  17.448  0.00  0.00    +0.000 N 
ENDROOT
BRANCH   1   2
ATOM      2  C   UNL     1       4.725   4.776  16.329  0.00  0.00    +0.000 A 
ATOM      3  C   UNL     1       4.512   4.037  15.191  0.00  0.00    +0.000 A 
ATOM      4  C   UNL     1       5.552   4.209  14.216  0.00  0.00    +0.000 A 
ATOM      5  C   UNL     1       5.711   3.632  12.934  0.00  0.00    +0.000 A 
ATOM      6  C   UNL     1       6.839   3.923  12.165  0.00  0.00    +0.000 A 
ATOM      7  C   UNL     1       7.817   4.783  12.647  0.00  0.00    +0.000 A 
ATOM      8  C   UNL     1       7.679   5.380  13.902  0.00  0.00    +0.000 A 
ATOM      9  C   UNL     1       6.537   5.088  14.675  0.00  0.00    +0.000 A 
ATOM     10  S   UNL     1       6.140   5.711  16.233  0.00  0.00    +0.000 S 
ENDBRANCH   1   2
BRANCH   1  12
ATOM     11  O   UNL     1       4.469   2.255  17.666  0.00  0.00    +0.000 OA
ATOM     12  S   UNL     1       3.294   3.105  17.694  0.00  0.00    +0.000 S 
ATOM     13  O   UNL     1       2.156   2.831  16.842  0.00  0.00    +0.000 OA
BRANCH  12  14
ATOM     14  C   UNL     1       2.674   3.087  19.349  0.00  0.00    +0.000 A 
ATOM     15  C   UNL     1       1.338   3.380  19.624  0.00  0.00    +0.000 A 
ATOM     16  C   UNL     1       0.863   3.197  20.922  0.00  0.00    +0.000 A 
ATOM     17  C   UNL     1       1.744   2.741  21.889  0.00  0.00    +0.000 A 
ATOM     18  N   UNL     1       3.045   2.460  21.646  0.00  0.00    +0.000 NA
ATOM     19  C   UNL     1       3.477   2.613  20.371  0.00  0.00    +0.000 A 
ENDBRANCH  12  14
ENDBRANCH   1  12
BRANCH   1  20
ATOM     20  C   UNL     1       4.229   5.452  18.685  0.00  0.00    +0.000 C 
BRANCH  20  21
ATOM     21  C   UNL     1       3.291   6.615  18.960  0.00  0.00    +0.000 A 
ATOM     22  C   UNL     1       2.570   6.690  20.164  0.00  0.00    +0.000 A 
ATOM     23  C   UNL     1       1.629   7.706  20.364  0.00  0.00    +0.000 A 
ATOM     24  C   UNL     1       1.408   8.650  19.366  0.00  0.00    +0.000 A 
ATOM     25  F   UNL     1       0.474   9.593  19.547  0.00  0.00    +0.000 F 
ATOM     26  C   UNL     1       2.142   8.608  18.190  0.00  0.00    +0.000 A 
ATOM     27  F   UNL     1       1.934   9.518  17.229  0.00  0.00    +0.000 F 
ATOM     28  C   UNL     1       3.088   7.607  17.985  0.00  0.00    +0.000 A 
ENDBRANCH  20  21
ENDBRANCH   1  20
TORSDOF 5
ENDMDL
MODEL 8
REMARK VINA RESULT:      -7.8      2.220      2.912
REMARK  Name = 
REMARK  5 active torsions:
REMARK  status: ('A' for Active; 'I' for Inactive)
REMARK    1  A    between atoms: S_2  and  C_4
REMARK    2  A    between atoms: S_2  and  N_10
REMARK    3  A    between atoms: N_10  and  C_11
REMARK    4  A    between atoms: N_10  and  C_20
REMARK    5  A    between atoms: C_11  and  C_12
REMARK                            x       y       z     vdW  Elec       q    Type
REMARK                         _______ _______ _______ _____ _____    ______ ____
ROOT
ATOM      1  N   UNL     1       2.659   6.168  19.651  0.00  0.00    +0.000 N 
ENDROOT
BRANCH   1   2
ATOM      2  C   UNL     1       1.959   7.385  20.008  0.00  0.00    +0.000 A 
ATOM      3  C   UNL     1       1.488   7.601  21.280  0.00  0.00    +0.000 A 
ATOM      4  C   UNL     1       0.807   8.858  21.413  0.00  0.00    +0.000 A 
ATOM      5  C   UNL     1       0.180   9.446  22.537  0.00  0.00    +0.000 A 
ATOM      6  C   UNL     1      -0.461  10.680  22.421  0.00  0.00    +0.000 A 
ATOM      7  C   UNL     1      -0.490  11.347  21.204  0.00  0.00    +0.000 A 
ATOM      8  C   UNL     1       0.134  10.798  20.081  0.00  0.00    +0.000 A 
ATOM      9  C   UNL     1       0.784   9.553  20.202  0.00  0.00    +0.000 A 
ATOM     10  S   UNL     1       1.632   8.692  18.971  0.00  0.00    +0.000 S 
ENDBRANCH   1   2
BRANCH   1  12
ATOM     11  O   UNL     1       0.482   4.921  20.222  0.00  0.00    +0.000 OA
ATOM     12  S   UNL     1       1.913   4.835  20.446  0.00  0.00    +0.000 S 
ATOM     13  O   UNL     1       2.450   4.717  21.785  0.00  0.00    +0.000 OA
BRANCH  12  14
ATOM     14  C   UNL     1       2.497   3.418  19.565  0.00  0.00    +0.000 A 
ATOM     15  C   UNL     1       1.899   3.010  18.373  0.00  0.00    +0.000 A 
ATOM     16  C   UNL     1       2.494   1.986  17.638  0.00  0.00    +0.000 A 
ATOM     17  C   UNL     1       3.655   1.410  18.130  0.00  0.00    +0.000 A 
ATOM     18  N   UNL     1       4.246   1.784  19.287  0.00  0.00    +0.000 NA
ATOM     19  C   UNL     1       3.669   2.803  19.969  0.00  0.00    +0.000 A 
ENDBRANCH  12  14
ENDBRANCH   1  12
BRANCH   1  20
ATOM     20  C   UNL     1       2.935   5.961  18.199  0.00  0.00    +0.000 C 
BRANCH  20  21
ATOM     21  C   UNL     1       4.388   5.570  17.993  0.00  0.00    +0.000 A 
ATOM     22  C   UNL     1       4.795   4.892  16.831  0.00  0.00    +0.000 A 
ATOM     23  C   UNL     1       6.113   4.442  16.698  0.00  0.00    +0.000 A 
ATOM     24  C   UNL     1       7.027   4.670  17.721  0.00  0.00    +0.000 A 
ATOM     25  F   UNL     1       8.275   4.196  17.606  0.00  0.00    +0.000 F 
ATOM     26  C   UNL     1       6.647   5.372  18.855  0.00  0.00    +0.000 A 
ATOM     27  F   UNL     1       7.528   5.595  19.840  0.00  0.00    +0.000 F 
ATOM     28  C   UNL     1       5.341   5.834  18.993  0.00  0.00    +0.000 A 
ENDBRANCH  20  21
ENDBRANCH   1  20
TORSDOF 5
ENDMDL
MODEL 9
REMARK VINA RESULT:      -7.7      3.613      5.805
REMARK  Name = 
REMARK  5 active torsions:
REMARK  status: ('A' for Active; 'I' for Inactive)
REMARK    1  A    between atoms: S_2  and  C_4
REMARK    2  A    between atoms: S_2  and  N_10
REMARK    3  A    between atoms: N_10  and  C_11
REMARK    4  A    between atoms: N_10  and  C_20
REMARK    5  A    between atoms: C_11  and  C_12
REMARK                            x       y       z     vdW  Elec       q    Type
REMARK                         _______ _______ _______ _____ _____    ______ ____
ROOT
ATOM      1  N   UNL     1       4.493   4.818  16.534  0.00  0.00    +0.000 N 
ENDROOT
BRANCH   1   2
ATOM      2  C   UNL     1       3.681   4.369  17.647  0.00  0.00    +0.000 A 
ATOM      3  C   UNL     1       4.234   3.749  18.740  0.00  0.00    +0.000 A 
ATOM      4  C   UNL     1       3.253   3.367  19.716  0.00  0.00    +0.000 A 
ATOM      5  C   UNL     1       3.405   2.709  20.960  0.00  0.00    +0.000 A 
ATOM      6  C   UNL     1       2.286   2.403  21.736  0.00  0.00    +0.000 A 
ATOM      7  C   UNL     1       1.012   2.741  21.300  0.00  0.00    +0.000 A 
ATOM      8  C   UNL     1       0.833   3.404  20.084  0.00  0.00    +0.000 A 
ATOM      9  C   UNL     1       1.965   3.717  19.303  0.00  0.00    +0.000 A 
ATOM     10  S   UNL     1       1.996   4.540  17.788  0.00  0.00    +0.000 S 
ENDBRANCH   1   2
BRANCH   1  12
ATOM     11  O   UNL     1       3.685   7.052  17.520  0.00  0.00    +0.000 OA
ATOM     12  S   UNL     1       4.715   6.522  16.648  0.00  0.00    +0.000 S 
ATOM     13  O   UNL     1       4.917   7.064  15.320  0.00  0.00    +0.000 OA
BRANCH  12  14
ATOM     14  C   UNL     1       6.259   6.708  17.486  0.00  0.00    +0.000 A 
ATOM     15  C   UNL     1       7.081   7.811  17.252  0.00  0.00    +0.000 A 
ATOM     16  C   UNL     1       8.209   7.991  18.052  0.00  0.00    +0.000 A 
ATOM     17  C   UNL     1       8.470   7.058  19.042  0.00  0.00    +0.000 A 
ATOM     18  N   UNL     1       7.693   5.978  19.280  0.00  0.00    +0.000 NA
ATOM     19  C   UNL     1       6.584   5.840  18.513  0.00  0.00    +0.000 A 
ENDBRANCH  12  14
ENDBRANCH   1  12
BRANCH   1  20
ATOM     20  C   UNL     1       5.737   4.038  16.262  0.00  0.00    +0.000 C 
BRANCH  20  21
ATOM     21  C   UNL     1       6.151   4.203  14.810  0.00  0.00    +0.000 A 
ATOM     22  C   UNL     1       5.462   3.536  13.783  0.00  0.00    +0.000 A 
ATOM     23  C   UNL     1       5.916   3.608  12.462  0.00  0.00    +0.000 A 
ATOM     24  C   UNL     1       7.054   4.348  12.162  0.00  0.00    +0.000 A 
ATOM     25  F   UNL     1       7.508   4.376  10.902  0.00  0.00    +0.000 F 
ATOM     26  C   UNL     1       7.720   5.042  13.161  0.00  0.00    +0.000 A 
ATOM     27  F   UNL     1       8.815   5.759  12.873  0.00  0.00    +0.000 F 
ATOM     28  C   UNL     1       7.271   4.986  14.478  0.00  0.00    +0.000 A 
ENDBRANCH  20  21
ENDBRANCH   1  20
TORSDOF 5
ENDMDL
