MODEL 1
REMARK VINA RESULT:      -7.4      0.000      0.000
REMARK  Name = 
REMARK  5 active torsions:
REMARK  status: ('A' for Active; 'I' for Inactive)
REMARK    1  A    between atoms: C_2  and  C_3
REMARK    2  A    between atoms: C_6  and  C_7
REMARK    3  A    between atoms: C_9  and  C_10
REMARK    4  A    between atoms: N_12  and  C_13
REMARK    5  A    between atoms: C_13  and  C_14
REMARK                            x       y       z     vdW  Elec       q    Type
REMARK                         _______ _______ _______ _____ _____    ______ ____
ROOT
ATOM      1  C   UNL     1       8.408   8.717  18.323  0.00  0.00    +0.000 A 
ATOM      2  N   UNL     1       8.360   7.527  18.882  0.00  0.00    +0.000 NA
ATOM      3  C   UNL     1       7.524   6.831  18.012  0.00  0.00    +0.000 A 
ATOM      4  N   UNL     1       7.100   7.558  16.966  0.00  0.00    +0.000 NA
ATOM      5  O   UNL     1       7.679   8.800  17.171  0.00  0.00    +0.000 OA
ENDROOT
BRANCH   1   9
ATOM      6  C   UNL     1      10.377  12.339  19.473  0.00  0.00    +0.000 A 
ATOM      7  C   UNL     1      10.276  11.989  18.123  0.00  0.00    +0.000 A 
ATOM      8  C   UNL     1       9.656  10.789  17.750  0.00  0.00    +0.000 A 
ATOM      9  C   UNL     1       9.120   9.930  18.719  0.00  0.00    +0.000 A 
ATOM     10  C   UNL     1       9.261  10.277  20.072  0.00  0.00    +0.000 A 
ATOM     11  C   UNL     1       9.883  11.471  20.449  0.00  0.00    +0.000 A 
BRANCH   6  13
ATOM     12  N   UNL     1      11.447  14.602  20.158  0.00  0.00    +0.000 NA
ATOM     13  C   UNL     1      10.963  13.590  19.859  0.00  0.00    +0.000 C 
ENDBRANCH   6  13
ENDBRANCH   1   9
BRANCH   3  14
ATOM     14  C   UNL     1       7.110   5.439  18.219  0.00  0.00    +0.000 C 
ATOM     15  O   UNL     1       7.872   4.481  18.096  0.00  0.00    +0.000 OA
ATOM     16  N   UNL     1       5.780   5.279  18.560  0.00  0.00    +0.000 N 
ATOM     17  H   UNL     1       5.236   6.117  18.745  0.00  0.00    +0.000 HD
BRANCH  16  18
ATOM     18  C   UNL     1       5.198   3.966  18.756  0.00  0.00    +0.000 C 
BRANCH  18  19
ATOM     19  C   UNL     1       4.275   3.530  17.609  0.00  0.00    +0.000 C 
ATOM     20  C   UNL     1       3.473   2.276  17.937  0.00  0.00    +0.000 C 
ATOM     21  C   UNL     1       2.200   2.831  18.525  0.00  0.00    +0.000 C 
ATOM     22  C   UNL     1       2.001   4.094  17.719  0.00  0.00    +0.000 C 
ATOM     23  O   UNL     1       3.307   4.574  17.372  0.00  0.00    +0.000 OA
ENDBRANCH  18  19
ENDBRANCH  16  18
ENDBRANCH   3  14
TORSDOF 5
ENDMDL
MODEL 2
REMARK VINA RESULT:      -7.3      1.416      1.653
REMARK  Name = 
REMARK  5 active torsions:
REMARK  status: ('A' for Active; 'I' for Inactive)
REMARK    1  A    between atoms: C_2  and  C_3
REMARK    2  A    between atoms: C_6  and  C_7
REMARK    3  A    between atoms: C_9  and  C_10
REMARK    4  A    between atoms: N_12  and  C_13
REMARK    5  A    between atoms: C_13  and  C_14
REMARK                            x       y       z     vdW  Elec       q    Type
REMARK                         _______ _______ _______ _____ _____    ______ ____
ROOT
ATOM      1  C   UNL     1       8.055   8.568  18.027  0.00  0.00    +0.000 A 
ATOM      2  N   UNL     1       7.151   8.230  17.133  0.00  0.00    +0.000 NA
ATOM      3  C   UNL     1       7.023   6.860  17.352  0.00  0.00    +0.000 A 
ATOM      4  N   UNL     1       7.797   6.393  18.344  0.00  0.00    +0.000 NA
ATOM      5  O   UNL     1       8.478   7.515  18.788  0.00  0.00    +0.000 OA
ENDROOT
BRANCH   1   9
ATOM      6  C   UNL     1       9.676  12.401  19.025  0.00  0.00    +0.000 A 
ATOM      7  C   UNL     1       8.887  12.245  17.881  0.00  0.00    +0.000 A 
ATOM      8  C   UNL     1       8.381  10.983  17.540  0.00  0.00    +0.000 A 
ATOM      9  C   UNL     1       8.647   9.866  18.343  0.00  0.00    +0.000 A 
ATOM     10  C   UNL     1       9.470  10.031  19.469  0.00  0.00    +0.000 A 
ATOM     11  C   UNL     1       9.981  11.287  19.809  0.00  0.00    +0.000 A 
BRANCH   6  13
ATOM     12  N   UNL     1      10.526  14.750  19.728  0.00  0.00    +0.000 NA
ATOM     13  C   UNL     1      10.153  13.698  19.408  0.00  0.00    +0.000 C 
ENDBRANCH   6  13
ENDBRANCH   1   9
BRANCH   3  14
ATOM     14  C   UNL     1       6.147   5.986  16.563  0.00  0.00    +0.000 C 
ATOM     15  O   UNL     1       5.911   6.165  15.369  0.00  0.00    +0.000 OA
ATOM     16  N   UNL     1       5.594   4.936  17.271  0.00  0.00    +0.000 N 
ATOM     17  H   UNL     1       5.913   4.789  18.225  0.00  0.00    +0.000 HD
BRANCH  16  18
ATOM     18  C   UNL     1       4.672   4.005  16.653  0.00  0.00    +0.000 C 
BRANCH  18  19
ATOM     19  C   UNL     1       3.679   3.380  17.645  0.00  0.00    +0.000 C 
ATOM     20  C   UNL     1       3.463   4.239  18.886  0.00  0.00    +0.000 C 
ATOM     21  C   UNL     1       2.282   5.096  18.504  0.00  0.00    +0.000 C 
ATOM     22  C   UNL     1       1.465   4.151  17.655  0.00  0.00    +0.000 C 
ATOM     23  O   UNL     1       2.391   3.272  17.004  0.00  0.00    +0.000 OA
ENDBRANCH  18  19
ENDBRANCH  16  18
ENDBRANCH   3  14
TORSDOF 5
ENDMDL
MODEL 3
REMARK VINA RESULT:      -7.3      1.378      1.888
REMARK  Name = 
REMARK  5 active torsions:
REMARK  status: ('A' for Active; 'I' for Inactive)
REMARK    1  A    between atoms: C_2  and  C_3
REMARK    2  A    between atoms: C_6  and  C_7
REMARK    3  A    between atoms: C_9  and  C_10
REMARK    4  A    between atoms: N_12  and  C_13
REMARK    5  A    between atoms: C_13  and  C_14
REMARK                            x       y       z     vdW  Elec       q    Type
REMARK                         _______ _______ _______ _____ _____    ______ ____
ROOT
ATOM      1  C   UNL     1       8.147   8.738  18.123  0.00  0.00    +0.000 A 
ATOM      2  N   UNL     1       7.203   8.407  17.268  0.00  0.00    +0.000 NA
ATOM      3  C   UNL     1       7.089   7.035  17.479  0.00  0.00    +0.000 A 
ATOM      4  N   UNL     1       7.910   6.560  18.428  0.00  0.00    +0.000 NA
ATOM      5  O   UNL     1       8.609   7.678  18.851  0.00  0.00    +0.000 OA
ENDROOT
BRANCH   1   9
ATOM      6  C   UNL     1      10.024  12.498  18.936  0.00  0.00    +0.000 A 
ATOM      7  C   UNL     1      10.228  11.409  19.789  0.00  0.00    +0.000 A 
ATOM      8  C   UNL     1       9.590  10.187  19.537  0.00  0.00    +0.000 A 
ATOM      9  C   UNL     1       8.750  10.034  18.425  0.00  0.00    +0.000 A 
ATOM     10  C   UNL     1       8.527  11.147  17.598  0.00  0.00    +0.000 A 
ATOM     11  C   UNL     1       9.158  12.369  17.848  0.00  0.00    +0.000 A 
BRANCH   6  13
ATOM     12  N   UNL     1      11.262  14.741  19.348  0.00  0.00    +0.000 NA
ATOM     13  C   UNL     1      10.714  13.735  19.157  0.00  0.00    +0.000 C 
ENDBRANCH   6  13
ENDBRANCH   1   9
BRANCH   3  14
ATOM     14  C   UNL     1       6.179   6.167  16.723  0.00  0.00    +0.000 C 
ATOM     15  O   UNL     1       5.882   6.361  15.545  0.00  0.00    +0.000 OA
ATOM     16  N   UNL     1       5.666   5.105  17.443  0.00  0.00    +0.000 N 
ATOM     17  H   UNL     1       6.033   4.947  18.377  0.00  0.00    +0.000 HD
BRANCH  16  18
ATOM     18  C   UNL     1       4.719   4.177  16.859  0.00  0.00    +0.000 C 
BRANCH  18  19
ATOM     19  C   UNL     1       3.484   3.931  17.739  0.00  0.00    +0.000 C 
ATOM     20  C   UNL     1       2.799   2.603  17.440  0.00  0.00    +0.000 C 
ATOM     21  C   UNL     1       3.465   1.652  18.402  0.00  0.00    +0.000 C 
ATOM     22  C   UNL     1       3.698   2.531  19.609  0.00  0.00    +0.000 C 
ATOM     23  O   UNL     1       3.906   3.862  19.118  0.00  0.00    +0.000 OA
ENDBRANCH  18  19
ENDBRANCH  16  18
ENDBRANCH   3  14
TORSDOF 5
ENDMDL
MODEL 4
REMARK VINA RESULT:      -7.2      0.841      1.534
REMARK  Name = 
REMARK  5 active torsions:
REMARK  status: ('A' for Active; 'I' for Inactive)
REMARK    1  A    between atoms: C_2  and  C_3
REMARK    2  A    between atoms: C_6  and  C_7
REMARK    3  A    between atoms: C_9  and  C_10
REMARK    4  A    between atoms: N_12  and  C_13
REMARK    5  A    between atoms: C_13  and  C_14
REMARK                            x       y       z     vdW  Elec       q    Type
REMARK                         _______ _______ _______ _____ _____    ______ ____
ROOT
ATOM      1  C   UNL     1       8.434   8.778  18.328  0.00  0.00    +0.000 A 
ATOM      2  N   UNL     1       8.378   7.618  18.947  0.00  0.00    +0.000 NA
ATOM      3  C   UNL     1       7.574   6.871  18.091  0.00  0.00    +0.000 A 
ATOM      4  N   UNL     1       7.177   7.538  16.996  0.00  0.00    +0.000 NA
ATOM      5  O   UNL     1       7.740   8.794  17.152  0.00  0.00    +0.000 OA
ENDROOT
BRANCH   1   9
ATOM      6  C   UNL     1      10.576  12.335  19.367  0.00  0.00    +0.000 A 
ATOM      7  C   UNL     1      10.059  11.505  20.367  0.00  0.00    +0.000 A 
ATOM      8  C   UNL     1       9.334  10.356  20.025  0.00  0.00    +0.000 A 
ATOM      9  C   UNL     1       9.125  10.016  18.681  0.00  0.00    +0.000 A 
ATOM     10  C   UNL     1       9.619  10.878  17.689  0.00  0.00    +0.000 A 
ATOM     11  C   UNL     1      10.339  12.027  18.026  0.00  0.00    +0.000 A 
BRANCH   6  13
ATOM     12  N   UNL     1      11.996  14.412  20.003  0.00  0.00    +0.000 NA
ATOM     13  C   UNL     1      11.364  13.483  19.710  0.00  0.00    +0.000 C 
ENDBRANCH   6  13
ENDBRANCH   1   9
BRANCH   3  14
ATOM     14  C   UNL     1       7.164   5.487  18.357  0.00  0.00    +0.000 C 
ATOM     15  O   UNL     1       7.909   4.520  18.208  0.00  0.00    +0.000 OA
ATOM     16  N   UNL     1       5.859   5.347  18.789  0.00  0.00    +0.000 N 
ATOM     17  H   UNL     1       5.334   6.194  18.989  0.00  0.00    +0.000 HD
BRANCH  16  18
ATOM     18  C   UNL     1       5.281   4.045  19.055  0.00  0.00    +0.000 C 
BRANCH  18  19
ATOM     19  C   UNL     1       3.827   4.111  19.545  0.00  0.00    +0.000 C 
ATOM     20  C   UNL     1       3.199   5.487  19.354  0.00  0.00    +0.000 C 
ATOM     21  C   UNL     1       2.558   5.382  17.993  0.00  0.00    +0.000 C 
ATOM     22  C   UNL     1       2.100   3.943  17.967  0.00  0.00    +0.000 C 
ATOM     23  O   UNL     1       3.032   3.197  18.761  0.00  0.00    +0.000 OA
ENDBRANCH  18  19
ENDBRANCH  16  18
ENDBRANCH   3  14
TORSDOF 5
ENDMDL
MODEL 5
REMARK VINA RESULT:      -7.2      0.965      1.447
REMARK  Name = 
REMARK  5 active torsions:
REMARK  status: ('A' for Active; 'I' for Inactive)
REMARK    1  A    between atoms: C_2  and  C_3
REMARK    2  A    between atoms: C_6  and  C_7
REMARK    3  A    between atoms: C_9  and  C_10
REMARK    4  A    between atoms: N_12  and  C_13
REMARK    5  A    between atoms: C_13  and  C_14
REMARK                            x       y       z     vdW  Elec       q    Type
REMARK                         _______ _______ _______ _____ _____    ______ ____
ROOT
ATOM      1  C   UNL     1       8.461   8.840  18.331  0.00  0.00    +0.000 A 
ATOM      2  N   UNL     1       8.421   7.677  18.944  0.00  0.00    +0.000 NA
ATOM      3  C   UNL     1       7.594   6.935  18.105  0.00  0.00    +0.000 A 
ATOM      4  N   UNL     1       7.168   7.608  17.025  0.00  0.00    +0.000 NA
ATOM      5  O   UNL     1       7.736   8.863  17.174  0.00  0.00    +0.000 OA
ENDROOT
BRANCH   1   9
ATOM      6  C   UNL     1      10.632  12.390  19.337  0.00  0.00    +0.000 A 
ATOM      7  C   UNL     1      10.117  11.568  20.345  0.00  0.00    +0.000 A 
ATOM      8  C   UNL     1       9.382  10.421  20.013  0.00  0.00    +0.000 A 
ATOM      9  C   UNL     1       9.162  10.076  18.673  0.00  0.00    +0.000 A 
ATOM     10  C   UNL     1       9.654  10.929  17.672  0.00  0.00    +0.000 A 
ATOM     11  C   UNL     1      10.384  12.076  17.999  0.00  0.00    +0.000 A 
BRANCH   6  13
ATOM     12  N   UNL     1      12.071  14.468  19.920  0.00  0.00    +0.000 NA
ATOM     13  C   UNL     1      11.429  13.535  19.668  0.00  0.00    +0.000 C 
ENDBRANCH   6  13
ENDBRANCH   1   9
BRANCH   3  14
ATOM     14  C   UNL     1       7.191   5.549  18.374  0.00  0.00    +0.000 C 
ATOM     15  O   UNL     1       7.976   4.603  18.370  0.00  0.00    +0.000 OA
ATOM     16  N   UNL     1       5.843   5.383  18.630  0.00  0.00    +0.000 N 
ATOM     17  H   UNL     1       5.272   6.219  18.720  0.00  0.00    +0.000 HD
BRANCH  16  18
ATOM     18  C   UNL     1       5.271   4.073  18.873  0.00  0.00    +0.000 C 
BRANCH  18  19
ATOM     19  C   UNL     1       3.760   4.009  18.606  0.00  0.00    +0.000 C 
ATOM     20  C   UNL     1       2.981   3.385  19.758  0.00  0.00    +0.000 C 
ATOM     21  C   UNL     1       2.609   4.579  20.601  0.00  0.00    +0.000 C 
ATOM     22  C   UNL     1       2.378   5.647  19.558  0.00  0.00    +0.000 C 
ATOM     23  O   UNL     1       3.257   5.354  18.463  0.00  0.00    +0.000 OA
ENDBRANCH  18  19
ENDBRANCH  16  18
ENDBRANCH   3  14
TORSDOF 5
ENDMDL
MODEL 6
REMARK VINA RESULT:      -7.2      1.417      1.877
REMARK  Name = 
REMARK  5 active torsions:
REMARK  status: ('A' for Active; 'I' for Inactive)
REMARK    1  A    between atoms: C_2  and  C_3
REMARK    2  A    between atoms: C_6  and  C_7
REMARK    3  A    between atoms: C_9  and  C_10
REMARK    4  A    between atoms: N_12  and  C_13
REMARK    5  A    between atoms: C_13  and  C_14
REMARK                            x       y       z     vdW  Elec       q    Type
REMARK                         _______ _______ _______ _____ _____    ______ ____
ROOT
ATOM      1  C   UNL     1       8.253   8.988  18.103  0.00  0.00    +0.000 A 
ATOM      2  N   UNL     1       7.303   8.565  17.297  0.00  0.00    +0.000 NA
ATOM      3  C   UNL     1       7.237   7.210  17.613  0.00  0.00    +0.000 A 
ATOM      4  N   UNL     1       8.093   6.833  18.576  0.00  0.00    +0.000 NA
ATOM      5  O   UNL     1       8.763   8.001  18.898  0.00  0.00    +0.000 OA
ENDROOT
BRANCH   1   9
ATOM      6  C   UNL     1      10.005  12.866  18.565  0.00  0.00    +0.000 A 
ATOM      7  C   UNL     1      10.467  11.788  19.326  0.00  0.00    +0.000 A 
ATOM      8  C   UNL     1       9.874  10.525  19.194  0.00  0.00    +0.000 A 
ATOM      9  C   UNL     1       8.819  10.322  18.293  0.00  0.00    +0.000 A 
ATOM     10  C   UNL     1       8.342  11.421  17.562  0.00  0.00    +0.000 A 
ATOM     11  C   UNL     1       8.929  12.683  17.694  0.00  0.00    +0.000 A 
BRANCH   6  13
ATOM     12  N   UNL     1      11.145  15.190  18.738  0.00  0.00    +0.000 NA
ATOM     13  C   UNL     1      10.643  14.147  18.656  0.00  0.00    +0.000 C 
ENDBRANCH   6  13
ENDBRANCH   1   9
BRANCH   3  14
ATOM     14  C   UNL     1       6.341   6.259  16.944  0.00  0.00    +0.000 C 
ATOM     15  O   UNL     1       5.885   6.438  15.816  0.00  0.00    +0.000 OA
ATOM     16  N   UNL     1       6.038   5.135  17.688  0.00  0.00    +0.000 N 
ATOM     17  H   UNL     1       6.530   5.003  18.567  0.00  0.00    +0.000 HD
BRANCH  16  18
ATOM     18  C   UNL     1       5.132   4.118  17.193  0.00  0.00    +0.000 C 
BRANCH  18  19
ATOM     19  C   UNL     1       4.253   3.497  18.290  0.00  0.00    +0.000 C 
ATOM     20  C   UNL     1       3.046   4.358  18.640  0.00  0.00    +0.000 C 
ATOM     21  C   UNL     1       1.974   3.831  17.720  0.00  0.00    +0.000 C 
ATOM     22  C   UNL     1       2.303   2.358  17.659  0.00  0.00    +0.000 C 
ATOM     23  O   UNL     1       3.725   2.244  17.807  0.00  0.00    +0.000 OA
ENDBRANCH  18  19
ENDBRANCH  16  18
ENDBRANCH   3  14
TORSDOF 5
ENDMDL
MODEL 7
REMARK VINA RESULT:      -7.2      1.302      1.574
REMARK  Name = 
REMARK  5 active torsions:
REMARK  status: ('A' for Active; 'I' for Inactive)
REMARK    1  A    between atoms: C_2  and  C_3
REMARK    2  A    between atoms: C_6  and  C_7
REMARK    3  A    between atoms: C_9  and  C_10
REMARK    4  A    between atoms: N_12  and  C_13
REMARK    5  A    between atoms: C_13  and  C_14
REMARK                            x       y       z     vdW  Elec       q    Type
REMARK                         _______ _______ _______ _____ _____    ______ ____
ROOT
ATOM      1  C   UNL     1       8.321   8.768  18.266  0.00  0.00    +0.000 A 
ATOM      2  N   UNL     1       7.350   8.557  17.403  0.00  0.00    +0.000 NA
ATOM      3  C   UNL     1       7.105   7.196  17.569  0.00  0.00    +0.000 A 
ATOM      4  N   UNL     1       7.877   6.613  18.500  0.00  0.00    +0.000 NA
ATOM      5  O   UNL     1       8.679   7.646  18.957  0.00  0.00    +0.000 OA
ENDROOT
BRANCH   1   9
ATOM      6  C   UNL     1      10.322  12.415  19.273  0.00  0.00    +0.000 A 
ATOM      7  C   UNL     1      10.081  12.089  17.935  0.00  0.00    +0.000 A 
ATOM      8  C   UNL     1       9.451  10.881  17.605  0.00  0.00    +0.000 A 
ATOM      9  C   UNL     1       9.045   9.990  18.608  0.00  0.00    +0.000 A 
ATOM     10  C   UNL     1       9.325  10.314  19.945  0.00  0.00    +0.000 A 
ATOM     11  C   UNL     1       9.957  11.516  20.277  0.00  0.00    +0.000 A 
BRANCH   6  13
ATOM     12  N   UNL     1      11.415  14.684  19.897  0.00  0.00    +0.000 NA
ATOM     13  C   UNL     1      10.917  13.673  19.620  0.00  0.00    +0.000 C 
ENDBRANCH   6  13
ENDBRANCH   1   9
BRANCH   3  14
ATOM     14  C   UNL     1       6.117   6.444  16.787  0.00  0.00    +0.000 C 
ATOM     15  O   UNL     1       5.671   6.831  15.708  0.00  0.00    +0.000 OA
ATOM     16  N   UNL     1       5.712   5.255  17.364  0.00  0.00    +0.000 N 
ATOM     17  H   UNL     1       6.196   4.948  18.203  0.00  0.00    +0.000 HD
BRANCH  16  18
ATOM     18  C   UNL     1       4.709   4.412  16.744  0.00  0.00    +0.000 C 
BRANCH  18  19
ATOM     19  C   UNL     1       3.406   4.320  17.553  0.00  0.00    +0.000 C 
ATOM     20  C   UNL     1       2.541   3.132  17.148  0.00  0.00    +0.000 C 
ATOM     21  C   UNL     1       3.000   2.043  18.084  0.00  0.00    +0.000 C 
ATOM     22  C   UNL     1       3.301   2.814  19.348  0.00  0.00    +0.000 C 
ATOM     23  O   UNL     1       3.737   4.118  18.943  0.00  0.00    +0.000 OA
ENDBRANCH  18  19
ENDBRANCH  16  18
ENDBRANCH   3  14
TORSDOF 5
ENDMDL
MODEL 8
REMARK VINA RESULT:      -7.1      1.025      1.634
REMARK  Name = 
REMARK  5 active torsions:
REMARK  status: ('A' for Active; 'I' for Inactive)
REMARK    1  A    between atoms: C_2  and  C_3
REMARK    2  A    between atoms: C_6  and  C_7
REMARK    3  A    between atoms: C_9  and  C_10
REMARK    4  A    between atoms: N_12  and  C_13
REMARK    5  A    between atoms: C_13  and  C_14
REMARK                            x       y       z     vdW  Elec       q    Type
REMARK                         _______ _______ _______ _____ _____    ______ ____
ROOT
ATOM      1  C   UNL     1       8.487   9.152  18.320  0.00  0.00    +0.000 A 
ATOM      2  N   UNL     1       8.465   7.968  18.892  0.00  0.00    +0.000 NA
ATOM      3  C   UNL     1       7.687   7.230  18.004  0.00  0.00    +0.000 A 
ATOM      4  N   UNL     1       7.272   7.928  16.935  0.00  0.00    +0.000 NA
ATOM      5  O   UNL     1       7.796   9.193  17.142  0.00  0.00    +0.000 OA
ENDROOT
BRANCH   1   9
ATOM      6  C   UNL     1      10.516  12.740  19.472  0.00  0.00    +0.000 A 
ATOM      7  C   UNL     1      10.305  11.719  20.404  0.00  0.00    +0.000 A 
ATOM      8  C   UNL     1       9.615  10.557  20.033  0.00  0.00    +0.000 A 
ATOM      9  C   UNL     1       9.138  10.396  18.724  0.00  0.00    +0.000 A 
ATOM     10  C   UNL     1       9.327  11.445  17.810  0.00  0.00    +0.000 A 
ATOM     11  C   UNL     1      10.010  12.607  18.178  0.00  0.00    +0.000 A 
BRANCH   6  13
ATOM     12  N   UNL     1      11.882  14.853  20.106  0.00  0.00    +0.000 NA
ATOM     13  C   UNL     1      11.267  13.909  19.831  0.00  0.00    +0.000 C 
ENDBRANCH   6  13
ENDBRANCH   1   9
BRANCH   3  14
ATOM     14  C   UNL     1       7.319   5.825  18.214  0.00  0.00    +0.000 C 
ATOM     15  O   UNL     1       7.996   5.040  18.876  0.00  0.00    +0.000 OA
ATOM     16  N   UNL     1       6.143   5.441  17.599  0.00  0.00    +0.000 N 
ATOM     17  H   UNL     1       5.583   6.164  17.156  0.00  0.00    +0.000 HD
BRANCH  16  18
ATOM     18  C   UNL     1       5.659   4.076  17.670  0.00  0.00    +0.000 C 
BRANCH  18  19
ATOM     19  C   UNL     1       4.500   3.892  18.661  0.00  0.00    +0.000 C 
ATOM     20  C   UNL     1       3.292   3.202  18.039  0.00  0.00    +0.000 C 
ATOM     21  C   UNL     1       3.547   1.744  18.327  0.00  0.00    +0.000 C 
ATOM     22  C   UNL     1       4.215   1.799  19.681  0.00  0.00    +0.000 C 
ATOM     23  O   UNL     1       4.941   3.034  19.735  0.00  0.00    +0.000 OA
ENDBRANCH  18  19
ENDBRANCH  16  18
ENDBRANCH   3  14
TORSDOF 5
ENDMDL
MODEL 9
REMARK VINA RESULT:      -7.0      6.229      7.678
REMARK  Name = 
REMARK  5 active torsions:
REMARK  status: ('A' for Active; 'I' for Inactive)
REMARK    1  A    between atoms: C_2  and  C_3
REMARK    2  A    between atoms: C_6  and  C_7
REMARK    3  A    between atoms: C_9  and  C_10
REMARK    4  A    between atoms: N_12  and  C_13
REMARK    5  A    between atoms: C_13  and  C_14
REMARK                            x       y       z     vdW  Elec       q    Type
REMARK                         _______ _______ _______ _____ _____    ______ ____
ROOT
ATOM      1  C   UNL     1       1.339   8.645  19.952  0.00  0.00    +0.000 A 
ATOM      2  N   UNL     1       1.854   7.474  20.260  0.00  0.00    +0.000 NA
ATOM      3  C   UNL     1       2.565   7.157  19.105  0.00  0.00    +0.000 A 
ATOM      4  N   UNL     1       2.500   8.098  18.150  0.00  0.00    +0.000 NA
ATOM      5  O   UNL     1       1.692   9.077  18.705  0.00  0.00    +0.000 OA
ENDROOT
BRANCH   1   9
ATOM      6  C   UNL     1      -1.043  11.353  22.257  0.00  0.00    +0.000 A 
ATOM      7  C   UNL     1      -0.535  10.189  22.841  0.00  0.00    +0.000 A 
ATOM      8  C   UNL     1       0.222   9.289  22.077  0.00  0.00    +0.000 A 
ATOM      9  C   UNL     1       0.488   9.547  20.725  0.00  0.00    +0.000 A 
ATOM     10  C   UNL     1      -0.060  10.702  20.144  0.00  0.00    +0.000 A 
ATOM     11  C   UNL     1      -0.818  11.599  20.901  0.00  0.00    +0.000 A 
BRANCH   6  13
ATOM     12  N   UNL     1      -2.376  13.070  23.674  0.00  0.00    +0.000 NA
ATOM     13  C   UNL     1      -1.772  12.304  23.045  0.00  0.00    +0.000 C 
ENDBRANCH   6  13
ENDBRANCH   1   9
BRANCH   3  14
ATOM     14  C   UNL     1       3.301   5.901  18.919  0.00  0.00    +0.000 C 
ATOM     15  O   UNL     1       4.142   5.487  19.714  0.00  0.00    +0.000 OA
ATOM     16  N   UNL     1       2.978   5.212  17.765  0.00  0.00    +0.000 N 
ATOM     17  H   UNL     1       2.203   5.559  17.209  0.00  0.00    +0.000 HD
BRANCH  16  18
ATOM     18  C   UNL     1       3.644   3.975  17.409  0.00  0.00    +0.000 C 
BRANCH  18  19
ATOM     19  C   UNL     1       2.717   2.750  17.449  0.00  0.00    +0.000 C 
ATOM     20  C   UNL     1       3.063   1.783  18.575  0.00  0.00    +0.000 C 
ATOM     21  C   UNL     1       2.198   2.264  19.713  0.00  0.00    +0.000 C 
ATOM     22  C   UNL     1       0.953   2.726  18.994  0.00  0.00    +0.000 C 
ATOM     23  O   UNL     1       1.370   3.198  17.706  0.00  0.00    +0.000 OA
ENDBRANCH  18  19
ENDBRANCH  16  18
ENDBRANCH   3  14
TORSDOF 5
ENDMDL
