MODEL 1
REMARK VINA RESULT:      -7.5      0.000      0.000
REMARK  Name = 
REMARK  8 active torsions:
REMARK  status: ('A' for Active; 'I' for Inactive)
REMARK    1  A    between atoms: C_1  and  C_2
REMARK    2  A    between atoms: C_2  and  O_3
REMARK    3  A    between atoms: O_3  and  C_4
REMARK    4  A    between atoms: C_4  and  C_6
REMARK    5  A    between atoms: N_9  and  S_10
REMARK    6  A    between atoms: S_10  and  C_13
REMARK    7  A    between atoms: C_14  and  C_15
REMARK    8  A    between atoms: C_18  and  C_19
REMARK                            x       y       z     vdW  Elec       q    Type
REMARK                         _______ _______ _______ _____ _____    ______ ____
ROOT
ATOM      1  C   UNL     1       7.824   5.660  18.109  0.00  0.00    +0.000 C 
ATOM      2  C   UNL     1       7.365   4.662  17.044  0.00  0.00    +0.000 C 
ATOM      3  C   UNL     1       5.848   4.469  17.018  0.00  0.00    +0.000 C 
ATOM      4  N   UNL     1       5.336   4.125  18.377  0.00  0.00    +0.000 NA
ATOM      5  C   UNL     1       5.713   5.144  19.402  0.00  0.00    +0.000 C 
ATOM      6  C   UNL     1       7.228   5.315  19.467  0.00  0.00    +0.000 C 
ENDROOT
BRANCH   4   7
ATOM      7  S   UNL     1       3.635   3.834  18.391  0.00  0.00    +0.000 S 
ATOM      8  O   UNL     1       3.130   4.063  17.055  0.00  0.00    +0.000 OA
ATOM      9  O   UNL     1       3.395   2.585  19.079  0.00  0.00    +0.000 OA
BRANCH   7  10
ATOM     10  C   UNL     1       2.857   5.029  19.323  0.00  0.00    +0.000 A 
ATOM     11  C   UNL     1       2.736   6.399  19.002  0.00  0.00    +0.000 A 
ATOM     12  C   UNL     1       3.252   7.160  17.841  0.00  0.00    +0.000 C 
ATOM     13  N   UNL     1       2.030   7.048  19.941  0.00  0.00    +0.000 NA
ATOM     14  O   UNL     1       1.691   6.097  20.885  0.00  0.00    +0.000 OA
ATOM     15  C   UNL     1       2.199   4.889  20.521  0.00  0.00    +0.000 A 
ATOM     16  C   UNL     1       1.924   3.774  21.449  0.00  0.00    +0.000 C 
ENDBRANCH   7  10
ENDBRANCH   4   7
BRANCH   1  17
ATOM     17  C   UNL     1       7.512   7.087  17.694  0.00  0.00    +0.000 C 
ATOM     18  O   UNL     1       6.756   7.402  16.787  0.00  0.00    +0.000 OA
BRANCH  17  19
ATOM     19  O   UNL     1       8.262   7.959  18.423  0.00  0.00    +0.000 OA
BRANCH  19  21
ATOM     20  C   UNL     1       9.099  10.150  18.892  0.00  0.00    +0.000 C 
ATOM     21  C   UNL     1       8.242   9.316  17.954  0.00  0.00    +0.000 C 
ENDBRANCH  19  21
ENDBRANCH  17  19
ENDBRANCH   1  17
TORSDOF 5
ENDMDL
MODEL 2
REMARK VINA RESULT:      -7.4      0.445      1.777
REMARK  Name = 
REMARK  8 active torsions:
REMARK  status: ('A' for Active; 'I' for Inactive)
REMARK    1  A    between atoms: C_1  and  C_2
REMARK    2  A    between atoms: C_2  and  O_3
REMARK    3  A    between atoms: O_3  and  C_4
REMARK    4  A    between atoms: C_4  and  C_6
REMARK    5  A    between atoms: N_9  and  S_10
REMARK    6  A    between atoms: S_10  and  C_13
REMARK    7  A    between atoms: C_14  and  C_15
REMARK    8  A    between atoms: C_18  and  C_19
REMARK                            x       y       z     vdW  Elec       q    Type
REMARK                         _______ _______ _______ _____ _____    ______ ____
ROOT
ATOM      1  C   UNL     1       7.783   5.622  18.071  0.00  0.00    +0.000 C 
ATOM      2  C   UNL     1       7.306   4.627  17.013  0.00  0.00    +0.000 C 
ATOM      3  C   UNL     1       5.787   4.454  16.994  0.00  0.00    +0.000 C 
ATOM      4  N   UNL     1       5.276   4.122  18.358  0.00  0.00    +0.000 NA
ATOM      5  C   UNL     1       5.671   5.140  19.377  0.00  0.00    +0.000 C 
ATOM      6  C   UNL     1       7.189   5.291  19.433  0.00  0.00    +0.000 C 
ENDROOT
BRANCH   4   7
ATOM      7  S   UNL     1       3.571   3.854  18.381  0.00  0.00    +0.000 S 
ATOM      8  O   UNL     1       3.080   3.976  17.026  0.00  0.00    +0.000 OA
ATOM      9  O   UNL     1       3.310   2.671  19.170  0.00  0.00    +0.000 OA
BRANCH   7  10
ATOM     10  C   UNL     1       2.801   5.133  19.202  0.00  0.00    +0.000 A 
ATOM     11  C   UNL     1       2.068   5.039  20.405  0.00  0.00    +0.000 A 
ATOM     12  C   UNL     1       1.744   3.860  21.241  0.00  0.00    +0.000 C 
ATOM     13  N   UNL     1       1.629   6.246  20.792  0.00  0.00    +0.000 NA
ATOM     14  O   UNL     1       2.073   7.136  19.832  0.00  0.00    +0.000 OA
ATOM     15  C   UNL     1       2.765   6.465  18.871  0.00  0.00    +0.000 A 
ATOM     16  C   UNL     1       3.292   7.293  17.767  0.00  0.00    +0.000 C 
ENDBRANCH   7  10
ENDBRANCH   4   7
BRANCH   1  17
ATOM     17  C   UNL     1       7.488   7.052  17.651  0.00  0.00    +0.000 C 
ATOM     18  O   UNL     1       6.746   7.372  16.734  0.00  0.00    +0.000 OA
BRANCH  17  19
ATOM     19  O   UNL     1       8.236   7.918  18.389  0.00  0.00    +0.000 OA
BRANCH  19  21
ATOM     20  C   UNL     1       9.082  10.103  18.870  0.00  0.00    +0.000 C 
ATOM     21  C   UNL     1       8.203   9.282  17.941  0.00  0.00    +0.000 C 
ENDBRANCH  19  21
ENDBRANCH  17  19
ENDBRANCH   1  17
TORSDOF 5
ENDMDL
MODEL 3
REMARK VINA RESULT:      -7.4      1.622      2.203
REMARK  Name = 
REMARK  8 active torsions:
REMARK  status: ('A' for Active; 'I' for Inactive)
REMARK    1  A    between atoms: C_1  and  C_2
REMARK    2  A    between atoms: C_2  and  O_3
REMARK    3  A    between atoms: O_3  and  C_4
REMARK    4  A    between atoms: C_4  and  C_6
REMARK    5  A    between atoms: N_9  and  S_10
REMARK    6  A    between atoms: S_10  and  C_13
REMARK    7  A    between atoms: C_14  and  C_15
REMARK    8  A    between atoms: C_18  and  C_19
REMARK                            x       y       z     vdW  Elec       q    Type
REMARK                         _______ _______ _______ _____ _____    ______ ____
ROOT
ATOM      1  C   UNL     1       7.665   5.692  17.729  0.00  0.00    +0.000 C 
ATOM      2  C   UNL     1       6.996   4.882  16.618  0.00  0.00    +0.000 C 
ATOM      3  C   UNL     1       5.472   4.845  16.737  0.00  0.00    +0.000 C 
ATOM      4  N   UNL     1       5.059   4.391  18.098  0.00  0.00    +0.000 NA
ATOM      5  C   UNL     1       5.646   5.234  19.182  0.00  0.00    +0.000 C 
ATOM      6  C   UNL     1       7.170   5.245  19.098  0.00  0.00    +0.000 C 
ENDROOT
BRANCH   4   7
ATOM      7  S   UNL     1       3.346   4.270  18.267  0.00  0.00    +0.000 S 
ATOM      8  O   UNL     1       2.795   5.607  18.211  0.00  0.00    +0.000 OA
ATOM      9  O   UNL     1       2.875   3.229  17.382  0.00  0.00    +0.000 OA
BRANCH   7  10
ATOM     10  C   UNL     1       2.961   3.745  19.841  0.00  0.00    +0.000 A 
ATOM     11  C   UNL     1       3.514   2.634  20.515  0.00  0.00    +0.000 A 
ATOM     12  C   UNL     1       4.512   1.637  20.062  0.00  0.00    +0.000 C 
ATOM     13  N   UNL     1       3.012   2.530  21.755  0.00  0.00    +0.000 NA
ATOM     14  O   UNL     1       2.120   3.576  21.891  0.00  0.00    +0.000 OA
ATOM     15  C   UNL     1       2.079   4.297  20.738  0.00  0.00    +0.000 A 
ATOM     16  C   UNL     1       1.152   5.446  20.734  0.00  0.00    +0.000 C 
ENDBRANCH   7  10
ENDBRANCH   4   7
BRANCH   1  17
ATOM     17  C   UNL     1       7.475   7.182  17.512  0.00  0.00    +0.000 C 
ATOM     18  O   UNL     1       6.767   7.678  16.647  0.00  0.00    +0.000 OA
BRANCH  17  19
ATOM     19  O   UNL     1       8.274   7.883  18.363  0.00  0.00    +0.000 OA
BRANCH  19  21
ATOM     20  C   UNL     1       9.182   9.930  19.202  0.00  0.00    +0.000 C 
ATOM     21  C   UNL     1       8.349   9.293  18.103  0.00  0.00    +0.000 C 
ENDBRANCH  19  21
ENDBRANCH  17  19
ENDBRANCH   1  17
TORSDOF 5
ENDMDL
MODEL 4
REMARK VINA RESULT:      -7.4      2.491      6.265
REMARK  Name = 
REMARK  8 active torsions:
REMARK  status: ('A' for Active; 'I' for Inactive)
REMARK    1  A    between atoms: C_1  and  C_2
REMARK    2  A    between atoms: C_2  and  O_3
REMARK    3  A    between atoms: O_3  and  C_4
REMARK    4  A    between atoms: C_4  and  C_6
REMARK    5  A    between atoms: N_9  and  S_10
REMARK    6  A    between atoms: S_10  and  C_13
REMARK    7  A    between atoms: C_14  and  C_15
REMARK    8  A    between atoms: C_18  and  C_19
REMARK                            x       y       z     vdW  Elec       q    Type
REMARK                         _______ _______ _______ _____ _____    ______ ____
ROOT
ATOM      1  C   UNL     1       2.301   1.828  18.343  0.00  0.00    +0.000 C 
ATOM      2  C   UNL     1       3.676   1.552  18.951  0.00  0.00    +0.000 C 
ATOM      3  C   UNL     1       4.435   2.827  19.321  0.00  0.00    +0.000 C 
ATOM      4  N   UNL     1       4.505   3.757  18.156  0.00  0.00    +0.000 NA
ATOM      5  C   UNL     1       3.155   4.094  17.614  0.00  0.00    +0.000 C 
ATOM      6  C   UNL     1       2.404   2.830  17.202  0.00  0.00    +0.000 C 
ENDROOT
BRANCH   4   7
ATOM      7  S   UNL     1       5.407   5.187  18.501  0.00  0.00    +0.000 S 
ATOM      8  O   UNL     1       4.481   6.298  18.559  0.00  0.00    +0.000 OA
ATOM      9  O   UNL     1       6.305   4.903  19.597  0.00  0.00    +0.000 OA
BRANCH   7  10
ATOM     10  C   UNL     1       6.407   5.568  17.175  0.00  0.00    +0.000 A 
ATOM     11  C   UNL     1       7.331   6.633  17.097  0.00  0.00    +0.000 A 
ATOM     12  C   UNL     1       7.659   7.691  18.080  0.00  0.00    +0.000 C 
ATOM     13  N   UNL     1       7.977   6.618  15.922  0.00  0.00    +0.000 NA
ATOM     14  O   UNL     1       7.468   5.540  15.223  0.00  0.00    +0.000 OA
ATOM     15  C   UNL     1       6.516   4.918  15.970  0.00  0.00    +0.000 A 
ATOM     16  C   UNL     1       5.873   3.748  15.340  0.00  0.00    +0.000 C 
ENDBRANCH   7  10
ENDBRANCH   4   7
BRANCH   1  17
ATOM     17  C   UNL     1       1.310   2.271  19.405  0.00  0.00    +0.000 C 
ATOM     18  O   UNL     1       0.185   2.695  19.179  0.00  0.00    +0.000 OA
BRANCH  17  19
ATOM     19  O   UNL     1       1.888   2.208  20.636  0.00  0.00    +0.000 OA
BRANCH  19  21
ATOM     20  C   UNL     1       2.095   4.539  21.130  0.00  0.00    +0.000 C 
ATOM     21  C   UNL     1       1.464   3.225  21.558  0.00  0.00    +0.000 C 
ENDBRANCH  19  21
ENDBRANCH  17  19
ENDBRANCH   1  17
TORSDOF 5
ENDMDL
MODEL 5
REMARK VINA RESULT:      -7.3      2.491      3.690
REMARK  Name = 
REMARK  8 active torsions:
REMARK  status: ('A' for Active; 'I' for Inactive)
REMARK    1  A    between atoms: C_1  and  C_2
REMARK    2  A    between atoms: C_2  and  O_3
REMARK    3  A    between atoms: O_3  and  C_4
REMARK    4  A    between atoms: C_4  and  C_6
REMARK    5  A    between atoms: N_9  and  S_10
REMARK    6  A    between atoms: S_10  and  C_13
REMARK    7  A    between atoms: C_14  and  C_15
REMARK    8  A    between atoms: C_18  and  C_19
REMARK                            x       y       z     vdW  Elec       q    Type
REMARK                         _______ _______ _______ _____ _____    ______ ____
ROOT
ATOM      1  C   UNL     1       6.458   6.194  17.071  0.00  0.00    +0.000 C 
ATOM      2  C   UNL     1       6.396   5.680  18.511  0.00  0.00    +0.000 C 
ATOM      3  C   UNL     1       5.505   4.448  18.669  0.00  0.00    +0.000 C 
ATOM      4  N   UNL     1       4.150   4.699  18.097  0.00  0.00    +0.000 NA
ATOM      5  C   UNL     1       4.205   5.120  16.665  0.00  0.00    +0.000 C 
ATOM      6  C   UNL     1       5.059   6.375  16.500  0.00  0.00    +0.000 C 
ENDROOT
BRANCH   4   7
ATOM      7  S   UNL     1       3.082   3.359  18.306  0.00  0.00    +0.000 S 
ATOM      8  O   UNL     1       1.768   3.759  17.850  0.00  0.00    +0.000 OA
ATOM      9  O   UNL     1       3.730   2.177  17.784  0.00  0.00    +0.000 OA
BRANCH   7  10
ATOM     10  C   UNL     1       2.855   3.063  19.968  0.00  0.00    +0.000 A 
ATOM     11  C   UNL     1       1.820   3.576  20.781  0.00  0.00    +0.000 A 
ATOM     12  C   UNL     1       0.710   4.498  20.449  0.00  0.00    +0.000 C 
ATOM     13  N   UNL     1       1.922   3.110  22.034  0.00  0.00    +0.000 NA
ATOM     14  O   UNL     1       3.035   2.291  22.045  0.00  0.00    +0.000 OA
ATOM     15  C   UNL     1       3.602   2.273  20.808  0.00  0.00    +0.000 A 
ATOM     16  C   UNL     1       4.816   1.443  20.673  0.00  0.00    +0.000 C 
ENDBRANCH   7  10
ENDBRANCH   4   7
BRANCH   1  17
ATOM     17  C   UNL     1       7.318   5.292  16.204  0.00  0.00    +0.000 C 
ATOM     18  O   UNL     1       8.023   4.385  16.622  0.00  0.00    +0.000 OA
BRANCH  17  19
ATOM     19  O   UNL     1       7.255   5.697  14.905  0.00  0.00    +0.000 OA
BRANCH  19  21
ATOM     20  C   UNL     1       5.979   3.996  13.810  0.00  0.00    +0.000 C 
ATOM     21  C   UNL     1       7.349   4.641  13.936  0.00  0.00    +0.000 C 
ENDBRANCH  19  21
ENDBRANCH  17  19
ENDBRANCH   1  17
TORSDOF 5
ENDMDL
MODEL 6
REMARK VINA RESULT:      -7.2      1.151      1.305
REMARK  Name = 
REMARK  8 active torsions:
REMARK  status: ('A' for Active; 'I' for Inactive)
REMARK    1  A    between atoms: C_1  and  C_2
REMARK    2  A    between atoms: C_2  and  O_3
REMARK    3  A    between atoms: O_3  and  C_4
REMARK    4  A    between atoms: C_4  and  C_6
REMARK    5  A    between atoms: N_9  and  S_10
REMARK    6  A    between atoms: S_10  and  C_13
REMARK    7  A    between atoms: C_14  and  C_15
REMARK    8  A    between atoms: C_18  and  C_19
REMARK                            x       y       z     vdW  Elec       q    Type
REMARK                         _______ _______ _______ _____ _____    ______ ____
ROOT
ATOM      1  C   UNL     1       6.974   5.332  16.799  0.00  0.00    +0.000 C 
ATOM      2  C   UNL     1       6.154   4.601  15.735  0.00  0.00    +0.000 C 
ATOM      3  C   UNL     1       4.736   4.263  16.198  0.00  0.00    +0.000 C 
ATOM      4  N   UNL     1       4.767   3.527  17.497  0.00  0.00    +0.000 NA
ATOM      5  C   UNL     1       5.497   4.279  18.561  0.00  0.00    +0.000 C 
ATOM      6  C   UNL     1       6.927   4.586  18.126  0.00  0.00    +0.000 C 
ENDROOT
BRANCH   4   7
ATOM      7  S   UNL     1       3.194   3.065  18.035  0.00  0.00    +0.000 S 
ATOM      8  O   UNL     1       2.254   3.352  16.972  0.00  0.00    +0.000 OA
ATOM      9  O   UNL     1       3.284   1.746  18.619  0.00  0.00    +0.000 OA
BRANCH   7  10
ATOM     10  C   UNL     1       2.695   4.093  19.298  0.00  0.00    +0.000 A 
ATOM     11  C   UNL     1       2.367   5.463  19.188  0.00  0.00    +0.000 A 
ATOM     12  C   UNL     1       2.392   6.362  18.012  0.00  0.00    +0.000 C 
ATOM     13  N   UNL     1       1.979   5.957  20.374  0.00  0.00    +0.000 NA
ATOM     14  O   UNL     1       2.060   4.906  21.267  0.00  0.00    +0.000 OA
ATOM     15  C   UNL     1       2.502   3.791  20.624  0.00  0.00    +0.000 A 
ATOM     16  C   UNL     1       2.649   2.585  21.464  0.00  0.00    +0.000 C 
ENDBRANCH   7  10
ENDBRANCH   4   7
BRANCH   1  17
ATOM     17  C   UNL     1       6.529   6.777  16.939  0.00  0.00    +0.000 C 
ATOM     18  O   UNL     1       5.365   7.146  17.004  0.00  0.00    +0.000 OA
BRANCH  17  19
ATOM     19  O   UNL     1       7.609   7.604  16.896  0.00  0.00    +0.000 OA
BRANCH  19  21
ATOM     20  C   UNL     1       8.442   9.458  18.157  0.00  0.00    +0.000 C 
ATOM     21  C   UNL     1       8.145   7.968  18.178  0.00  0.00    +0.000 C 
ENDBRANCH  19  21
ENDBRANCH  17  19
ENDBRANCH   1  17
TORSDOF 5
ENDMDL
MODEL 7
REMARK VINA RESULT:      -7.2      2.123      3.701
REMARK  Name = 
REMARK  8 active torsions:
REMARK  status: ('A' for Active; 'I' for Inactive)
REMARK    1  A    between atoms: C_1  and  C_2
REMARK    2  A    between atoms: C_2  and  O_3
REMARK    3  A    between atoms: O_3  and  C_4
REMARK    4  A    between atoms: C_4  and  C_6
REMARK    5  A    between atoms: N_9  and  S_10
REMARK    6  A    between atoms: S_10  and  C_13
REMARK    7  A    between atoms: C_14  and  C_15
REMARK    8  A    between atoms: C_18  and  C_19
REMARK                            x       y       z     vdW  Elec       q    Type
REMARK                         _______ _______ _______ _____ _____    ______ ____
ROOT
ATOM      1  C   UNL     1       7.309   6.319  17.751  0.00  0.00    +0.000 C 
ATOM      2  C   UNL     1       7.054   5.709  19.130  0.00  0.00    +0.000 C 
ATOM      3  C   UNL     1       5.665   5.082  19.260  0.00  0.00    +0.000 C 
ATOM      4  N   UNL     1       4.606   6.057  18.865  0.00  0.00    +0.000 NA
ATOM      5  C   UNL     1       4.809   6.590  17.484  0.00  0.00    +0.000 C 
ATOM      6  C   UNL     1       6.176   7.256  17.355  0.00  0.00    +0.000 C 
ENDROOT
BRANCH   4   7
ATOM      7  S   UNL     1       3.013   5.420  19.053  0.00  0.00    +0.000 S 
ATOM      8  O   UNL     1       2.601   5.645  20.422  0.00  0.00    +0.000 OA
ATOM      9  O   UNL     1       2.208   5.876  17.943  0.00  0.00    +0.000 OA
BRANCH   7  10
ATOM     10  C   UNL     1       3.057   3.722  18.923  0.00  0.00    +0.000 A 
ATOM     11  C   UNL     1       3.529   2.975  17.821  0.00  0.00    +0.000 A 
ATOM     12  C   UNL     1       4.064   3.427  16.516  0.00  0.00    +0.000 C 
ATOM     13  N   UNL     1       3.452   1.659  18.069  0.00  0.00    +0.000 NA
ATOM     14  O   UNL     1       2.920   1.543  19.339  0.00  0.00    +0.000 OA
ATOM     15  C   UNL     1       2.671   2.781  19.846  0.00  0.00    +0.000 A 
ATOM     16  C   UNL     1       2.086   2.811  21.201  0.00  0.00    +0.000 C 
ENDBRANCH   7  10
ENDBRANCH   4   7
BRANCH   1  17
ATOM     17  C   UNL     1       7.550   5.240  16.710  0.00  0.00    +0.000 C 
ATOM     18  O   UNL     1       7.987   4.124  16.948  0.00  0.00    +0.000 OA
BRANCH  17  19
ATOM     19  O   UNL     1       7.287   5.727  15.465  0.00  0.00    +0.000 OA
BRANCH  19  21
ATOM     20  C   UNL     1       7.557   5.041  13.190  0.00  0.00    +0.000 C 
ATOM     21  C   UNL     1       6.861   4.745  14.508  0.00  0.00    +0.000 C 
ENDBRANCH  19  21
ENDBRANCH  17  19
ENDBRANCH   1  17
TORSDOF 5
ENDMDL
MODEL 8
REMARK VINA RESULT:      -7.2      1.948      2.450
REMARK  Name = 
REMARK  8 active torsions:
REMARK  status: ('A' for Active; 'I' for Inactive)
REMARK    1  A    between atoms: C_1  and  C_2
REMARK    2  A    between atoms: C_2  and  O_3
REMARK    3  A    between atoms: O_3  and  C_4
REMARK    4  A    between atoms: C_4  and  C_6
REMARK    5  A    between atoms: N_9  and  S_10
REMARK    6  A    between atoms: S_10  and  C_13
REMARK    7  A    between atoms: C_14  and  C_15
REMARK    8  A    between atoms: C_18  and  C_19
REMARK                            x       y       z     vdW  Elec       q    Type
REMARK                         _______ _______ _______ _____ _____    ______ ____
ROOT
ATOM      1  C   UNL     1       7.005   4.926  16.732  0.00  0.00    +0.000 C 
ATOM      2  C   UNL     1       6.170   4.028  15.818  0.00  0.00    +0.000 C 
ATOM      3  C   UNL     1       4.692   3.986  16.206  0.00  0.00    +0.000 C 
ATOM      4  N   UNL     1       4.534   3.633  17.648  0.00  0.00    +0.000 NA
ATOM      5  C   UNL     1       5.283   4.561  18.547  0.00  0.00    +0.000 C 
ATOM      6  C   UNL     1       6.768   4.579  18.195  0.00  0.00    +0.000 C 
ENDROOT
BRANCH   4   7
ATOM      7  S   UNL     1       2.881   3.510  18.125  0.00  0.00    +0.000 S 
ATOM      8  O   UNL     1       2.277   4.818  17.990  0.00  0.00    +0.000 OA
ATOM      9  O   UNL     1       2.308   2.349  17.480  0.00  0.00    +0.000 OA
BRANCH   7  10
ATOM     10  C   UNL     1       2.789   3.198  19.798  0.00  0.00    +0.000 A 
ATOM     11  C   UNL     1       1.845   3.733  20.702  0.00  0.00    +0.000 A 
ATOM     12  C   UNL     1       0.741   4.694  20.478  0.00  0.00    +0.000 C 
ATOM     13  N   UNL     1       2.040   3.246  21.937  0.00  0.00    +0.000 NA
ATOM     14  O   UNL     1       3.122   2.392  21.842  0.00  0.00    +0.000 OA
ATOM     15  C   UNL     1       3.579   2.373  20.561  0.00  0.00    +0.000 A 
ATOM     16  C   UNL     1       4.749   1.508  20.312  0.00  0.00    +0.000 C 
ENDBRANCH   7  10
ENDBRANCH   4   7
BRANCH   1  17
ATOM     17  C   UNL     1       6.748   6.394  16.443  0.00  0.00    +0.000 C 
ATOM     18  O   UNL     1       5.710   6.843  15.977  0.00  0.00    +0.000 OA
BRANCH  17  19
ATOM     19  O   UNL     1       7.869   7.123  16.699  0.00  0.00    +0.000 OA
BRANCH  19  21
ATOM     20  C   UNL     1       8.111   9.219  17.825  0.00  0.00    +0.000 C 
ATOM     21  C   UNL     1       7.918   7.723  18.003  0.00  0.00    +0.000 C 
ENDBRANCH  19  21
ENDBRANCH  17  19
ENDBRANCH   1  17
TORSDOF 5
ENDMDL
MODEL 9
REMARK VINA RESULT:      -7.2      2.078      2.862
REMARK  Name = 
REMARK  8 active torsions:
REMARK  status: ('A' for Active; 'I' for Inactive)
REMARK    1  A    between atoms: C_1  and  C_2
REMARK    2  A    between atoms: C_2  and  O_3
REMARK    3  A    between atoms: O_3  and  C_4
REMARK    4  A    between atoms: C_4  and  C_6
REMARK    5  A    between atoms: N_9  and  S_10
REMARK    6  A    between atoms: S_10  and  C_13
REMARK    7  A    between atoms: C_14  and  C_15
REMARK    8  A    between atoms: C_18  and  C_19
REMARK                            x       y       z     vdW  Elec       q    Type
REMARK                         _______ _______ _______ _____ _____    ______ ____
ROOT
ATOM      1  C   UNL     1       5.932   6.080  17.196  0.00  0.00    +0.000 C 
ATOM      2  C   UNL     1       4.560   6.635  17.581  0.00  0.00    +0.000 C 
ATOM      3  C   UNL     1       3.639   5.582  18.198  0.00  0.00    +0.000 C 
ATOM      4  N   UNL     1       3.539   4.384  17.314  0.00  0.00    +0.000 NA
ATOM      5  C   UNL     1       4.874   3.791  17.005  0.00  0.00    +0.000 C 
ATOM      6  C   UNL     1       5.789   4.822  16.351  0.00  0.00    +0.000 C 
ENDROOT
BRANCH   4   7
ATOM      7  S   UNL     1       2.459   3.189  17.934  0.00  0.00    +0.000 S 
ATOM      8  O   UNL     1       1.108   3.678  17.770  0.00  0.00    +0.000 OA
ATOM      9  O   UNL     1       2.859   1.902  17.411  0.00  0.00    +0.000 OA
BRANCH   7  10
ATOM     10  C   UNL     1       2.641   3.074  19.624  0.00  0.00    +0.000 A 
ATOM     11  C   UNL     1       1.827   3.688  20.601  0.00  0.00    +0.000 A 
ATOM     12  C   UNL     1       0.660   4.588  20.448  0.00  0.00    +0.000 C 
ATOM     13  N   UNL     1       2.232   3.356  21.836  0.00  0.00    +0.000 NA
ATOM     14  O   UNL     1       3.323   2.525  21.667  0.00  0.00    +0.000 OA
ATOM     15  C   UNL     1       3.576   2.366  20.339  0.00  0.00    +0.000 A 
ATOM     16  C   UNL     1       4.730   1.507  20.007  0.00  0.00    +0.000 C 
ENDBRANCH   7  10
ENDBRANCH   4   7
BRANCH   1  17
ATOM     17  C   UNL     1       6.794   5.848  18.425  0.00  0.00    +0.000 C 
ATOM     18  O   UNL     1       6.555   5.031  19.302  0.00  0.00    +0.000 OA
BRANCH  17  19
ATOM     19  O   UNL     1       7.822   6.741  18.448  0.00  0.00    +0.000 OA
BRANCH  19  21
ATOM     20  C   UNL     1       8.318   9.058  18.126  0.00  0.00    +0.000 C 
ATOM     21  C   UNL     1       7.716   7.813  17.497  0.00  0.00    +0.000 C 
ENDBRANCH  19  21
ENDBRANCH  17  19
ENDBRANCH   1  17
TORSDOF 5
ENDMDL
