MODEL 1
REMARK VINA RESULT:      -7.5      0.000      0.000
REMARK  Name = 
REMARK  5 active torsions:
REMARK  status: ('A' for Active; 'I' for Inactive)
REMARK    1  A    between atoms: C_2  and  C_3
REMARK    2  A    between atoms: C_3  and  S_4
REMARK    3  A    between atoms: S_4  and  C_5
REMARK    4  A    between atoms: N_9  and  C_10
REMARK    5  A    between atoms: N_15  and  C_16
REMARK                            x       y       z     vdW  Elec       q    Type
REMARK                         _______ _______ _______ _____ _____    ______ ____
ROOT
ATOM      1  C   UNL     1       7.254   5.984  18.156  0.00  0.00    +0.000 C 
ENDROOT
BRANCH   1   3
ATOM      2  O   UNL     1       8.149   4.087  17.005  0.00  0.00    +0.000 OA
ATOM      3  C   UNL     1       7.499   5.127  16.924  0.00  0.00    +0.000 C 
ATOM      4  N   UNL     1       6.932   5.640  15.768  0.00  0.00    +0.000 N 
ATOM      5  H   UNL     1       6.708   6.637  15.797  0.00  0.00    +0.000 HD
BRANCH   4   6
ATOM      6  C   UNL     1       6.837   4.999  14.517  0.00  0.00    +0.000 A 
ATOM      7  C   UNL     1       5.867   4.037  14.225  0.00  0.00    +0.000 A 
ATOM      8  C   UNL     1       5.801   3.459  12.956  0.00  0.00    +0.000 A 
ATOM      9  C   UNL     1       6.703   3.831  11.965  0.00  0.00    +0.000 A 
ATOM     10  C   UNL     1       7.673   4.791  12.244  0.00  0.00    +0.000 A 
ATOM     11  C   UNL     1       7.735   5.379  13.512  0.00  0.00    +0.000 A 
ENDBRANCH   4   6
ENDBRANCH   1   3
BRANCH   1  12
ATOM     12  S   UNL     1       5.987   5.248  19.222  0.00  0.00    +0.000 S 
BRANCH  12  13
ATOM     13  C   UNL     1       4.561   5.955  18.546  0.00  0.00    +0.000 A 
ATOM     14  N   UNL     1       4.560   7.041  17.800  0.00  0.00    +0.000 NA
ATOM     15  C   UNL     1       3.242   7.292  17.532  0.00  0.00    +0.000 A 
ATOM     16  C   UNL     1       2.437   6.369  18.154  0.00  0.00    +0.000 A 
ATOM     17  N   UNL     1       3.292   5.490  18.780  0.00  0.00    +0.000 N 
BRANCH  17  18
ATOM     18  C   UNL     1       2.883   4.328  19.544  0.00  0.00    +0.000 C 
ATOM     19  C   UNL     1       1.903   4.647  20.674  0.00  0.00    +0.000 C 
ATOM     20  C   UNL     1       1.259   3.306  20.991  0.00  0.00    +0.000 C 
ATOM     21  C   UNL     1       1.245   2.524  19.681  0.00  0.00    +0.000 C 
ATOM     22  C   UNL     1       2.159   3.267  18.709  0.00  0.00    +0.000 C 
ENDBRANCH  17  18
ENDBRANCH  12  13
ENDBRANCH   1  12
TORSDOF 5
ENDMDL
MODEL 2
REMARK VINA RESULT:      -7.0      1.451      2.727
REMARK  Name = 
REMARK  5 active torsions:
REMARK  status: ('A' for Active; 'I' for Inactive)
REMARK    1  A    between atoms: C_2  and  C_3
REMARK    2  A    between atoms: C_3  and  S_4
REMARK    3  A    between atoms: S_4  and  C_5
REMARK    4  A    between atoms: N_9  and  C_10
REMARK    5  A    between atoms: N_15  and  C_16
REMARK                            x       y       z     vdW  Elec       q    Type
REMARK                         _______ _______ _______ _____ _____    ______ ____
ROOT
ATOM      1  C   UNL     1       6.754   6.288  17.759  0.00  0.00    +0.000 C 
ENDROOT
BRANCH   1   3
ATOM      2  O   UNL     1       7.909   4.430  16.790  0.00  0.00    +0.000 OA
ATOM      3  C   UNL     1       7.126   5.361  16.612  0.00  0.00    +0.000 C 
ATOM      4  N   UNL     1       6.510   5.685  15.413  0.00  0.00    +0.000 N 
ATOM      5  H   UNL     1       6.153   6.640  15.349  0.00  0.00    +0.000 HD
BRANCH   4   6
ATOM      6  C   UNL     1       6.516   4.924  14.228  0.00  0.00    +0.000 A 
ATOM      7  C   UNL     1       5.563   3.943  13.945  0.00  0.00    +0.000 A 
ATOM      8  C   UNL     1       5.601   3.242  12.738  0.00  0.00    +0.000 A 
ATOM      9  C   UNL     1       6.593   3.509  11.800  0.00  0.00    +0.000 A 
ATOM     10  C   UNL     1       7.548   4.487  12.070  0.00  0.00    +0.000 A 
ATOM     11  C   UNL     1       7.506   5.197  13.275  0.00  0.00    +0.000 A 
ENDBRANCH   4   6
ENDBRANCH   1   3
BRANCH   1  12
ATOM     12  S   UNL     1       6.194   5.346  19.203  0.00  0.00    +0.000 S 
BRANCH  12  13
ATOM     13  C   UNL     1       4.713   4.693  18.594  0.00  0.00    +0.000 A 
ATOM     14  N   UNL     1       4.562   3.442  18.212  0.00  0.00    +0.000 NA
ATOM     15  C   UNL     1       3.278   3.362  17.744  0.00  0.00    +0.000 A 
ATOM     16  C   UNL     1       2.660   4.586  17.811  0.00  0.00    +0.000 A 
ATOM     17  N   UNL     1       3.578   5.435  18.389  0.00  0.00    +0.000 N 
BRANCH  17  18
ATOM     18  C   UNL     1       3.349   6.836  18.683  0.00  0.00    +0.000 C 
ATOM     19  C   UNL     1       2.956   7.667  17.461  0.00  0.00    +0.000 C 
ATOM     20  C   UNL     1       2.311   8.911  18.053  0.00  0.00    +0.000 C 
ATOM     21  C   UNL     1       1.667   8.469  19.364  0.00  0.00    +0.000 C 
ATOM     22  C   UNL     1       2.212   7.077  19.681  0.00  0.00    +0.000 C 
ENDBRANCH  17  18
ENDBRANCH  12  13
ENDBRANCH   1  12
TORSDOF 5
ENDMDL
MODEL 3
REMARK VINA RESULT:      -7.0      1.697      2.563
REMARK  Name = 
REMARK  5 active torsions:
REMARK  status: ('A' for Active; 'I' for Inactive)
REMARK    1  A    between atoms: C_2  and  C_3
REMARK    2  A    between atoms: C_3  and  S_4
REMARK    3  A    between atoms: S_4  and  C_5
REMARK    4  A    between atoms: N_9  and  C_10
REMARK    5  A    between atoms: N_15  and  C_16
REMARK                            x       y       z     vdW  Elec       q    Type
REMARK                         _______ _______ _______ _____ _____    ______ ____
ROOT
ATOM      1  C   UNL     1       6.071   6.319  17.890  0.00  0.00    +0.000 C 
ENDROOT
BRANCH   1   3
ATOM      2  O   UNL     1       5.130   6.874  15.761  0.00  0.00    +0.000 OA
ATOM      3  C   UNL     1       5.851   6.110  16.399  0.00  0.00    +0.000 C 
ATOM      4  N   UNL     1       6.526   5.013  15.886  0.00  0.00    +0.000 N 
ATOM      5  H   UNL     1       6.813   4.316  16.575  0.00  0.00    +0.000 HD
BRANCH   4   6
ATOM      6  C   UNL     1       6.660   4.664  14.528  0.00  0.00    +0.000 A 
ATOM      7  C   UNL     1       5.843   3.723  13.897  0.00  0.00    +0.000 A 
ATOM      8  C   UNL     1       6.002   3.441  12.540  0.00  0.00    +0.000 A 
ATOM      9  C   UNL     1       6.980   4.092  11.795  0.00  0.00    +0.000 A 
ATOM     10  C   UNL     1       7.800   5.035  12.412  0.00  0.00    +0.000 A 
ATOM     11  C   UNL     1       7.635   5.326  13.771  0.00  0.00    +0.000 A 
ENDBRANCH   4   6
ENDBRANCH   1   3
BRANCH   1  12
ATOM     12  S   UNL     1       5.841   4.772  18.806  0.00  0.00    +0.000 S 
BRANCH  12  13
ATOM     13  C   UNL     1       4.282   4.297  18.231  0.00  0.00    +0.000 A 
ATOM     14  N   UNL     1       4.078   3.305  17.388  0.00  0.00    +0.000 NA
ATOM     15  C   UNL     1       2.731   3.310  17.147  0.00  0.00    +0.000 A 
ATOM     16  C   UNL     1       2.121   4.338  17.822  0.00  0.00    +0.000 A 
ATOM     17  N   UNL     1       3.119   4.953  18.545  0.00  0.00    +0.000 N 
BRANCH  17  18
ATOM     18  C   UNL     1       2.931   6.083  19.433  0.00  0.00    +0.000 C 
ATOM     19  C   UNL     1       2.464   7.354  18.724  0.00  0.00    +0.000 C 
ATOM     20  C   UNL     1       1.880   8.206  19.841  0.00  0.00    +0.000 C 
ATOM     21  C   UNL     1       1.324   7.227  20.871  0.00  0.00    +0.000 C 
ATOM     22  C   UNL     1       1.871   5.846  20.514  0.00  0.00    +0.000 C 
ENDBRANCH  17  18
ENDBRANCH  12  13
ENDBRANCH   1  12
TORSDOF 5
ENDMDL
MODEL 4
REMARK VINA RESULT:      -7.0      1.386      2.619
REMARK  Name = 
REMARK  5 active torsions:
REMARK  status: ('A' for Active; 'I' for Inactive)
REMARK    1  A    between atoms: C_2  and  C_3
REMARK    2  A    between atoms: C_3  and  S_4
REMARK    3  A    between atoms: S_4  and  C_5
REMARK    4  A    between atoms: N_9  and  C_10
REMARK    5  A    between atoms: N_15  and  C_16
REMARK                            x       y       z     vdW  Elec       q    Type
REMARK                         _______ _______ _______ _____ _____    ______ ____
ROOT
ATOM      1  C   UNL     1       6.245   5.616  18.126  0.00  0.00    +0.000 C 
ENDROOT
BRANCH   1   3
ATOM      2  O   UNL     1       7.879   4.348  16.924  0.00  0.00    +0.000 OA
ATOM      3  C   UNL     1       6.865   5.041  16.862  0.00  0.00    +0.000 C 
ATOM      4  N   UNL     1       6.184   5.381  15.704  0.00  0.00    +0.000 N 
ATOM      5  H   UNL     1       5.572   6.196  15.781  0.00  0.00    +0.000 HD
BRANCH   4   6
ATOM      6  C   UNL     1       6.406   4.867  14.412  0.00  0.00    +0.000 A 
ATOM      7  C   UNL     1       7.495   5.238  13.620  0.00  0.00    +0.000 A 
ATOM      8  C   UNL     1       7.682   4.671  12.358  0.00  0.00    +0.000 A 
ATOM      9  C   UNL     1       6.783   3.728  11.870  0.00  0.00    +0.000 A 
ATOM     10  C   UNL     1       5.694   3.347  12.652  0.00  0.00    +0.000 A 
ATOM     11  C   UNL     1       5.511   3.908  13.920  0.00  0.00    +0.000 A 
ENDBRANCH   4   6
ENDBRANCH   1   3
BRANCH   1  12
ATOM     12  S   UNL     1       5.572   4.303  19.179  0.00  0.00    +0.000 S 
BRANCH  12  13
ATOM     13  C   UNL     1       4.040   4.050  18.421  0.00  0.00    +0.000 A 
ATOM     14  N   UNL     1       3.789   3.072  17.575  0.00  0.00    +0.000 NA
ATOM     15  C   UNL     1       2.498   3.271  17.167  0.00  0.00    +0.000 A 
ATOM     16  C   UNL     1       1.976   4.402  17.746  0.00  0.00    +0.000 A 
ATOM     17  N   UNL     1       2.962   4.883  18.578  0.00  0.00    +0.000 N 
BRANCH  17  18
ATOM     18  C   UNL     1       2.844   6.058  19.420  0.00  0.00    +0.000 C 
ATOM     19  C   UNL     1       2.378   7.308  18.672  0.00  0.00    +0.000 C 
ATOM     20  C   UNL     1       1.868   8.227  19.772  0.00  0.00    +0.000 C 
ATOM     21  C   UNL     1       1.334   7.312  20.872  0.00  0.00    +0.000 C 
ATOM     22  C   UNL     1       1.828   5.901  20.556  0.00  0.00    +0.000 C 
ENDBRANCH  17  18
ENDBRANCH  12  13
ENDBRANCH   1  12
TORSDOF 5
ENDMDL
MODEL 5
REMARK VINA RESULT:      -6.9      1.697      2.758
REMARK  Name = 
REMARK  5 active torsions:
REMARK  status: ('A' for Active; 'I' for Inactive)
REMARK    1  A    between atoms: C_2  and  C_3
REMARK    2  A    between atoms: C_3  and  S_4
REMARK    3  A    between atoms: S_4  and  C_5
REMARK    4  A    between atoms: N_9  and  C_10
REMARK    5  A    between atoms: N_15  and  C_16
REMARK                            x       y       z     vdW  Elec       q    Type
REMARK                         _______ _______ _______ _____ _____    ______ ____
ROOT
ATOM      1  C   UNL     1       6.247   6.524  17.776  0.00  0.00    +0.000 C 
ENDROOT
BRANCH   1   3
ATOM      2  O   UNL     1       5.050   6.830  15.727  0.00  0.00    +0.000 OA
ATOM      3  C   UNL     1       5.927   6.208  16.323  0.00  0.00    +0.000 C 
ATOM      4  N   UNL     1       6.702   5.189  15.791  0.00  0.00    +0.000 N 
ATOM      5  H   UNL     1       7.146   4.575  16.477  0.00  0.00    +0.000 HD
BRANCH   4   6
ATOM      6  C   UNL     1       6.762   4.790  14.442  0.00  0.00    +0.000 A 
ATOM      7  C   UNL     1       7.692   5.304  13.535  0.00  0.00    +0.000 A 
ATOM      8  C   UNL     1       7.726   4.848  12.216  0.00  0.00    +0.000 A 
ATOM      9  C   UNL     1       6.830   3.874  11.786  0.00  0.00    +0.000 A 
ATOM     10  C   UNL     1       5.899   3.352  12.681  0.00  0.00    +0.000 A 
ATOM     11  C   UNL     1       5.870   3.802  14.006  0.00  0.00    +0.000 A 
ENDBRANCH   4   6
ENDBRANCH   1   3
BRANCH   1  12
ATOM     12  S   UNL     1       5.991   5.072  18.831  0.00  0.00    +0.000 S 
BRANCH  12  13
ATOM     13  C   UNL     1       4.467   4.517  18.232  0.00  0.00    +0.000 A 
ATOM     14  N   UNL     1       4.327   3.503  17.402  0.00  0.00    +0.000 NA
ATOM     15  C   UNL     1       2.986   3.442  17.134  0.00  0.00    +0.000 A 
ATOM     16  C   UNL     1       2.316   4.451  17.780  0.00  0.00    +0.000 A 
ATOM     17  N   UNL     1       3.269   5.122  18.512  0.00  0.00    +0.000 N 
BRANCH  17  18
ATOM     18  C   UNL     1       3.011   6.256  19.378  0.00  0.00    +0.000 C 
ATOM     19  C   UNL     1       2.452   7.477  18.647  0.00  0.00    +0.000 C 
ATOM     20  C   UNL     1       1.820   8.311  19.750  0.00  0.00    +0.000 C 
ATOM     21  C   UNL     1       1.341   7.319  20.807  0.00  0.00    +0.000 C 
ATOM     22  C   UNL     1       1.979   5.971  20.474  0.00  0.00    +0.000 C 
ENDBRANCH  17  18
ENDBRANCH  12  13
ENDBRANCH   1  12
TORSDOF 5
ENDMDL
MODEL 6
REMARK VINA RESULT:      -6.9      1.175      1.708
REMARK  Name = 
REMARK  5 active torsions:
REMARK  status: ('A' for Active; 'I' for Inactive)
REMARK    1  A    between atoms: C_2  and  C_3
REMARK    2  A    between atoms: C_3  and  S_4
REMARK    3  A    between atoms: S_4  and  C_5
REMARK    4  A    between atoms: N_9  and  C_10
REMARK    5  A    between atoms: N_15  and  C_16
REMARK                            x       y       z     vdW  Elec       q    Type
REMARK                         _______ _______ _______ _____ _____    ______ ____
ROOT
ATOM      1  C   UNL     1       5.789   4.216  18.196  0.00  0.00    +0.000 C 
ENDROOT
BRANCH   1   3
ATOM      2  O   UNL     1       7.862   4.298  17.005  0.00  0.00    +0.000 OA
ATOM      3  C   UNL     1       6.635   4.343  16.939  0.00  0.00    +0.000 C 
ATOM      4  N   UNL     1       5.890   4.511  15.782  0.00  0.00    +0.000 N 
ATOM      5  H   UNL     1       4.934   4.840  15.922  0.00  0.00    +0.000 HD
BRANCH   4   6
ATOM      6  C   UNL     1       6.370   4.484  14.458  0.00  0.00    +0.000 A 
ATOM      7  C   UNL     1       7.421   5.288  14.010  0.00  0.00    +0.000 A 
ATOM      8  C   UNL     1       7.876   5.195  12.694  0.00  0.00    +0.000 A 
ATOM      9  C   UNL     1       7.285   4.301  11.807  0.00  0.00    +0.000 A 
ATOM     10  C   UNL     1       6.237   3.492  12.242  0.00  0.00    +0.000 A 
ATOM     11  C   UNL     1       5.787   3.577  13.564  0.00  0.00    +0.000 A 
ENDBRANCH   4   6
ENDBRANCH   1   3
BRANCH   1  12
ATOM     12  S   UNL     1       4.041   3.967  17.784  0.00  0.00    +0.000 S 
BRANCH  12  13
ATOM     13  C   UNL     1       3.427   5.560  18.052  0.00  0.00    +0.000 A 
ATOM     14  N   UNL     1       3.799   6.619  17.361  0.00  0.00    +0.000 NA
ATOM     15  C   UNL     1       3.132   7.670  17.929  0.00  0.00    +0.000 A 
ATOM     16  C   UNL     1       2.378   7.247  18.996  0.00  0.00    +0.000 A 
ATOM     17  N   UNL     1       2.545   5.882  19.052  0.00  0.00    +0.000 N 
BRANCH  17  18
ATOM     18  C   UNL     1       1.910   5.002  20.013  0.00  0.00    +0.000 C 
ATOM     19  C   UNL     1       1.164   3.829  19.376  0.00  0.00    +0.000 C 
ATOM     20  C   UNL     1       1.019   2.824  20.510  0.00  0.00    +0.000 C 
ATOM     21  C   UNL     1       2.236   3.026  21.409  0.00  0.00    +0.000 C 
ATOM     22  C   UNL     1       2.892   4.338  20.983  0.00  0.00    +0.000 C 
ENDBRANCH  17  18
ENDBRANCH  12  13
ENDBRANCH   1  12
TORSDOF 5
ENDMDL
MODEL 7
REMARK VINA RESULT:      -6.8      4.004      6.303
REMARK  Name = 
REMARK  5 active torsions:
REMARK  status: ('A' for Active; 'I' for Inactive)
REMARK    1  A    between atoms: C_2  and  C_3
REMARK    2  A    between atoms: C_3  and  S_4
REMARK    3  A    between atoms: S_4  and  C_5
REMARK    4  A    between atoms: N_9  and  C_10
REMARK    5  A    between atoms: N_15  and  C_16
REMARK                            x       y       z     vdW  Elec       q    Type
REMARK                         _______ _______ _______ _____ _____    ______ ____
ROOT
ATOM      1  C   UNL     1       7.391   7.653  17.440  0.00  0.00    +0.000 C 
ENDROOT
BRANCH   1   3
ATOM      2  O   UNL     1       8.908   7.827  19.282  0.00  0.00    +0.000 OA
ATOM      3  C   UNL     1       8.342   8.406  18.356  0.00  0.00    +0.000 C 
ATOM      4  N   UNL     1       8.478   9.748  18.035  0.00  0.00    +0.000 N 
ATOM      5  H   UNL     1       7.727  10.138  17.464  0.00  0.00    +0.000 HD
BRANCH   4   6
ATOM      6  C   UNL     1       9.405  10.657  18.580  0.00  0.00    +0.000 A 
ATOM      7  C   UNL     1      10.319  11.373  17.804  0.00  0.00    +0.000 A 
ATOM      8  C   UNL     1      11.194  12.285  18.397  0.00  0.00    +0.000 A 
ATOM      9  C   UNL     1      11.169  12.492  19.772  0.00  0.00    +0.000 A 
ATOM     10  C   UNL     1      10.260  11.786  20.557  0.00  0.00    +0.000 A 
ATOM     11  C   UNL     1       9.377  10.878  19.964  0.00  0.00    +0.000 A 
ENDBRANCH   4   6
ENDBRANCH   1   3
BRANCH   1  12
ATOM     12  S   UNL     1       7.338   5.891  17.861  0.00  0.00    +0.000 S 
BRANCH  12  13
ATOM     13  C   UNL     1       6.708   5.237  16.390  0.00  0.00    +0.000 A 
ATOM     14  N   UNL     1       7.369   5.213  15.251  0.00  0.00    +0.000 NA
ATOM     15  C   UNL     1       6.497   4.681  14.340  0.00  0.00    +0.000 A 
ATOM     16  C   UNL     1       5.285   4.415  14.928  0.00  0.00    +0.000 A 
ATOM     17  N   UNL     1       5.435   4.744  16.256  0.00  0.00    +0.000 N 
BRANCH  17  18
ATOM     18  C   UNL     1       4.410   4.601  17.272  0.00  0.00    +0.000 C 
ATOM     19  C   UNL     1       3.616   5.882  17.531  0.00  0.00    +0.000 C 
ATOM     20  C   UNL     1       2.347   5.396  18.216  0.00  0.00    +0.000 C 
ATOM     21  C   UNL     1       2.077   4.000  17.662  0.00  0.00    +0.000 C 
ATOM     22  C   UNL     1       3.341   3.561  16.925  0.00  0.00    +0.000 C 
ENDBRANCH  17  18
ENDBRANCH  12  13
ENDBRANCH   1  12
TORSDOF 5
ENDMDL
MODEL 8
REMARK VINA RESULT:      -6.8      4.119      6.278
REMARK  Name = 
REMARK  5 active torsions:
REMARK  status: ('A' for Active; 'I' for Inactive)
REMARK    1  A    between atoms: C_2  and  C_3
REMARK    2  A    between atoms: C_3  and  S_4
REMARK    3  A    between atoms: S_4  and  C_5
REMARK    4  A    between atoms: N_9  and  C_10
REMARK    5  A    between atoms: N_15  and  C_16
REMARK                            x       y       z     vdW  Elec       q    Type
REMARK                         _______ _______ _______ _____ _____    ______ ____
ROOT
ATOM      1  C   UNL     1       7.477   7.878  17.358  0.00  0.00    +0.000 C 
ENDROOT
BRANCH   1   3
ATOM      2  O   UNL     1       8.960   7.993  19.232  0.00  0.00    +0.000 OA
ATOM      3  C   UNL     1       8.421   8.599  18.308  0.00  0.00    +0.000 C 
ATOM      4  N   UNL     1       8.581   9.945  18.018  0.00  0.00    +0.000 N 
ATOM      5  H   UNL     1       7.846  10.358  17.441  0.00  0.00    +0.000 HD
BRANCH   4   6
ATOM      6  C   UNL     1       9.510  10.829  18.600  0.00  0.00    +0.000 A 
ATOM      7  C   UNL     1       9.553  11.099  19.970  0.00  0.00    +0.000 A 
ATOM      8  C   UNL     1      10.518  11.961  20.494  0.00  0.00    +0.000 A 
ATOM      9  C   UNL     1      11.450  12.566  19.658  0.00  0.00    +0.000 A 
ATOM     10  C   UNL     1      11.420  12.303  18.290  0.00  0.00    +0.000 A 
ATOM     11  C   UNL     1      10.459  11.432  17.764  0.00  0.00    +0.000 A 
ENDBRANCH   4   6
ENDBRANCH   1   3
BRANCH   1  12
ATOM     12  S   UNL     1       6.995   6.261  18.020  0.00  0.00    +0.000 S 
BRANCH  12  13
ATOM     13  C   UNL     1       6.556   5.445  16.560  0.00  0.00    +0.000 A 
ATOM     14  N   UNL     1       7.281   5.463  15.460  0.00  0.00    +0.000 NA
ATOM     15  C   UNL     1       6.553   4.759  14.539  0.00  0.00    +0.000 A 
ATOM     16  C   UNL     1       5.360   4.343  15.079  0.00  0.00    +0.000 A 
ATOM     17  N   UNL     1       5.380   4.760  16.391  0.00  0.00    +0.000 N 
BRANCH  17  18
ATOM     18  C   UNL     1       4.330   4.516  17.360  0.00  0.00    +0.000 C 
ATOM     19  C   UNL     1       3.450   5.736  17.635  0.00  0.00    +0.000 C 
ATOM     20  C   UNL     1       2.188   5.150  18.251  0.00  0.00    +0.000 C 
ATOM     21  C   UNL     1       2.025   3.763  17.635  0.00  0.00    +0.000 C 
ATOM     22  C   UNL     1       3.339   3.429  16.933  0.00  0.00    +0.000 C 
ENDBRANCH  17  18
ENDBRANCH  12  13
ENDBRANCH   1  12
TORSDOF 5
ENDMDL
MODEL 9
REMARK VINA RESULT:      -6.7      3.750      5.877
REMARK  Name = 
REMARK  5 active torsions:
REMARK  status: ('A' for Active; 'I' for Inactive)
REMARK    1  A    between atoms: C_2  and  C_3
REMARK    2  A    between atoms: C_3  and  S_4
REMARK    3  A    between atoms: S_4  and  C_5
REMARK    4  A    between atoms: N_9  and  C_10
REMARK    5  A    between atoms: N_15  and  C_16
REMARK                            x       y       z     vdW  Elec       q    Type
REMARK                         _______ _______ _______ _____ _____    ______ ____
ROOT
ATOM      1  C   UNL     1       8.093   6.423  18.714  0.00  0.00    +0.000 C 
ENDROOT
BRANCH   1   3
ATOM      2  O   UNL     1       7.443   8.263  17.330  0.00  0.00    +0.000 OA
ATOM      3  C   UNL     1       8.119   7.881  18.283  0.00  0.00    +0.000 C 
ATOM      4  N   UNL     1       8.955   8.673  19.053  0.00  0.00    +0.000 N 
ATOM      5  H   UNL     1       9.669   8.169  19.583  0.00  0.00    +0.000 HD
BRANCH   4   6
ATOM      6  C   UNL     1       9.060  10.077  19.014  0.00  0.00    +0.000 A 
ATOM      7  C   UNL     1       8.809  10.830  17.864  0.00  0.00    +0.000 A 
ATOM      8  C   UNL     1       8.899  12.223  17.893  0.00  0.00    +0.000 A 
ATOM      9  C   UNL     1       9.242  12.882  19.069  0.00  0.00    +0.000 A 
ATOM     10  C   UNL     1       9.492  12.143  20.224  0.00  0.00    +0.000 A 
ATOM     11  C   UNL     1       9.394  10.747  20.198  0.00  0.00    +0.000 A 
ENDBRANCH   4   6
ENDBRANCH   1   3
BRANCH   1  12
ATOM     12  S   UNL     1       6.391   5.814  18.851  0.00  0.00    +0.000 S 
BRANCH  12  13
ATOM     13  C   UNL     1       6.261   4.916  17.379  0.00  0.00    +0.000 A 
ATOM     14  N   UNL     1       7.144   4.971  16.402  0.00  0.00    +0.000 NA
ATOM     15  C   UNL     1       6.635   4.173  15.413  0.00  0.00    +0.000 A 
ATOM     16  C   UNL     1       5.416   3.660  15.783  0.00  0.00    +0.000 A 
ATOM     17  N   UNL     1       5.193   4.116  17.063  0.00  0.00    +0.000 N 
BRANCH  17  18
ATOM     18  C   UNL     1       4.031   3.801  17.870  0.00  0.00    +0.000 C 
ATOM     19  C   UNL     1       2.781   4.595  17.489  0.00  0.00    +0.000 C 
ATOM     20  C   UNL     1       1.636   3.789  18.084  0.00  0.00    +0.000 C 
ATOM     21  C   UNL     1       2.091   2.332  18.062  0.00  0.00    +0.000 C 
ATOM     22  C   UNL     1       3.590   2.337  17.769  0.00  0.00    +0.000 C 
ENDBRANCH  17  18
ENDBRANCH  12  13
ENDBRANCH   1  12
TORSDOF 5
ENDMDL
