MODEL 1
REMARK VINA RESULT:      -7.9      0.000      0.000
REMARK  Name = 
REMARK  9 active torsions:
REMARK  status: ('A' for Active; 'I' for Inactive)
REMARK    1  A    between atoms: C_1  and  C_2
REMARK    2  A    between atoms: C_4  and  S_5
REMARK    3  A    between atoms: S_5  and  N_8
REMARK    4  A    between atoms: C_14  and  C_15
REMARK    5  A    between atoms: C_15  and  C_16
REMARK    6  A    between atoms: C_16  and  C_17
REMARK    7  A    between atoms: C_17  and  C_18
REMARK    8  A    between atoms: C_17  and  C_19
REMARK    9  A    between atoms: N_23  and  C_24
REMARK                            x       y       z     vdW  Elec       q    Type
REMARK                         _______ _______ _______ _____ _____    ______ ____
ROOT
ATOM      1  N   UNL     1       3.028   6.002  17.846  0.00  0.00    +0.000 NA
ATOM      2  C   UNL     1       3.330   4.979  19.469  0.00  0.00    +0.000 C 
ATOM      3  C   UNL     1       5.272   4.776  19.819  0.00  0.00    +0.000 C 
ATOM      4  C   UNL     1       6.348   4.930  18.282  0.00  0.00    +0.000 A 
ATOM      5  N   UNL     1       7.543   4.294  18.066  0.00  0.00    +0.000 N 
ATOM      6  N   UNL     1       7.917   4.230  16.761  0.00  0.00    +0.000 NA
ATOM      7  C   UNL     1       6.947   4.806  16.031  0.00  0.00    +0.000 A 
ATOM      8  C   UNL     1       5.912   5.291  16.841  0.00  0.00    +0.000 A 
ATOM      9  C   UNL     1       4.192   5.839  16.330  0.00  0.00    +0.000 C 
ATOM     10  H   UNL     1       8.101   3.776  18.734  0.00  0.00    +0.000 HD
ENDROOT
BRANCH   1  11
ATOM     11  S   UNL     1       4.441   6.434  18.417  0.00  0.00    +0.000 S 
ATOM     12  O   UNL     1       5.277   6.722  17.249  0.00  0.00    +0.000 OA
ATOM     13  O   UNL     1       4.997   5.432  19.313  0.00  0.00    +0.000 OA
BRANCH  11  17
ATOM     14  C   UNL     1       0.489   8.985  21.806  0.00  0.00    +0.000 C 
ATOM     15  C   UNL     1       1.120   8.590  20.522  0.00  0.00    +0.000 A 
ATOM     16  N   UNL     1       1.969   7.603  20.331  0.00  0.00    +0.000 NA
ATOM     17  C   UNL     1       2.626   7.790  19.049  0.00  0.00    +0.000 A 
ATOM     18  C   UNL     1       1.755   8.729  18.406  0.00  0.00    +0.000 A 
ATOM     19  N   UNL     1       0.885   9.234  19.348  0.00  0.00    +0.000 N 
ATOM     20  C   UNL     1      -0.115  10.247  19.102  0.00  0.00    +0.000 C 
ENDBRANCH  11  17
ENDBRANCH   1  11
BRANCH   7  21
ATOM     21  C   UNL     1       6.953   4.777  14.536  0.00  0.00    +0.000 C 
BRANCH  21  22
ATOM     22  C   UNL     1       5.839   3.910  13.936  0.00  0.00    +0.000 C 
BRANCH  22  23
ATOM     23  C   UNL     1       6.123   3.384  12.516  0.00  0.00    +0.000 C 
ATOM     24  C   UNL     1       4.854   3.297  11.669  0.00  0.00    +0.000 C 
ATOM     25  C   UNL     1       7.151   4.284  11.823  0.00  0.00    +0.000 C 
ENDBRANCH  22  23
ENDBRANCH  21  22
ENDBRANCH   7  21
TORSDOF 5
ENDMDL
MODEL 2
REMARK VINA RESULT:      -7.8      4.654      7.304
REMARK  Name = 
REMARK  9 active torsions:
REMARK  status: ('A' for Active; 'I' for Inactive)
REMARK    1  A    between atoms: C_1  and  C_2
REMARK    2  A    between atoms: C_4  and  S_5
REMARK    3  A    between atoms: S_5  and  N_8
REMARK    4  A    between atoms: C_14  and  C_15
REMARK    5  A    between atoms: C_15  and  C_16
REMARK    6  A    between atoms: C_16  and  C_17
REMARK    7  A    between atoms: C_17  and  C_18
REMARK    8  A    between atoms: C_17  and  C_19
REMARK    9  A    between atoms: N_23  and  C_24
REMARK                            x       y       z     vdW  Elec       q    Type
REMARK                         _______ _______ _______ _____ _____    ______ ____
ROOT
ATOM      1  N   UNL     1       0.471  11.112  22.092  0.00  0.00    +0.000 NA
ATOM      2  C   UNL     1       0.901  12.733  21.114  0.00  0.00    +0.000 C 
ATOM      3  C   UNL     1       0.838  12.410  19.157  0.00  0.00    +0.000 C 
ATOM      4  C   UNL     1       1.099  10.611  18.668  0.00  0.00    +0.000 A 
ATOM      5  N   UNL     1       1.679  10.166  17.510  0.00  0.00    +0.000 N 
ATOM      6  N   UNL     1       2.125   8.883  17.562  0.00  0.00    +0.000 NA
ATOM      7  C   UNL     1       1.884   8.419  18.801  0.00  0.00    +0.000 A 
ATOM      8  C   UNL     1       1.246   9.380  19.595  0.00  0.00    +0.000 A 
ATOM      9  C   UNL     1       1.018   9.386  21.457  0.00  0.00    +0.000 C 
ATOM     10  H   UNL     1       1.916  10.705  16.685  0.00  0.00    +0.000 HD
ENDROOT
BRANCH   1  11
ATOM     11  S   UNL     1      -0.225  11.002  20.672  0.00  0.00    +0.000 S 
ATOM     12  O   UNL     1      -0.521   9.581  20.478  0.00  0.00    +0.000 OA
ATOM     13  O   UNL     1       0.590  11.589  19.620  0.00  0.00    +0.000 OA
BRANCH  11  17
ATOM     14  C   UNL     1      -4.212  12.622  24.557  0.00  0.00    +0.000 C 
ATOM     15  C   UNL     1      -3.049  12.804  23.653  0.00  0.00    +0.000 A 
ATOM     16  N   UNL     1      -2.719  12.047  22.629  0.00  0.00    +0.000 NA
ATOM     17  C   UNL     1      -1.344  12.331  22.258  0.00  0.00    +0.000 A 
ATOM     18  C   UNL     1      -1.117  13.588  22.908  0.00  0.00    +0.000 A 
ATOM     19  N   UNL     1      -2.152  13.817  23.789  0.00  0.00    +0.000 N 
ATOM     20  C   UNL     1      -2.260  14.956  24.670  0.00  0.00    +0.000 C 
ENDBRANCH  11  17
ENDBRANCH   1  11
BRANCH   7  21
ATOM     21  C   UNL     1       2.385   7.088  19.263  0.00  0.00    +0.000 C 
BRANCH  21  22
ATOM     22  C   UNL     1       2.769   6.146  18.116  0.00  0.00    +0.000 C 
BRANCH  22  23
ATOM     23  C   UNL     1       2.006   4.808  18.094  0.00  0.00    +0.000 C 
ATOM     24  C   UNL     1       2.810   3.697  17.418  0.00  0.00    +0.000 C 
ATOM     25  C   UNL     1       1.644   4.391  19.523  0.00  0.00    +0.000 C 
ENDBRANCH  22  23
ENDBRANCH  21  22
ENDBRANCH   7  21
TORSDOF 5
ENDMDL
MODEL 3
REMARK VINA RESULT:      -7.7      1.866      7.936
REMARK  Name = 
REMARK  9 active torsions:
REMARK  status: ('A' for Active; 'I' for Inactive)
REMARK    1  A    between atoms: C_1  and  C_2
REMARK    2  A    between atoms: C_4  and  S_5
REMARK    3  A    between atoms: S_5  and  N_8
REMARK    4  A    between atoms: C_14  and  C_15
REMARK    5  A    between atoms: C_15  and  C_16
REMARK    6  A    between atoms: C_16  and  C_17
REMARK    7  A    between atoms: C_17  and  C_18
REMARK    8  A    between atoms: C_17  and  C_19
REMARK    9  A    between atoms: N_23  and  C_24
REMARK                            x       y       z     vdW  Elec       q    Type
REMARK                         _______ _______ _______ _____ _____    ______ ____
ROOT
ATOM      1  N   UNL     1       5.422   6.189  17.217  0.00  0.00    +0.000 NA
ATOM      2  C   UNL     1       6.217   4.675  18.137  0.00  0.00    +0.000 C 
ATOM      3  C   UNL     1       4.839   3.667  19.148  0.00  0.00    +0.000 C 
ATOM      4  C   UNL     1       3.325   4.687  19.606  0.00  0.00    +0.000 A 
ATOM      5  N   UNL     1       2.543   4.517  20.718  0.00  0.00    +0.000 N 
ATOM      6  N   UNL     1       1.785   5.597  21.043  0.00  0.00    +0.000 NA
ATOM      7  C   UNL     1       2.062   6.569  20.157  0.00  0.00    +0.000 A 
ATOM      8  C   UNL     1       2.996   6.146  19.203  0.00  0.00    +0.000 A 
ATOM      9  C   UNL     1       3.982   7.189  17.995  0.00  0.00    +0.000 C 
ATOM     10  H   UNL     1       2.555   3.745  21.375  0.00  0.00    +0.000 HD
ENDROOT
BRANCH   1  11
ATOM     11  S   UNL     1       4.282   5.106  17.408  0.00  0.00    +0.000 S 
ATOM     12  O   UNL     1       3.019   5.847  17.410  0.00  0.00    +0.000 OA
ATOM     13  O   UNL     1       4.496   4.294  18.596  0.00  0.00    +0.000 OA
BRANCH  11  17
ATOM     14  C   UNL     1       6.035   3.181  12.228  0.00  0.00    +0.000 C 
ATOM     15  C   UNL     1       6.160   3.907  13.517  0.00  0.00    +0.000 A 
ATOM     16  N   UNL     1       5.439   3.719  14.601  0.00  0.00    +0.000 NA
ATOM     17  C   UNL     1       5.611   4.859  15.484  0.00  0.00    +0.000 A 
ATOM     18  C   UNL     1       6.798   5.464  14.955  0.00  0.00    +0.000 A 
ATOM     19  N   UNL     1       7.071   4.893  13.730  0.00  0.00    +0.000 N 
ATOM     20  C   UNL     1       8.158   5.270  12.858  0.00  0.00    +0.000 C 
ENDBRANCH  11  17
ENDBRANCH   1  11
BRANCH   7  21
ATOM     21  C   UNL     1       1.522   7.955  20.303  0.00  0.00    +0.000 C 
BRANCH  21  22
ATOM     22  C   UNL     1       0.889   8.226  21.674  0.00  0.00    +0.000 C 
BRANCH  22  23
ATOM     23  C   UNL     1       0.645   9.713  21.991  0.00  0.00    +0.000 C 
ATOM     24  C   UNL     1       0.220  10.504  20.754  0.00  0.00    +0.000 C 
ATOM     25  C   UNL     1      -0.421   9.844  23.084  0.00  0.00    +0.000 C 
ENDBRANCH  22  23
ENDBRANCH  21  22
ENDBRANCH   7  21
TORSDOF 5
ENDMDL
MODEL 4
REMARK VINA RESULT:      -7.6      5.090      7.710
REMARK  Name = 
REMARK  9 active torsions:
REMARK  status: ('A' for Active; 'I' for Inactive)
REMARK    1  A    between atoms: C_1  and  C_2
REMARK    2  A    between atoms: C_4  and  S_5
REMARK    3  A    between atoms: S_5  and  N_8
REMARK    4  A    between atoms: C_14  and  C_15
REMARK    5  A    between atoms: C_15  and  C_16
REMARK    6  A    between atoms: C_16  and  C_17
REMARK    7  A    between atoms: C_17  and  C_18
REMARK    8  A    between atoms: C_17  and  C_19
REMARK    9  A    between atoms: N_23  and  C_24
REMARK                            x       y       z     vdW  Elec       q    Type
REMARK                         _______ _______ _______ _____ _____    ______ ____
ROOT
ATOM      1  N   UNL     1      -0.456  11.379  21.911  0.00  0.00    +0.000 NA
ATOM      2  C   UNL     1       0.199  13.052  21.174  0.00  0.00    +0.000 C 
ATOM      3  C   UNL     1       0.618  12.852  19.245  0.00  0.00    +0.000 C 
ATOM      4  C   UNL     1       0.994  11.084  18.721  0.00  0.00    +0.000 A 
ATOM      5  N   UNL     1       1.841  10.703  17.714  0.00  0.00    +0.000 N 
ATOM      6  N   UNL     1       2.263   9.413  17.792  0.00  0.00    +0.000 NA
ATOM      7  C   UNL     1       1.726   8.876  18.902  0.00  0.00    +0.000 A 
ATOM      8  C   UNL     1       0.911   9.795  19.575  0.00  0.00    +0.000 A 
ATOM      9  C   UNL     1       0.234   9.689  21.321  0.00  0.00    +0.000 C 
ATOM     10  H   UNL     1       2.272  11.289  17.009  0.00  0.00    +0.000 HD
ENDROOT
BRANCH   1  11
ATOM     11  S   UNL     1      -0.782  11.367  20.361  0.00  0.00    +0.000 S 
ATOM     12  O   UNL     1      -0.983   9.962  20.002  0.00  0.00    +0.000 OA
ATOM     13  O   UNL     1       0.248  12.038  19.583  0.00  0.00    +0.000 OA
BRANCH  11  17
ATOM     14  C   UNL     1      -4.341  12.573  24.775  0.00  0.00    +0.000 C 
ATOM     15  C   UNL     1      -3.701  12.788  23.454  0.00  0.00    +0.000 A 
ATOM     16  N   UNL     1      -3.088  11.887  22.718  0.00  0.00    +0.000 NA
ATOM     17  C   UNL     1      -2.288  12.565  21.712  0.00  0.00    +0.000 A 
ATOM     18  C   UNL     1      -2.857  13.881  21.723  0.00  0.00    +0.000 A 
ATOM     19  N   UNL     1      -3.672  13.995  22.829  0.00  0.00    +0.000 N 
ATOM     20  C   UNL     1      -4.385  15.189  23.219  0.00  0.00    +0.000 C 
ENDBRANCH  11  17
ENDBRANCH   1  11
BRANCH   7  21
ATOM     21  C   UNL     1       2.101   7.513  19.386  0.00  0.00    +0.000 C 
BRANCH  21  22
ATOM     22  C   UNL     1       2.467   6.540  18.259  0.00  0.00    +0.000 C 
BRANCH  22  23
ATOM     23  C   UNL     1       2.438   5.052  18.653  0.00  0.00    +0.000 C 
ATOM     24  C   UNL     1       1.920   4.843  20.076  0.00  0.00    +0.000 C 
ATOM     25  C   UNL     1       1.570   4.267  17.664  0.00  0.00    +0.000 C 
ENDBRANCH  22  23
ENDBRANCH  21  22
ENDBRANCH   7  21
TORSDOF 5
ENDMDL
MODEL 5
REMARK VINA RESULT:      -7.5      5.197      7.350
REMARK  Name = 
REMARK  9 active torsions:
REMARK  status: ('A' for Active; 'I' for Inactive)
REMARK    1  A    between atoms: C_1  and  C_2
REMARK    2  A    between atoms: C_4  and  S_5
REMARK    3  A    between atoms: S_5  and  N_8
REMARK    4  A    between atoms: C_14  and  C_15
REMARK    5  A    between atoms: C_15  and  C_16
REMARK    6  A    between atoms: C_16  and  C_17
REMARK    7  A    between atoms: C_17  and  C_18
REMARK    8  A    between atoms: C_17  and  C_19
REMARK    9  A    between atoms: N_23  and  C_24
REMARK                            x       y       z     vdW  Elec       q    Type
REMARK                         _______ _______ _______ _____ _____    ______ ____
ROOT
ATOM      1  N   UNL     1       0.519  10.895  21.970  0.00  0.00    +0.000 NA
ATOM      2  C   UNL     1       1.101  12.275  20.735  0.00  0.00    +0.000 C 
ATOM      3  C   UNL     1       1.180  11.570  18.882  0.00  0.00    +0.000 C 
ATOM      4  C   UNL     1       1.396   9.703  18.780  0.00  0.00    +0.000 A 
ATOM      5  N   UNL     1       2.047   9.019  17.788  0.00  0.00    +0.000 N 
ATOM      6  N   UNL     1       2.428   7.760  18.130  0.00  0.00    +0.000 NA
ATOM      7  C   UNL     1       2.066   7.559  19.409  0.00  0.00    +0.000 A 
ATOM      8  C   UNL     1       1.412   8.678  19.940  0.00  0.00    +0.000 A 
ATOM      9  C   UNL     1       1.036   9.062  21.737  0.00  0.00    +0.000 C 
ATOM     10  H   UNL     1       2.374   9.376  16.897  0.00  0.00    +0.000 HD
ENDROOT
BRANCH   1  11
ATOM     11  S   UNL     1      -0.064  10.524  20.545  0.00  0.00    +0.000 S 
ATOM     12  O   UNL     1      -0.407   9.102  20.606  0.00  0.00    +0.000 OA
ATOM     13  O   UNL     1       0.857  10.867  19.473  0.00  0.00    +0.000 OA
BRANCH  11  17
ATOM     14  C   UNL     1      -4.087  14.524  21.742  0.00  0.00    +0.000 C 
ATOM     15  C   UNL     1      -2.835  13.756  21.955  0.00  0.00    +0.000 A 
ATOM     16  N   UNL     1      -2.173  13.062  21.055  0.00  0.00    +0.000 NA
ATOM     17  C   UNL     1      -1.246  12.173  21.735  0.00  0.00    +0.000 A 
ATOM     18  C   UNL     1      -1.188  12.754  23.044  0.00  0.00    +0.000 A 
ATOM     19  N   UNL     1      -2.206  13.677  23.157  0.00  0.00    +0.000 N 
ATOM     20  C   UNL     1      -2.511  14.439  24.345  0.00  0.00    +0.000 C 
ENDBRANCH  11  17
ENDBRANCH   1  11
BRANCH   7  21
ATOM     21  C   UNL     1       2.467   6.334  20.165  0.00  0.00    +0.000 C 
BRANCH  21  22
ATOM     22  C   UNL     1       2.085   5.026  19.460  0.00  0.00    +0.000 C 
BRANCH  22  23
ATOM     23  C   UNL     1       1.249   4.053  20.312  0.00  0.00    +0.000 C 
ATOM     24  C   UNL     1       0.782   2.839  19.508  0.00  0.00    +0.000 C 
ATOM     25  C   UNL     1       2.061   3.592  21.526  0.00  0.00    +0.000 C 
ENDBRANCH  22  23
ENDBRANCH  21  22
ENDBRANCH   7  21
TORSDOF 5
ENDMDL
MODEL 6
REMARK VINA RESULT:      -7.4      5.266      7.278
REMARK  Name = 
REMARK  9 active torsions:
REMARK  status: ('A' for Active; 'I' for Inactive)
REMARK    1  A    between atoms: C_1  and  C_2
REMARK    2  A    between atoms: C_4  and  S_5
REMARK    3  A    between atoms: S_5  and  N_8
REMARK    4  A    between atoms: C_14  and  C_15
REMARK    5  A    between atoms: C_15  and  C_16
REMARK    6  A    between atoms: C_16  and  C_17
REMARK    7  A    between atoms: C_17  and  C_18
REMARK    8  A    between atoms: C_17  and  C_19
REMARK    9  A    between atoms: N_23  and  C_24
REMARK                            x       y       z     vdW  Elec       q    Type
REMARK                         _______ _______ _______ _____ _____    ______ ____
ROOT
ATOM      1  N   UNL     1       0.781  11.200  21.772  0.00  0.00    +0.000 NA
ATOM      2  C   UNL     1       1.537  12.330  20.385  0.00  0.00    +0.000 C 
ATOM      3  C   UNL     1       1.528  11.393  18.635  0.00  0.00    +0.000 C 
ATOM      4  C   UNL     1       1.504   9.516  18.771  0.00  0.00    +0.000 A 
ATOM      5  N   UNL     1       2.064   8.635  17.883  0.00  0.00    +0.000 N 
ATOM      6  N   UNL     1       2.280   7.391  18.385  0.00  0.00    +0.000 NA
ATOM      7  C   UNL     1       1.894   7.400  19.673  0.00  0.00    +0.000 A 
ATOM      8  C   UNL     1       1.387   8.650  20.050  0.00  0.00    +0.000 A 
ATOM      9  C   UNL     1       1.060   9.302  21.778  0.00  0.00    +0.000 C 
ATOM     10  H   UNL     1       2.434   8.833  16.961  0.00  0.00    +0.000 HD
ENDROOT
BRANCH   1  11
ATOM     11  S   UNL     1       0.157  10.730  20.393  0.00  0.00    +0.000 S 
ATOM     12  O   UNL     1      -0.412   9.404  20.640  0.00  0.00    +0.000 OA
ATOM     13  O   UNL     1       1.132  10.767  19.314  0.00  0.00    +0.000 OA
BRANCH  11  17
ATOM     14  C   UNL     1      -1.423  14.647  24.364  0.00  0.00    +0.000 C 
ATOM     15  C   UNL     1      -1.369  14.032  23.015  0.00  0.00    +0.000 A 
ATOM     16  N   UNL     1      -1.052  12.789  22.726  0.00  0.00    +0.000 NA
ATOM     17  C   UNL     1      -0.751  12.697  21.308  0.00  0.00    +0.000 A 
ATOM     18  C   UNL     1      -1.336  13.905  20.804  0.00  0.00    +0.000 A 
ATOM     19  N   UNL     1      -1.652  14.716  21.874  0.00  0.00    +0.000 N 
ATOM     20  C   UNL     1      -2.213  16.043  21.777  0.00  0.00    +0.000 C 
ENDBRANCH  11  17
ENDBRANCH   1  11
BRANCH   7  21
ATOM     21  C   UNL     1       2.134   6.239  20.583  0.00  0.00    +0.000 C 
BRANCH  21  22
ATOM     22  C   UNL     1       2.184   4.890  19.855  0.00  0.00    +0.000 C 
BRANCH  22  23
ATOM     23  C   UNL     1       1.196   3.833  20.382  0.00  0.00    +0.000 C 
ATOM     24  C   UNL     1       0.782   2.839  19.298  0.00  0.00    +0.000 C 
ATOM     25  C   UNL     1       1.816   3.084  21.566  0.00  0.00    +0.000 C 
ENDBRANCH  22  23
ENDBRANCH  21  22
ENDBRANCH   7  21
TORSDOF 5
ENDMDL
MODEL 7
REMARK VINA RESULT:      -7.4      1.789      7.892
REMARK  Name = 
REMARK  9 active torsions:
REMARK  status: ('A' for Active; 'I' for Inactive)
REMARK    1  A    between atoms: C_1  and  C_2
REMARK    2  A    between atoms: C_4  and  S_5
REMARK    3  A    between atoms: S_5  and  N_8
REMARK    4  A    between atoms: C_14  and  C_15
REMARK    5  A    between atoms: C_15  and  C_16
REMARK    6  A    between atoms: C_16  and  C_17
REMARK    7  A    between atoms: C_17  and  C_18
REMARK    8  A    between atoms: C_17  and  C_19
REMARK    9  A    between atoms: N_23  and  C_24
REMARK                            x       y       z     vdW  Elec       q    Type
REMARK                         _______ _______ _______ _____ _____    ______ ____
ROOT
ATOM      1  N   UNL     1       5.507   6.028  16.941  0.00  0.00    +0.000 NA
ATOM      2  C   UNL     1       6.330   4.638  18.019  0.00  0.00    +0.000 C 
ATOM      3  C   UNL     1       4.983   3.765  19.186  0.00  0.00    +0.000 C 
ATOM      4  C   UNL     1       3.481   4.836  19.557  0.00  0.00    +0.000 A 
ATOM      5  N   UNL     1       2.732   4.807  20.703  0.00  0.00    +0.000 N 
ATOM      6  N   UNL     1       1.981   5.920  20.913  0.00  0.00    +0.000 NA
ATOM      7  C   UNL     1       2.231   6.775  19.906  0.00  0.00    +0.000 A 
ATOM      8  C   UNL     1       3.138   6.235  18.986  0.00  0.00    +0.000 A 
ATOM      9  C   UNL     1       4.087   7.118  17.631  0.00  0.00    +0.000 C 
ATOM     10  H   UNL     1       2.764   4.122  21.450  0.00  0.00    +0.000 HD
ENDROOT
BRANCH   1  11
ATOM     11  S   UNL     1       4.374   4.979  17.298  0.00  0.00    +0.000 S 
ATOM     12  O   UNL     1       3.127   5.742  17.373  0.00  0.00    +0.000 OA
ATOM     13  O   UNL     1       4.686   4.231  18.506  0.00  0.00    +0.000 OA
BRANCH  11  17
ATOM     14  C   UNL     1       8.320   5.586  13.094  0.00  0.00    +0.000 C 
ATOM     15  C   UNL     1       7.078   5.070  13.722  0.00  0.00    +0.000 A 
ATOM     16  N   UNL     1       6.436   5.591  14.746  0.00  0.00    +0.000 NA
ATOM     17  C   UNL     1       5.517   4.600  15.278  0.00  0.00    +0.000 A 
ATOM     18  C   UNL     1       5.436   3.663  14.196  0.00  0.00    +0.000 A 
ATOM     19  N   UNL     1       6.437   3.951  13.293  0.00  0.00    +0.000 N 
ATOM     20  C   UNL     1       6.717   3.200  12.092  0.00  0.00    +0.000 C 
ENDBRANCH  11  17
ENDBRANCH   1  11
BRANCH   7  21
ATOM     21  C   UNL     1       1.693   8.169  19.895  0.00  0.00    +0.000 C 
BRANCH  21  22
ATOM     22  C   UNL     1       1.345   8.704  21.290  0.00  0.00    +0.000 C 
BRANCH  22  23
ATOM     23  C   UNL     1      -0.131   9.099  21.482  0.00  0.00    +0.000 C 
ATOM     24  C   UNL     1      -0.470   9.364  22.949  0.00  0.00    +0.000 C 
ATOM     25  C   UNL     1      -0.452  10.339  20.642  0.00  0.00    +0.000 C 
ENDBRANCH  22  23
ENDBRANCH  21  22
ENDBRANCH   7  21
TORSDOF 5
ENDMDL
MODEL 8
REMARK VINA RESULT:      -7.3      1.719      7.484
REMARK  Name = 
REMARK  9 active torsions:
REMARK  status: ('A' for Active; 'I' for Inactive)
REMARK    1  A    between atoms: C_1  and  C_2
REMARK    2  A    between atoms: C_4  and  S_5
REMARK    3  A    between atoms: S_5  and  N_8
REMARK    4  A    between atoms: C_14  and  C_15
REMARK    5  A    between atoms: C_15  and  C_16
REMARK    6  A    between atoms: C_16  and  C_17
REMARK    7  A    between atoms: C_17  and  C_18
REMARK    8  A    between atoms: C_17  and  C_19
REMARK    9  A    between atoms: N_23  and  C_24
REMARK                            x       y       z     vdW  Elec       q    Type
REMARK                         _______ _______ _______ _____ _____    ______ ____
ROOT
ATOM      1  N   UNL     1       5.545   6.246  17.223  0.00  0.00    +0.000 NA
ATOM      2  C   UNL     1       6.181   4.751  18.286  0.00  0.00    +0.000 C 
ATOM      3  C   UNL     1       4.685   3.913  19.285  0.00  0.00    +0.000 C 
ATOM      4  C   UNL     1       3.227   5.063  19.588  0.00  0.00    +0.000 A 
ATOM      5  N   UNL     1       2.380   5.026  20.664  0.00  0.00    +0.000 N 
ATOM      6  N   UNL     1       1.685   6.176  20.873  0.00  0.00    +0.000 NA
ATOM      7  C   UNL     1       2.076   7.062  19.940  0.00  0.00    +0.000 A 
ATOM      8  C   UNL     1       3.025   6.509  19.070  0.00  0.00    +0.000 A 
ATOM      9  C   UNL     1       4.142   7.394  17.851  0.00  0.00    +0.000 C 
ATOM     10  H   UNL     1       2.304   4.304  21.371  0.00  0.00    +0.000 HD
ENDROOT
BRANCH   1  11
ATOM     11  S   UNL     1       4.322   5.259  17.424  0.00  0.00    +0.000 S 
ATOM     12  O   UNL     1       3.124   6.102  17.452  0.00  0.00    +0.000 OA
ATOM     13  O   UNL     1       4.485   4.421  18.601  0.00  0.00    +0.000 OA
BRANCH  11  17
ATOM     14  C   UNL     1       5.879   3.167  12.246  0.00  0.00    +0.000 C 
ATOM     15  C   UNL     1       6.062   3.911  13.517  0.00  0.00    +0.000 A 
ATOM     16  N   UNL     1       5.358   3.773  14.621  0.00  0.00    +0.000 NA
ATOM     17  C   UNL     1       5.597   4.922  15.477  0.00  0.00    +0.000 A 
ATOM     18  C   UNL     1       6.796   5.466  14.911  0.00  0.00    +0.000 A 
ATOM     19  N   UNL     1       7.017   4.861  13.693  0.00  0.00    +0.000 N 
ATOM     20  C   UNL     1       8.100   5.176  12.790  0.00  0.00    +0.000 C 
ENDBRANCH  11  17
ENDBRANCH   1  11
BRANCH   7  21
ATOM     21  C   UNL     1       1.630   8.488  19.962  0.00  0.00    +0.000 C 
BRANCH  21  22
ATOM     22  C   UNL     1       1.110   8.990  18.610  0.00  0.00    +0.000 C 
BRANCH  22  23
ATOM     23  C   UNL     1       0.114  10.162  18.694  0.00  0.00    +0.000 C 
ATOM     24  C   UNL     1      -1.053   9.997  17.721  0.00  0.00    +0.000 C 
ATOM     25  C   UNL     1      -0.416  10.294  20.125  0.00  0.00    +0.000 C 
ENDBRANCH  22  23
ENDBRANCH  21  22
ENDBRANCH   7  21
TORSDOF 5
ENDMDL
MODEL 9
REMARK VINA RESULT:      -7.2      1.967      2.874
REMARK  Name = 
REMARK  9 active torsions:
REMARK  status: ('A' for Active; 'I' for Inactive)
REMARK    1  A    between atoms: C_1  and  C_2
REMARK    2  A    between atoms: C_4  and  S_5
REMARK    3  A    between atoms: S_5  and  N_8
REMARK    4  A    between atoms: C_14  and  C_15
REMARK    5  A    between atoms: C_15  and  C_16
REMARK    6  A    between atoms: C_16  and  C_17
REMARK    7  A    between atoms: C_17  and  C_18
REMARK    8  A    between atoms: C_17  and  C_19
REMARK    9  A    between atoms: N_23  and  C_24
REMARK                            x       y       z     vdW  Elec       q    Type
REMARK                         _______ _______ _______ _____ _____    ______ ____
ROOT
ATOM      1  N   UNL     1       4.642   4.279  17.679  0.00  0.00    +0.000 NA
ATOM      2  C   UNL     1       6.068   5.014  18.772  0.00  0.00    +0.000 C 
ATOM      3  C   UNL     1       7.214   6.232  17.704  0.00  0.00    +0.000 C 
ATOM      4  C   UNL     1       7.177   5.892  15.853  0.00  0.00    +0.000 A 
ATOM      5  N   UNL     1       8.207   6.100  14.974  0.00  0.00    +0.000 N 
ATOM      6  N   UNL     1       8.097   5.413  13.806  0.00  0.00    +0.000 NA
ATOM      7  C   UNL     1       6.977   4.672  13.875  0.00  0.00    +0.000 A 
ATOM      8  C   UNL     1       6.301   4.872  15.085  0.00  0.00    +0.000 A 
ATOM      9  C   UNL     1       4.921   3.844  15.832  0.00  0.00    +0.000 C 
ATOM     10  H   UNL     1       9.074   6.598  15.138  0.00  0.00    +0.000 HD
ENDROOT
BRANCH   1  11
ATOM     11  S   UNL     1       5.061   5.663  17.033  0.00  0.00    +0.000 S 
ATOM     12  O   UNL     1       4.763   5.548  15.604  0.00  0.00    +0.000 OA
ATOM     13  O   UNL     1       6.445   6.003  17.324  0.00  0.00    +0.000 OA
BRANCH  11  17
ATOM     14  C   UNL     1       1.047   3.890  20.821  0.00  0.00    +0.000 C 
ATOM     15  C   UNL     1       1.804   4.878  20.013  0.00  0.00    +0.000 A 
ATOM     16  N   UNL     1       2.520   4.634  18.936  0.00  0.00    +0.000 NA
ATOM     17  C   UNL     1       3.386   5.771  18.679  0.00  0.00    +0.000 A 
ATOM     18  C   UNL     1       2.770   6.795  19.471  0.00  0.00    +0.000 A 
ATOM     19  N   UNL     1       1.847   6.204  20.308  0.00  0.00    +0.000 N 
ATOM     20  C   UNL     1       1.055   6.896  21.297  0.00  0.00    +0.000 C 
ENDBRANCH  11  17
ENDBRANCH   1  11
BRANCH   7  21
ATOM     21  C   UNL     1       6.621   3.670  12.824  0.00  0.00    +0.000 C 
BRANCH  21  22
ATOM     22  C   UNL     1       5.303   3.978  12.103  0.00  0.00    +0.000 C 
BRANCH  22  23
ATOM     23  C   UNL     1       4.514   2.739  11.640  0.00  0.00    +0.000 C 
ATOM     24  C   UNL     1       3.503   3.077  10.544  0.00  0.00    +0.000 C 
ATOM     25  C   UNL     1       5.482   1.662  11.141  0.00  0.00    +0.000 C 
ENDBRANCH  22  23
ENDBRANCH  21  22
ENDBRANCH   7  21
TORSDOF 5
ENDMDL
