MODEL 1
REMARK VINA RESULT:      -6.5      0.000      0.000
REMARK  Name = 
REMARK  8 active torsions:
REMARK  status: ('A' for Active; 'I' for Inactive)
REMARK    1  A    between atoms: C_2  and  C_3
REMARK    2  A    between atoms: C_3  and  S_4
REMARK    3  A    between atoms: S_4  and  C_5
REMARK    4  A    between atoms: C_6  and  S_7
REMARK    5  A    between atoms: S_7  and  C_8
REMARK    6  A    between atoms: C_8  and  C_9
REMARK    7  A    between atoms: C_10  and  C_11
REMARK    8  A    between atoms: C_11  and  O_12
REMARK                            x       y       z     vdW  Elec       q    Type
REMARK                         _______ _______ _______ _____ _____    ______ ____
ROOT
ATOM      1  C   UNL     1       5.227   4.862  17.073  0.00  0.00    +0.000 A 
ATOM      2  C   UNL     1       6.160   5.602  17.842  0.00  0.00    +0.000 A 
ATOM      3  C   UNL     1       6.206   5.284  19.189  0.00  0.00    +0.000 A 
ATOM      4  N   UNL     1       5.422   4.373  19.811  0.00  0.00    +0.000 NA
ATOM      5  C   UNL     1       4.497   3.729  19.091  0.00  0.00    +0.000 A 
ATOM      6  C   UNL     1       3.666   2.841  19.765  0.00  0.00    +0.000 A 
ATOM      7  C   UNL     1       2.657   2.130  19.117  0.00  0.00    +0.000 A 
ATOM      8  C   UNL     1       2.470   2.304  17.757  0.00  0.00    +0.000 A 
ATOM      9  C   UNL     1       3.305   3.186  17.057  0.00  0.00    +0.000 A 
ATOM     10  C   UNL     1       4.336   3.924  17.705  0.00  0.00    +0.000 A 
ENDROOT
BRANCH   1  11
ATOM     11  S   UNL     1       5.080   5.124  15.283  0.00  0.00    +0.000 S 
BRANCH  11  12
ATOM     12  C   UNL     1       6.420   4.032  14.662  0.00  0.00    +0.000 C 
BRANCH  12  14
ATOM     13  C   UNL     1       5.841   3.404  11.971  0.00  0.00    +0.000 C 
ATOM     14  C   UNL     1       6.108   3.694  13.213  0.00  0.00    +0.000 C 
ENDBRANCH  12  14
ENDBRANCH  11  12
ENDBRANCH   1  11
BRANCH   2  15
ATOM     15  S   UNL     1       7.156   6.929  17.127  0.00  0.00    +0.000 S 
BRANCH  15  16
ATOM     16  C   UNL     1       8.176   7.552  18.497  0.00  0.00    +0.000 C 
BRANCH  16  17
ATOM     17  C   UNL     1       8.508   8.976  18.326  0.00  0.00    +0.000 C 
ATOM     18  C   UNL     1       8.841  10.124  18.196  0.00  0.00    +0.000 C 
BRANCH  18  19
ATOM     19  C   UNL     1       9.310  11.505  18.040  0.00  0.00    +0.000 C 
BRANCH  19  20
ATOM     20  O   UNL     1      10.660  11.527  17.602  0.00  0.00    +0.000 OA
ATOM     21  H   UNL     1      11.003  10.624  17.705  0.00  0.00    +0.000 HD
ENDBRANCH  19  20
ENDBRANCH  18  19
ENDBRANCH  16  17
ENDBRANCH  15  16
ENDBRANCH   2  15
TORSDOF 8
ENDMDL
MODEL 2
REMARK VINA RESULT:      -6.4      2.963      4.228
REMARK  Name = 
REMARK  8 active torsions:
REMARK  status: ('A' for Active; 'I' for Inactive)
REMARK    1  A    between atoms: C_2  and  C_3
REMARK    2  A    between atoms: C_3  and  S_4
REMARK    3  A    between atoms: S_4  and  C_5
REMARK    4  A    between atoms: C_6  and  S_7
REMARK    5  A    between atoms: S_7  and  C_8
REMARK    6  A    between atoms: C_8  and  C_9
REMARK    7  A    between atoms: C_10  and  C_11
REMARK    8  A    between atoms: C_11  and  O_12
REMARK                            x       y       z     vdW  Elec       q    Type
REMARK                         _______ _______ _______ _____ _____    ______ ____
ROOT
ATOM      1  C   UNL     1       3.507   5.556  18.040  0.00  0.00    +0.000 A 
ATOM      2  C   UNL     1       4.324   5.030  17.007  0.00  0.00    +0.000 A 
ATOM      3  C   UNL     1       4.197   3.669  16.783  0.00  0.00    +0.000 A 
ATOM      4  N   UNL     1       3.402   2.826  17.482  0.00  0.00    +0.000 NA
ATOM      5  C   UNL     1       2.687   3.318  18.499  0.00  0.00    +0.000 A 
ATOM      6  C   UNL     1       1.923   2.421  19.238  0.00  0.00    +0.000 A 
ATOM      7  C   UNL     1       1.154   2.823  20.329  0.00  0.00    +0.000 A 
ATOM      8  C   UNL     1       1.141   4.157  20.695  0.00  0.00    +0.000 A 
ATOM      9  C   UNL     1       1.894   5.079  19.957  0.00  0.00    +0.000 A 
ATOM     10  C   UNL     1       2.690   4.685  18.843  0.00  0.00    +0.000 A 
ENDROOT
BRANCH   1  11
ATOM     11  S   UNL     1       3.519   7.329  18.423  0.00  0.00    +0.000 S 
BRANCH  11  12
ATOM     12  C   UNL     1       2.018   7.888  17.524  0.00  0.00    +0.000 C 
BRANCH  12  14
ATOM     13  C   UNL     1       1.273  10.401  18.576  0.00  0.00    +0.000 C 
ATOM     14  C   UNL     1       1.616   9.241  18.090  0.00  0.00    +0.000 C 
ENDBRANCH  12  14
ENDBRANCH  11  12
ENDBRANCH   1  11
BRANCH   2  15
ATOM     15  S   UNL     1       5.512   6.052  16.108  0.00  0.00    +0.000 S 
BRANCH  15  16
ATOM     16  C   UNL     1       7.066   5.910  17.043  0.00  0.00    +0.000 C 
BRANCH  16  17
ATOM     17  C   UNL     1       7.539   7.223  17.514  0.00  0.00    +0.000 C 
ATOM     18  C   UNL     1       7.957   8.301  17.843  0.00  0.00    +0.000 C 
BRANCH  18  19
ATOM     19  C   UNL     1       8.491   9.624  18.183  0.00  0.00    +0.000 C 
BRANCH  19  20
ATOM     20  O   UNL     1       9.229   9.568  19.394  0.00  0.00    +0.000 OA
ATOM     21  H   UNL     1       9.976   8.965  19.240  0.00  0.00    +0.000 HD
ENDBRANCH  19  20
ENDBRANCH  18  19
ENDBRANCH  16  17
ENDBRANCH  15  16
ENDBRANCH   2  15
TORSDOF 8
ENDMDL
MODEL 3
REMARK VINA RESULT:      -6.4      2.930      4.101
REMARK  Name = 
REMARK  8 active torsions:
REMARK  status: ('A' for Active; 'I' for Inactive)
REMARK    1  A    between atoms: C_2  and  C_3
REMARK    2  A    between atoms: C_3  and  S_4
REMARK    3  A    between atoms: S_4  and  C_5
REMARK    4  A    between atoms: C_6  and  S_7
REMARK    5  A    between atoms: S_7  and  C_8
REMARK    6  A    between atoms: C_8  and  C_9
REMARK    7  A    between atoms: C_10  and  C_11
REMARK    8  A    between atoms: C_11  and  O_12
REMARK                            x       y       z     vdW  Elec       q    Type
REMARK                         _______ _______ _______ _____ _____    ______ ____
ROOT
ATOM      1  C   UNL     1       3.374   5.416  18.450  0.00  0.00    +0.000 A 
ATOM      2  C   UNL     1       4.729   5.371  18.036  0.00  0.00    +0.000 A 
ATOM      3  C   UNL     1       5.477   4.328  18.555  0.00  0.00    +0.000 A 
ATOM      4  N   UNL     1       5.030   3.399  19.432  0.00  0.00    +0.000 NA
ATOM      5  C   UNL     1       3.770   3.489  19.872  0.00  0.00    +0.000 A 
ATOM      6  C   UNL     1       3.353   2.557  20.816  0.00  0.00    +0.000 A 
ATOM      7  C   UNL     1       2.067   2.568  21.354  0.00  0.00    +0.000 A 
ATOM      8  C   UNL     1       1.167   3.533  20.939  0.00  0.00    +0.000 A 
ATOM      9  C   UNL     1       1.563   4.475  19.979  0.00  0.00    +0.000 A 
ATOM     10  C   UNL     1       2.875   4.480  19.424  0.00  0.00    +0.000 A 
ENDROOT
BRANCH   1  11
ATOM     11  S   UNL     1       2.250   6.692  17.819  0.00  0.00    +0.000 S 
BRANCH  11  12
ATOM     12  C   UNL     1       2.232   7.867  19.231  0.00  0.00    +0.000 C 
BRANCH  12  14
ATOM     13  C   UNL     1       0.822  10.173  18.414  0.00  0.00    +0.000 C 
ATOM     14  C   UNL     1       1.473   9.109  18.791  0.00  0.00    +0.000 C 
ENDBRANCH  12  14
ENDBRANCH  11  12
ENDBRANCH   1  11
BRANCH   2  15
ATOM     15  S   UNL     1       5.451   6.643  16.973  0.00  0.00    +0.000 S 
BRANCH  15  16
ATOM     16  C   UNL     1       7.240   6.568  17.287  0.00  0.00    +0.000 C 
BRANCH  16  17
ATOM     17  C   UNL     1       7.779   7.881  17.678  0.00  0.00    +0.000 C 
ATOM     18  C   UNL     1       8.269   8.922  18.027  0.00  0.00    +0.000 C 
BRANCH  18  19
ATOM     19  C   UNL     1       8.919  10.159  18.472  0.00  0.00    +0.000 C 
BRANCH  19  20
ATOM     20  O   UNL     1       9.411  10.016  19.796  0.00  0.00    +0.000 OA
ATOM     21  H   UNL     1       9.923   9.190  19.817  0.00  0.00    +0.000 HD
ENDBRANCH  19  20
ENDBRANCH  18  19
ENDBRANCH  16  17
ENDBRANCH  15  16
ENDBRANCH   2  15
TORSDOF 8
ENDMDL
MODEL 4
REMARK VINA RESULT:      -6.4      3.599      6.303
REMARK  Name = 
REMARK  8 active torsions:
REMARK  status: ('A' for Active; 'I' for Inactive)
REMARK    1  A    between atoms: C_2  and  C_3
REMARK    2  A    between atoms: C_3  and  S_4
REMARK    3  A    between atoms: S_4  and  C_5
REMARK    4  A    between atoms: C_6  and  S_7
REMARK    5  A    between atoms: S_7  and  C_8
REMARK    6  A    between atoms: C_8  and  C_9
REMARK    7  A    between atoms: C_10  and  C_11
REMARK    8  A    between atoms: C_11  and  O_12
REMARK                            x       y       z     vdW  Elec       q    Type
REMARK                         _______ _______ _______ _____ _____    ______ ____
ROOT
ATOM      1  C   UNL     1       4.487   5.227  17.257  0.00  0.00    +0.000 A 
ATOM      2  C   UNL     1       4.793   3.993  16.629  0.00  0.00    +0.000 A 
ATOM      3  C   UNL     1       4.027   2.913  17.035  0.00  0.00    +0.000 A 
ATOM      4  N   UNL     1       3.064   2.943  17.986  0.00  0.00    +0.000 NA
ATOM      5  C   UNL     1       2.830   4.096  18.622  0.00  0.00    +0.000 A 
ATOM      6  C   UNL     1       1.876   4.087  19.634  0.00  0.00    +0.000 A 
ATOM      7  C   UNL     1       1.566   5.227  20.373  0.00  0.00    +0.000 A 
ATOM      8  C   UNL     1       2.220   6.414  20.096  0.00  0.00    +0.000 A 
ATOM      9  C   UNL     1       3.177   6.448  19.072  0.00  0.00    +0.000 A 
ATOM     10  C   UNL     1       3.510   5.290  18.311  0.00  0.00    +0.000 A 
ENDROOT
BRANCH   1  11
ATOM     11  S   UNL     1       5.367   6.746  16.799  0.00  0.00    +0.000 S 
BRANCH  11  12
ATOM     12  C   UNL     1       6.957   6.508  17.689  0.00  0.00    +0.000 C 
BRANCH  12  14
ATOM     13  C   UNL     1       8.212   9.028  17.894  0.00  0.00    +0.000 C 
ATOM     14  C   UNL     1       7.633   7.865  17.800  0.00  0.00    +0.000 C 
ENDBRANCH  12  14
ENDBRANCH  11  12
ENDBRANCH   1  11
BRANCH   2  15
ATOM     15  S   UNL     1       6.149   3.826  15.446  0.00  0.00    +0.000 S 
BRANCH  15  16
ATOM     16  C   UNL     1       5.444   4.310  13.841  0.00  0.00    +0.000 C 
BRANCH  16  17
ATOM     17  C   UNL     1       5.824   3.369  12.774  0.00  0.00    +0.000 C 
ATOM     18  C   UNL     1       6.165   2.564  11.949  0.00  0.00    +0.000 C 
BRANCH  18  19
ATOM     19  C   UNL     1       6.601   1.544  10.990  0.00  0.00    +0.000 C 
BRANCH  19  20
ATOM     20  O   UNL     1       6.171   0.255  11.402  0.00  0.00    +0.000 OA
ATOM     21  H   UNL     1       6.901  -0.358  11.211  0.00  0.00    +0.000 HD
ENDBRANCH  19  20
ENDBRANCH  18  19
ENDBRANCH  16  17
ENDBRANCH  15  16
ENDBRANCH   2  15
TORSDOF 8
ENDMDL
MODEL 5
REMARK VINA RESULT:      -6.3      4.006      5.930
REMARK  Name = 
REMARK  8 active torsions:
REMARK  status: ('A' for Active; 'I' for Inactive)
REMARK    1  A    between atoms: C_2  and  C_3
REMARK    2  A    between atoms: C_3  and  S_4
REMARK    3  A    between atoms: S_4  and  C_5
REMARK    4  A    between atoms: C_6  and  S_7
REMARK    5  A    between atoms: S_7  and  C_8
REMARK    6  A    between atoms: C_8  and  C_9
REMARK    7  A    between atoms: C_10  and  C_11
REMARK    8  A    between atoms: C_11  and  O_12
REMARK                            x       y       z     vdW  Elec       q    Type
REMARK                         _______ _______ _______ _____ _____    ______ ____
ROOT
ATOM      1  C   UNL     1       4.083   4.710  18.186  0.00  0.00    +0.000 A 
ATOM      2  C   UNL     1       4.735   3.834  17.281  0.00  0.00    +0.000 A 
ATOM      3  C   UNL     1       4.130   2.601  17.105  0.00  0.00    +0.000 A 
ATOM      4  N   UNL     1       3.016   2.173  17.743  0.00  0.00    +0.000 NA
ATOM      5  C   UNL     1       2.446   2.979  18.646  0.00  0.00    +0.000 A 
ATOM      6  C   UNL     1       1.337   2.492  19.329  0.00  0.00    +0.000 A 
ATOM      7  C   UNL     1       0.677   3.240  20.303  0.00  0.00    +0.000 A 
ATOM      8  C   UNL     1       1.131   4.512  20.605  0.00  0.00    +0.000 A 
ATOM      9  C   UNL     1       2.240   5.026  19.919  0.00  0.00    +0.000 A 
ATOM     10  C   UNL     1       2.929   4.272  18.926  0.00  0.00    +0.000 A 
ENDROOT
BRANCH   1  11
ATOM     11  S   UNL     1       4.724   6.380  18.488  0.00  0.00    +0.000 S 
BRANCH  11  12
ATOM     12  C   UNL     1       3.879   7.322  17.155  0.00  0.00    +0.000 C 
BRANCH  12  14
ATOM     13  C   UNL     1       1.791   8.806  18.344  0.00  0.00    +0.000 C 
ATOM     14  C   UNL     1       2.755   8.121  17.795  0.00  0.00    +0.000 C 
ENDBRANCH  12  14
ENDBRANCH  11  12
ENDBRANCH   1  11
BRANCH   2  15
ATOM     15  S   UNL     1       6.298   4.267  16.484  0.00  0.00    +0.000 S 
BRANCH  15  16
ATOM     16  C   UNL     1       5.830   5.099  14.936  0.00  0.00    +0.000 C 
BRANCH  16  17
ATOM     17  C   UNL     1       5.887   4.182  13.786  0.00  0.00    +0.000 C 
ATOM     18  C   UNL     1       5.868   3.434  12.845  0.00  0.00    +0.000 C 
BRANCH  18  19
ATOM     19  C   UNL     1       5.780   2.530  11.693  0.00  0.00    +0.000 C 
BRANCH  19  20
ATOM     20  O   UNL     1       7.011   1.851  11.496  0.00  0.00    +0.000 OA
ATOM     21  H   UNL     1       7.600   2.467  11.029  0.00  0.00    +0.000 HD
ENDBRANCH  19  20
ENDBRANCH  18  19
ENDBRANCH  16  17
ENDBRANCH  15  16
ENDBRANCH   2  15
TORSDOF 8
ENDMDL
MODEL 6
REMARK VINA RESULT:      -6.3      3.371      6.083
REMARK  Name = 
REMARK  8 active torsions:
REMARK  status: ('A' for Active; 'I' for Inactive)
REMARK    1  A    between atoms: C_2  and  C_3
REMARK    2  A    between atoms: C_3  and  S_4
REMARK    3  A    between atoms: S_4  and  C_5
REMARK    4  A    between atoms: C_6  and  S_7
REMARK    5  A    between atoms: S_7  and  C_8
REMARK    6  A    between atoms: C_8  and  C_9
REMARK    7  A    between atoms: C_10  and  C_11
REMARK    8  A    between atoms: C_11  and  O_12
REMARK                            x       y       z     vdW  Elec       q    Type
REMARK                         _______ _______ _______ _____ _____    ______ ____
ROOT
ATOM      1  C   UNL     1       4.517   4.616  18.093  0.00  0.00    +0.000 A 
ATOM      2  C   UNL     1       4.633   3.889  16.881  0.00  0.00    +0.000 A 
ATOM      3  C   UNL     1       3.511   3.167  16.511  0.00  0.00    +0.000 A 
ATOM      4  N   UNL     1       2.362   3.079  17.220  0.00  0.00    +0.000 NA
ATOM      5  C   UNL     1       2.286   3.712  18.396  0.00  0.00    +0.000 A 
ATOM      6  C   UNL     1       1.115   3.558  19.131  0.00  0.00    +0.000 A 
ATOM      7  C   UNL     1       0.936   4.158  20.376  0.00  0.00    +0.000 A 
ATOM      8  C   UNL     1       1.949   4.938  20.906  0.00  0.00    +0.000 A 
ATOM      9  C   UNL     1       3.132   5.116  20.175  0.00  0.00    +0.000 A 
ATOM     10  C   UNL     1       3.333   4.505  18.904  0.00  0.00    +0.000 A 
ENDROOT
BRANCH   1  11
ATOM     11  S   UNL     1       5.882   5.652  18.690  0.00  0.00    +0.000 S 
BRANCH  11  12
ATOM     12  C   UNL     1       5.957   6.924  17.366  0.00  0.00    +0.000 C 
BRANCH  12  14
ATOM     13  C   UNL     1       8.207   8.554  17.865  0.00  0.00    +0.000 C 
ATOM     14  C   UNL     1       7.168   7.801  17.635  0.00  0.00    +0.000 C 
ENDBRANCH  12  14
ENDBRANCH  11  12
ENDBRANCH   1  11
BRANCH   2  15
ATOM     15  S   UNL     1       6.171   3.839  15.935  0.00  0.00    +0.000 S 
BRANCH  15  16
ATOM     16  C   UNL     1       5.798   4.691  14.372  0.00  0.00    +0.000 C 
BRANCH  16  17
ATOM     17  C   UNL     1       5.796   3.760  13.231  0.00  0.00    +0.000 C 
ATOM     18  C   UNL     1       5.778   2.952  12.342  0.00  0.00    +0.000 C 
BRANCH  18  19
ATOM     19  C   UNL     1       5.732   1.922  11.298  0.00  0.00    +0.000 C 
BRANCH  19  20
ATOM     20  O   UNL     1       7.007   1.320  11.135  0.00  0.00    +0.000 OA
ATOM     21  H   UNL     1       7.305   1.534  10.234  0.00  0.00    +0.000 HD
ENDBRANCH  19  20
ENDBRANCH  18  19
ENDBRANCH  16  17
ENDBRANCH  15  16
ENDBRANCH   2  15
TORSDOF 8
ENDMDL
MODEL 7
REMARK VINA RESULT:      -6.3      4.064      6.292
REMARK  Name = 
REMARK  8 active torsions:
REMARK  status: ('A' for Active; 'I' for Inactive)
REMARK    1  A    between atoms: C_2  and  C_3
REMARK    2  A    between atoms: C_3  and  S_4
REMARK    3  A    between atoms: S_4  and  C_5
REMARK    4  A    between atoms: C_6  and  S_7
REMARK    5  A    between atoms: S_7  and  C_8
REMARK    6  A    between atoms: C_8  and  C_9
REMARK    7  A    between atoms: C_10  and  C_11
REMARK    8  A    between atoms: C_11  and  O_12
REMARK                            x       y       z     vdW  Elec       q    Type
REMARK                         _______ _______ _______ _____ _____    ______ ____
ROOT
ATOM      1  C   UNL     1       4.225   4.797  18.472  0.00  0.00    +0.000 A 
ATOM      2  C   UNL     1       4.905   5.180  17.288  0.00  0.00    +0.000 A 
ATOM      3  C   UNL     1       4.670   6.475  16.859  0.00  0.00    +0.000 A 
ATOM      4  N   UNL     1       3.833   7.361  17.449  0.00  0.00    +0.000 NA
ATOM      5  C   UNL     1       3.143   6.968  18.526  0.00  0.00    +0.000 A 
ATOM      6  C   UNL     1       2.248   7.878  19.079  0.00  0.00    +0.000 A 
ATOM      7  C   UNL     1       1.465   7.567  20.189  0.00  0.00    +0.000 A 
ATOM      8  C   UNL     1       1.577   6.317  20.771  0.00  0.00    +0.000 A 
ATOM      9  C   UNL     1       2.482   5.390  20.236  0.00  0.00    +0.000 A 
ATOM     10  C   UNL     1       3.285   5.689  19.098  0.00  0.00    +0.000 A 
ENDROOT
BRANCH   1  11
ATOM     11  S   UNL     1       4.467   3.149  19.191  0.00  0.00    +0.000 S 
BRANCH  11  12
ATOM     12  C   UNL     1       3.439   2.125  18.065  0.00  0.00    +0.000 C 
BRANCH  12  14
ATOM     13  C   UNL     1       0.742   2.435  18.842  0.00  0.00    +0.000 C 
ATOM     14  C   UNL     1       1.987   2.292  18.483  0.00  0.00    +0.000 C 
ENDBRANCH  12  14
ENDBRANCH  11  12
ENDBRANCH   1  11
BRANCH   2  15
ATOM     15  S   UNL     1       5.938   4.026  16.357  0.00  0.00    +0.000 S 
BRANCH  15  16
ATOM     16  C   UNL     1       6.272   4.855  14.774  0.00  0.00    +0.000 C 
BRANCH  16  17
ATOM     17  C   UNL     1       5.917   4.002  13.627  0.00  0.00    +0.000 C 
ATOM     18  C   UNL     1       5.599   3.358  12.663  0.00  0.00    +0.000 C 
BRANCH  18  19
ATOM     19  C   UNL     1       5.193   2.628  11.458  0.00  0.00    +0.000 C 
BRANCH  19  20
ATOM     20  O   UNL     1       3.897   3.032  11.042  0.00  0.00    +0.000 OA
ATOM     21  H   UNL     1       4.005   3.873  10.567  0.00  0.00    +0.000 HD
ENDBRANCH  19  20
ENDBRANCH  18  19
ENDBRANCH  16  17
ENDBRANCH  15  16
ENDBRANCH   2  15
TORSDOF 8
ENDMDL
MODEL 8
REMARK VINA RESULT:      -6.3      3.207      4.950
REMARK  Name = 
REMARK  8 active torsions:
REMARK  status: ('A' for Active; 'I' for Inactive)
REMARK    1  A    between atoms: C_2  and  C_3
REMARK    2  A    between atoms: C_3  and  S_4
REMARK    3  A    between atoms: S_4  and  C_5
REMARK    4  A    between atoms: C_6  and  S_7
REMARK    5  A    between atoms: S_7  and  C_8
REMARK    6  A    between atoms: C_8  and  C_9
REMARK    7  A    between atoms: C_10  and  C_11
REMARK    8  A    between atoms: C_11  and  O_12
REMARK                            x       y       z     vdW  Elec       q    Type
REMARK                         _______ _______ _______ _____ _____    ______ ____
ROOT
ATOM      1  C   UNL     1       3.942   4.715  18.262  0.00  0.00    +0.000 A 
ATOM      2  C   UNL     1       4.531   5.151  17.048  0.00  0.00    +0.000 A 
ATOM      3  C   UNL     1       4.344   6.488  16.742  0.00  0.00    +0.000 A 
ATOM      4  N   UNL     1       3.630   7.372  17.477  0.00  0.00    +0.000 NA
ATOM      5  C   UNL     1       3.020   6.936  18.585  0.00  0.00    +0.000 A 
ATOM      6  C   UNL     1       2.244   7.850  19.291  0.00  0.00    +0.000 A 
ATOM      7  C   UNL     1       1.551   7.499  20.448  0.00  0.00    +0.000 A 
ATOM      8  C   UNL     1       1.634   6.201  20.921  0.00  0.00    +0.000 A 
ATOM      9  C   UNL     1       2.419   5.268  20.231  0.00  0.00    +0.000 A 
ATOM     10  C   UNL     1       3.129   5.609  19.044  0.00  0.00    +0.000 A 
ENDROOT
BRANCH   1  11
ATOM     11  S   UNL     1       4.139   3.003  18.829  0.00  0.00    +0.000 S 
BRANCH  11  12
ATOM     12  C   UNL     1       2.882   2.149  17.796  0.00  0.00    +0.000 C 
BRANCH  12  14
ATOM     13  C   UNL     1       0.384   2.426  19.083  0.00  0.00    +0.000 C 
ATOM     14  C   UNL     1       1.537   2.298  18.489  0.00  0.00    +0.000 C 
ENDBRANCH  12  14
ENDBRANCH  11  12
ENDBRANCH   1  11
BRANCH   2  15
ATOM     15  S   UNL     1       5.390   4.016  15.935  0.00  0.00    +0.000 S 
BRANCH  15  16
ATOM     16  C   UNL     1       7.149   4.461  16.064  0.00  0.00    +0.000 C 
BRANCH  16  17
ATOM     17  C   UNL     1       7.481   4.987  17.398  0.00  0.00    +0.000 C 
ATOM     18  C   UNL     1       7.779   5.469  18.458  0.00  0.00    +0.000 C 
BRANCH  18  19
ATOM     19  C   UNL     1       8.159   6.112  19.720  0.00  0.00    +0.000 C 
BRANCH  19  20
ATOM     20  O   UNL     1       8.200   5.161  20.773  0.00  0.00    +0.000 OA
ATOM     21  H   UNL     1       8.555   5.620  21.553  0.00  0.00    +0.000 HD
ENDBRANCH  19  20
ENDBRANCH  18  19
ENDBRANCH  16  17
ENDBRANCH  15  16
ENDBRANCH   2  15
TORSDOF 8
ENDMDL
MODEL 9
REMARK VINA RESULT:      -6.2      3.768      5.719
REMARK  Name = 
REMARK  8 active torsions:
REMARK  status: ('A' for Active; 'I' for Inactive)
REMARK    1  A    between atoms: C_2  and  C_3
REMARK    2  A    between atoms: C_3  and  S_4
REMARK    3  A    between atoms: S_4  and  C_5
REMARK    4  A    between atoms: C_6  and  S_7
REMARK    5  A    between atoms: S_7  and  C_8
REMARK    6  A    between atoms: C_8  and  C_9
REMARK    7  A    between atoms: C_10  and  C_11
REMARK    8  A    between atoms: C_11  and  O_12
REMARK                            x       y       z     vdW  Elec       q    Type
REMARK                         _______ _______ _______ _____ _____    ______ ____
ROOT
ATOM      1  C   UNL     1       3.364   5.208  18.399  0.00  0.00    +0.000 A 
ATOM      2  C   UNL     1       4.713   5.084  17.981  0.00  0.00    +0.000 A 
ATOM      3  C   UNL     1       5.423   4.045  18.559  0.00  0.00    +0.000 A 
ATOM      4  N   UNL     1       4.946   3.190  19.494  0.00  0.00    +0.000 NA
ATOM      5  C   UNL     1       3.694   3.356  19.933  0.00  0.00    +0.000 A 
ATOM      6  C   UNL     1       3.248   2.500  20.934  0.00  0.00    +0.000 A 
ATOM      7  C   UNL     1       1.967   2.596  21.478  0.00  0.00    +0.000 A 
ATOM      8  C   UNL     1       1.103   3.569  21.009  0.00  0.00    +0.000 A 
ATOM      9  C   UNL     1       1.529   4.434  19.992  0.00  0.00    +0.000 A 
ATOM     10  C   UNL     1       2.835   4.354  19.431  0.00  0.00    +0.000 A 
ENDROOT
BRANCH   1  11
ATOM     11  S   UNL     1       2.286   6.487  17.698  0.00  0.00    +0.000 S 
BRANCH  11  12
ATOM     12  C   UNL     1       2.450   7.810  18.962  0.00  0.00    +0.000 C 
BRANCH  12  14
ATOM     13  C   UNL     1       0.709   9.912  18.240  0.00  0.00    +0.000 C 
ATOM     14  C   UNL     1       1.512   8.941  18.573  0.00  0.00    +0.000 C 
ENDBRANCH  12  14
ENDBRANCH  11  12
ENDBRANCH   1  11
BRANCH   2  15
ATOM     15  S   UNL     1       5.476   6.259  16.840  0.00  0.00    +0.000 S 
BRANCH  15  16
ATOM     16  C   UNL     1       6.835   5.343  16.050  0.00  0.00    +0.000 C 
BRANCH  16  17
ATOM     17  C   UNL     1       6.377   4.611  14.858  0.00  0.00    +0.000 C 
ATOM     18  C   UNL     1       6.026   4.062  13.848  0.00  0.00    +0.000 C 
BRANCH  18  19
ATOM     19  C   UNL     1       5.630   3.438  12.581  0.00  0.00    +0.000 C 
BRANCH  19  20
ATOM     20  O   UNL     1       6.633   2.540  12.131  0.00  0.00    +0.000 OA
ATOM     21  H   UNL     1       6.209   1.942  11.493  0.00  0.00    +0.000 HD
ENDBRANCH  19  20
ENDBRANCH  18  19
ENDBRANCH  16  17
ENDBRANCH  15  16
ENDBRANCH   2  15
TORSDOF 8
ENDMDL
