MODEL 1
REMARK VINA RESULT:      -8.3      0.000      0.000
REMARK  Name = 
REMARK  7 active torsions:
REMARK  status: ('A' for Active; 'I' for Inactive)
REMARK    1  A    between atoms: C_2  and  C_3
REMARK    2  A    between atoms: C_6  and  N_7
REMARK    3  A    between atoms: C_9  and  C_10
REMARK    4  A    between atoms: C_10  and  O_11
REMARK    5  A    between atoms: O_11  and  C_12
REMARK    6  A    between atoms: C_15  and  N_16
REMARK    7  A    between atoms: C_24  and  C_25
REMARK                            x       y       z     vdW  Elec       q    Type
REMARK                         _______ _______ _______ _____ _____    ______ ____
ROOT
ATOM      1  N   UNL     1       5.894   5.935  18.262  0.00  0.00    +0.000 N 
ATOM      2  C   UNL     1       6.081   7.159  17.667  0.00  0.00    +0.000 A 
ATOM      3  C   UNL     1       7.395   7.477  17.915  0.00  0.00    +0.000 A 
ATOM      4  N   UNL     1       7.973   6.457  18.616  0.00  0.00    +0.000 NA
ATOM      5  N   UNL     1       7.051   5.527  18.830  0.00  0.00    +0.000 NA
ENDROOT
BRANCH   1   9
ATOM      6  C   UNL     1       2.386   3.598  18.464  0.00  0.00    +0.000 A 
ATOM      7  C   UNL     1       3.256   3.492  17.370  0.00  0.00    +0.000 A 
ATOM      8  C   UNL     1       4.396   4.283  17.288  0.00  0.00    +0.000 A 
ATOM      9  C   UNL     1       4.703   5.174  18.320  0.00  0.00    +0.000 A 
ATOM     10  C   UNL     1       3.829   5.302  19.412  0.00  0.00    +0.000 A 
ATOM     11  C   UNL     1       2.649   4.530  19.486  0.00  0.00    +0.000 A 
BRANCH  11  12
ATOM     12  C   UNL     1       1.728   4.737  20.668  0.00  0.00    +0.000 C 
ATOM     13  F   UNL     1       0.424   4.455  20.430  0.00  0.00    +0.000 F 
ATOM     14  F   UNL     1       2.087   3.976  21.736  0.00  0.00    +0.000 F 
ATOM     15  F   UNL     1       1.746   6.028  21.106  0.00  0.00    +0.000 F 
ENDBRANCH  11  12
BRANCH   6  17
ATOM     16  N   UNL     1       0.334   2.010  18.473  0.00  0.00    +0.000 NA
ATOM     17  C   UNL     1       1.265   2.709  18.491  0.00  0.00    +0.000 C 
ENDBRANCH   6  17
ENDBRANCH   1   9
BRANCH   3  18
ATOM     18  C   UNL     1       8.136   8.714  17.555  0.00  0.00    +0.000 C 
BRANCH  18  19
ATOM     19  O   UNL     1       8.772   9.270  18.706  0.00  0.00    +0.000 OA
BRANCH  19  20
ATOM     20  C   UNL     1       9.163  10.576  18.622  0.00  0.00    +0.000 A 
ATOM     21  C   UNL     1      10.233  10.919  19.455  0.00  0.00    +0.000 A 
ATOM     22  C   UNL     1      10.742  12.218  19.471  0.00  0.00    +0.000 A 
ATOM     23  C   UNL     1      10.187  13.180  18.620  0.00  0.00    +0.000 A 
ATOM     24  C   UNL     1       9.126  12.844  17.767  0.00  0.00    +0.000 A 
ATOM     25  C   UNL     1       8.617  11.538  17.769  0.00  0.00    +0.000 A 
BRANCH  23  26
ATOM     26  N   UNL     1      10.717  14.549  18.624  0.00  0.00    +0.000 N 
ATOM     27  O   UNL     1      11.132  15.012  17.553  0.00  0.00    +0.000 OA
ATOM     28  O   UNL     1      10.716  15.163  19.702  0.00  0.00    +0.000 OA
ENDBRANCH  23  26
ENDBRANCH  19  20
ENDBRANCH  18  19
ENDBRANCH   3  18
TORSDOF 7
ENDMDL
MODEL 2
REMARK VINA RESULT:      -8.2      0.700      1.377
REMARK  Name = 
REMARK  7 active torsions:
REMARK  status: ('A' for Active; 'I' for Inactive)
REMARK    1  A    between atoms: C_2  and  C_3
REMARK    2  A    between atoms: C_6  and  N_7
REMARK    3  A    between atoms: C_9  and  C_10
REMARK    4  A    between atoms: C_10  and  O_11
REMARK    5  A    between atoms: O_11  and  C_12
REMARK    6  A    between atoms: C_15  and  N_16
REMARK    7  A    between atoms: C_24  and  C_25
REMARK                            x       y       z     vdW  Elec       q    Type
REMARK                         _______ _______ _______ _____ _____    ______ ____
ROOT
ATOM      1  N   UNL     1       5.888   5.639  18.389  0.00  0.00    +0.000 N 
ATOM      2  C   UNL     1       6.188   6.731  17.610  0.00  0.00    +0.000 A 
ATOM      3  C   UNL     1       7.468   7.082  17.969  0.00  0.00    +0.000 A 
ATOM      4  N   UNL     1       7.918   6.206  18.917  0.00  0.00    +0.000 NA
ATOM      5  N   UNL     1       6.948   5.337  19.173  0.00  0.00    +0.000 NA
ENDROOT
BRANCH   1   9
ATOM      6  C   UNL     1       2.318   3.393  18.526  0.00  0.00    +0.000 A 
ATOM      7  C   UNL     1       3.191   3.287  17.434  0.00  0.00    +0.000 A 
ATOM      8  C   UNL     1       4.352   4.048  17.374  0.00  0.00    +0.000 A 
ATOM      9  C   UNL     1       4.677   4.909  18.426  0.00  0.00    +0.000 A 
ATOM     10  C   UNL     1       3.802   5.037  19.516  0.00  0.00    +0.000 A 
ATOM     11  C   UNL     1       2.601   4.296  19.569  0.00  0.00    +0.000 A 
BRANCH  11  12
ATOM     12  C   UNL     1       1.680   4.503  20.750  0.00  0.00    +0.000 C 
ATOM     13  F   UNL     1       1.842   5.681  21.401  0.00  0.00    +0.000 F 
ATOM     14  F   UNL     1       0.369   4.452  20.391  0.00  0.00    +0.000 F 
ATOM     15  F   UNL     1       1.845   3.538  21.699  0.00  0.00    +0.000 F 
ENDBRANCH  11  12
BRANCH   6  17
ATOM     16  N   UNL     1       0.267   1.804  18.498  0.00  0.00    +0.000 NA
ATOM     17  C   UNL     1       1.174   2.533  18.529  0.00  0.00    +0.000 C 
ENDBRANCH   6  17
ENDBRANCH   1   9
BRANCH   3  18
ATOM     18  C   UNL     1       8.287   8.225  17.491  0.00  0.00    +0.000 C 
BRANCH  18  19
ATOM     19  O   UNL     1       7.748   9.460  17.964  0.00  0.00    +0.000 OA
BRANCH  19  20
ATOM     20  C   UNL     1       8.646  10.416  18.348  0.00  0.00    +0.000 A 
ATOM     21  C   UNL     1       8.568  11.611  17.625  0.00  0.00    +0.000 A 
ATOM     22  C   UNL     1       9.421  12.678  17.910  0.00  0.00    +0.000 A 
ATOM     23  C   UNL     1      10.347  12.554  18.951  0.00  0.00    +0.000 A 
ATOM     24  C   UNL     1      10.423  11.368  19.695  0.00  0.00    +0.000 A 
ATOM     25  C   UNL     1       9.568  10.299  19.391  0.00  0.00    +0.000 A 
BRANCH  23  26
ATOM     26  N   UNL     1      11.246  13.671  19.264  0.00  0.00    +0.000 N 
ATOM     27  O   UNL     1      10.868  14.815  18.976  0.00  0.00    +0.000 OA
ATOM     28  O   UNL     1      12.332  13.404  19.799  0.00  0.00    +0.000 OA
ENDBRANCH  23  26
ENDBRANCH  19  20
ENDBRANCH  18  19
ENDBRANCH   3  18
TORSDOF 7
ENDMDL
MODEL 3
REMARK VINA RESULT:      -8.2      5.983      7.775
REMARK  Name = 
REMARK  7 active torsions:
REMARK  status: ('A' for Active; 'I' for Inactive)
REMARK    1  A    between atoms: C_2  and  C_3
REMARK    2  A    between atoms: C_6  and  N_7
REMARK    3  A    between atoms: C_9  and  C_10
REMARK    4  A    between atoms: C_10  and  O_11
REMARK    5  A    between atoms: O_11  and  C_12
REMARK    6  A    between atoms: C_15  and  N_16
REMARK    7  A    between atoms: C_24  and  C_25
REMARK                            x       y       z     vdW  Elec       q    Type
REMARK                         _______ _______ _______ _____ _____    ______ ____
ROOT
ATOM      1  N   UNL     1       2.110   6.755  19.923  0.00  0.00    +0.000 N 
ATOM      2  C   UNL     1       3.020   6.002  19.221  0.00  0.00    +0.000 A 
ATOM      3  C   UNL     1       3.076   4.801  19.887  0.00  0.00    +0.000 A 
ATOM      4  N   UNL     1       2.205   4.837  20.940  0.00  0.00    +0.000 NA
ATOM      5  N   UNL     1       1.628   6.032  20.959  0.00  0.00    +0.000 NA
ENDROOT
BRANCH   1   9
ATOM      6  C   UNL     1       0.838  10.698  19.116  0.00  0.00    +0.000 A 
ATOM      7  C   UNL     1       1.517   9.949  18.144  0.00  0.00    +0.000 A 
ATOM      8  C   UNL     1       1.962   8.662  18.419  0.00  0.00    +0.000 A 
ATOM      9  C   UNL     1       1.706   8.087  19.666  0.00  0.00    +0.000 A 
ATOM     10  C   UNL     1       1.044   8.833  20.654  0.00  0.00    +0.000 A 
ATOM     11  C   UNL     1       0.621  10.155  20.398  0.00  0.00    +0.000 A 
BRANCH  11  12
ATOM     12  C   UNL     1      -0.055  10.923  21.512  0.00  0.00    +0.000 C 
ATOM     13  F   UNL     1       0.466  12.150  21.756  0.00  0.00    +0.000 F 
ATOM     14  F   UNL     1      -1.378  11.120  21.268  0.00  0.00    +0.000 F 
ATOM     15  F   UNL     1       0.012  10.257  22.700  0.00  0.00    +0.000 F 
ENDBRANCH  11  12
BRANCH   6  17
ATOM     16  N   UNL     1      -0.052  13.039  18.443  0.00  0.00    +0.000 NA
ATOM     17  C   UNL     1       0.370  11.993  18.730  0.00  0.00    +0.000 C 
ENDBRANCH   6  17
ENDBRANCH   1   9
BRANCH   3  18
ATOM     18  C   UNL     1       3.935   3.622  19.607  0.00  0.00    +0.000 C 
BRANCH  18  19
ATOM     19  O   UNL     1       5.277   4.032  19.341  0.00  0.00    +0.000 OA
BRANCH  19  20
ATOM     20  C   UNL     1       5.624   4.188  18.029  0.00  0.00    +0.000 A 
ATOM     21  C   UNL     1       6.918   4.676  17.822  0.00  0.00    +0.000 A 
ATOM     22  C   UNL     1       7.410   4.880  16.532  0.00  0.00    +0.000 A 
ATOM     23  C   UNL     1       6.601   4.567  15.434  0.00  0.00    +0.000 A 
ATOM     24  C   UNL     1       5.309   4.059  15.629  0.00  0.00    +0.000 A 
ATOM     25  C   UNL     1       4.822   3.869  16.930  0.00  0.00    +0.000 A 
BRANCH  23  26
ATOM     26  N   UNL     1       7.109   4.773  14.073  0.00  0.00    +0.000 N 
ATOM     27  O   UNL     1       6.611   4.099  13.161  0.00  0.00    +0.000 OA
ATOM     28  O   UNL     1       8.008   5.613  13.915  0.00  0.00    +0.000 OA
ENDBRANCH  23  26
ENDBRANCH  19  20
ENDBRANCH  18  19
ENDBRANCH   3  18
TORSDOF 7
ENDMDL
MODEL 4
REMARK VINA RESULT:      -8.1      6.679      8.492
REMARK  Name = 
REMARK  7 active torsions:
REMARK  status: ('A' for Active; 'I' for Inactive)
REMARK    1  A    between atoms: C_2  and  C_3
REMARK    2  A    between atoms: C_6  and  N_7
REMARK    3  A    between atoms: C_9  and  C_10
REMARK    4  A    between atoms: C_10  and  O_11
REMARK    5  A    between atoms: O_11  and  C_12
REMARK    6  A    between atoms: C_15  and  N_16
REMARK    7  A    between atoms: C_24  and  C_25
REMARK                            x       y       z     vdW  Elec       q    Type
REMARK                         _______ _______ _______ _____ _____    ______ ____
ROOT
ATOM      1  N   UNL     1       2.323   7.846  18.625  0.00  0.00    +0.000 N 
ATOM      2  C   UNL     1       1.545   8.640  19.432  0.00  0.00    +0.000 A 
ATOM      3  C   UNL     1       1.350   9.795  18.712  0.00  0.00    +0.000 A 
ATOM      4  N   UNL     1       1.978   9.674  17.503  0.00  0.00    +0.000 NA
ATOM      5  N   UNL     1       2.573   8.489  17.463  0.00  0.00    +0.000 NA
ENDROOT
BRANCH   1   9
ATOM      6  C   UNL     1       3.878   4.029  19.535  0.00  0.00    +0.000 A 
ATOM      7  C   UNL     1       4.621   4.945  18.777  0.00  0.00    +0.000 A 
ATOM      8  C   UNL     1       4.098   6.190  18.452  0.00  0.00    +0.000 A 
ATOM      9  C   UNL     1       2.829   6.555  18.909  0.00  0.00    +0.000 A 
ATOM     10  C   UNL     1       2.067   5.640  19.652  0.00  0.00    +0.000 A 
ATOM     11  C   UNL     1       2.575   4.358  19.957  0.00  0.00    +0.000 A 
BRANCH  11  12
ATOM     12  C   UNL     1       1.694   3.401  20.729  0.00  0.00    +0.000 C 
ATOM     13  F   UNL     1       2.094   3.159  22.002  0.00  0.00    +0.000 F 
ATOM     14  F   UNL     1       0.411   3.844  20.818  0.00  0.00    +0.000 F 
ATOM     15  F   UNL     1       1.627   2.177  20.131  0.00  0.00    +0.000 F 
ENDBRANCH  11  12
BRANCH   6  17
ATOM     16  N   UNL     1       5.007   1.763  20.099  0.00  0.00    +0.000 NA
ATOM     17  C   UNL     1       4.515   2.792  19.867  0.00  0.00    +0.000 C 
ENDBRANCH   6  17
ENDBRANCH   1   9
BRANCH   3  18
ATOM     18  C   UNL     1       0.630  11.030  19.113  0.00  0.00    +0.000 C 
BRANCH  18  19
ATOM     19  O   UNL     1       0.656  11.187  20.532  0.00  0.00    +0.000 OA
BRANCH  19  20
ATOM     20  C   UNL     1      -0.507  11.583  21.129  0.00  0.00    +0.000 A 
ATOM     21  C   UNL     1      -0.659  11.153  22.451  0.00  0.00    +0.000 A 
ATOM     22  C   UNL     1      -1.797  11.487  23.187  0.00  0.00    +0.000 A 
ATOM     23  C   UNL     1      -2.784  12.285  22.598  0.00  0.00    +0.000 A 
ATOM     24  C   UNL     1      -2.633  12.738  21.279  0.00  0.00    +0.000 A 
ATOM     25  C   UNL     1      -1.491  12.386  20.547  0.00  0.00    +0.000 A 
BRANCH  23  26
ATOM     26  N   UNL     1      -3.982  12.646  23.364  0.00  0.00    +0.000 N 
ATOM     27  O   UNL     1      -4.211  12.021  24.409  0.00  0.00    +0.000 OA
ATOM     28  O   UNL     1      -4.696  13.558  22.920  0.00  0.00    +0.000 OA
ENDBRANCH  23  26
ENDBRANCH  19  20
ENDBRANCH  18  19
ENDBRANCH   3  18
TORSDOF 7
ENDMDL
MODEL 5
REMARK VINA RESULT:      -8.1      0.619      1.152
REMARK  Name = 
REMARK  7 active torsions:
REMARK  status: ('A' for Active; 'I' for Inactive)
REMARK    1  A    between atoms: C_2  and  C_3
REMARK    2  A    between atoms: C_6  and  N_7
REMARK    3  A    between atoms: C_9  and  C_10
REMARK    4  A    between atoms: C_10  and  O_11
REMARK    5  A    between atoms: O_11  and  C_12
REMARK    6  A    between atoms: C_15  and  N_16
REMARK    7  A    between atoms: C_24  and  C_25
REMARK                            x       y       z     vdW  Elec       q    Type
REMARK                         _______ _______ _______ _____ _____    ______ ____
ROOT
ATOM      1  N   UNL     1       5.913   5.803  18.322  0.00  0.00    +0.000 N 
ATOM      2  C   UNL     1       6.115   7.063  17.812  0.00  0.00    +0.000 A 
ATOM      3  C   UNL     1       7.444   7.330  18.039  0.00  0.00    +0.000 A 
ATOM      4  N   UNL     1       8.016   6.246  18.646  0.00  0.00    +0.000 NA
ATOM      5  N   UNL     1       7.076   5.326  18.821  0.00  0.00    +0.000 NA
ENDROOT
BRANCH   1   9
ATOM      6  C   UNL     1       2.352   3.544  18.471  0.00  0.00    +0.000 A 
ATOM      7  C   UNL     1       3.210   3.458  17.366  0.00  0.00    +0.000 A 
ATOM      8  C   UNL     1       4.368   4.224  17.303  0.00  0.00    +0.000 A 
ATOM      9  C   UNL     1       4.705   5.069  18.364  0.00  0.00    +0.000 A 
ATOM     10  C   UNL     1       3.844   5.178  19.467  0.00  0.00    +0.000 A 
ATOM     11  C   UNL     1       2.646   4.432  19.524  0.00  0.00    +0.000 A 
BRANCH  11  12
ATOM     12  C   UNL     1       1.740   4.618  20.721  0.00  0.00    +0.000 C 
ATOM     13  F   UNL     1       2.239   4.154  21.893  0.00  0.00    +0.000 F 
ATOM     14  F   UNL     1       1.439   5.927  20.936  0.00  0.00    +0.000 F 
ATOM     15  F   UNL     1       0.545   3.982  20.557  0.00  0.00    +0.000 F 
ENDBRANCH  11  12
BRANCH   6  17
ATOM     16  N   UNL     1       0.256   2.015  18.507  0.00  0.00    +0.000 NA
ATOM     17  C   UNL     1       1.210   2.682  18.476  0.00  0.00    +0.000 C 
ENDBRANCH   6  17
ENDBRANCH   1   9
BRANCH   3  18
ATOM     18  C   UNL     1       8.206   8.570  17.746  0.00  0.00    +0.000 C 
BRANCH  18  19
ATOM     19  O   UNL     1       8.944   8.988  18.895  0.00  0.00    +0.000 OA
BRANCH  19  20
ATOM     20  C   UNL     1       9.192  10.327  19.013  0.00  0.00    +0.000 A 
ATOM     21  C   UNL     1       9.594  10.734  20.290  0.00  0.00    +0.000 A 
ATOM     22  C   UNL     1       9.885  12.073  20.556  0.00  0.00    +0.000 A 
ATOM     23  C   UNL     1       9.798  13.011  19.522  0.00  0.00    +0.000 A 
ATOM     24  C   UNL     1       9.415  12.612  18.234  0.00  0.00    +0.000 A 
ATOM     25  C   UNL     1       9.113  11.266  17.982  0.00  0.00    +0.000 A 
BRANCH  23  26
ATOM     26  N   UNL     1      10.107  14.421  19.789  0.00  0.00    +0.000 N 
ATOM     27  O   UNL     1      10.197  14.779  20.972  0.00  0.00    +0.000 OA
ATOM     28  O   UNL     1      10.261  15.171  18.814  0.00  0.00    +0.000 OA
ENDBRANCH  23  26
ENDBRANCH  19  20
ENDBRANCH  18  19
ENDBRANCH   3  18
TORSDOF 7
ENDMDL
MODEL 6
REMARK VINA RESULT:      -8.0      5.993      7.830
REMARK  Name = 
REMARK  7 active torsions:
REMARK  status: ('A' for Active; 'I' for Inactive)
REMARK    1  A    between atoms: C_2  and  C_3
REMARK    2  A    between atoms: C_6  and  N_7
REMARK    3  A    between atoms: C_9  and  C_10
REMARK    4  A    between atoms: C_10  and  O_11
REMARK    5  A    between atoms: O_11  and  C_12
REMARK    6  A    between atoms: C_15  and  N_16
REMARK    7  A    between atoms: C_24  and  C_25
REMARK                            x       y       z     vdW  Elec       q    Type
REMARK                         _______ _______ _______ _____ _____    ______ ____
ROOT
ATOM      1  N   UNL     1       2.201   6.765  19.787  0.00  0.00    +0.000 N 
ATOM      2  C   UNL     1       3.199   6.083  19.135  0.00  0.00    +0.000 A 
ATOM      3  C   UNL     1       3.237   4.848  19.738  0.00  0.00    +0.000 A 
ATOM      4  N   UNL     1       2.272   4.797  20.705  0.00  0.00    +0.000 NA
ATOM      5  N   UNL     1       1.652   5.970  20.733  0.00  0.00    +0.000 NA
ENDROOT
BRANCH   1   9
ATOM      6  C   UNL     1       0.858  10.704  19.085  0.00  0.00    +0.000 A 
ATOM      7  C   UNL     1       1.520   9.982  18.082  0.00  0.00    +0.000 A 
ATOM      8  C   UNL     1       1.988   8.697  18.322  0.00  0.00    +0.000 A 
ATOM      9  C   UNL     1       1.773   8.096  19.565  0.00  0.00    +0.000 A 
ATOM     10  C   UNL     1       1.129   8.816  20.584  0.00  0.00    +0.000 A 
ATOM     11  C   UNL     1       0.682  10.136  20.362  0.00  0.00    +0.000 A 
BRANCH  11  12
ATOM     12  C   UNL     1       0.027  10.876  21.508  0.00  0.00    +0.000 C 
ATOM     13  F   UNL     1       0.508  12.123  21.731  0.00  0.00    +0.000 F 
ATOM     14  F   UNL     1      -1.313  11.020  21.323  0.00  0.00    +0.000 F 
ATOM     15  F   UNL     1       0.173  10.212  22.690  0.00  0.00    +0.000 F 
ENDBRANCH  11  12
BRANCH   6  17
ATOM     16  N   UNL     1      -0.000  13.059  18.417  0.00  0.00    +0.000 NA
ATOM     17  C   UNL     1       0.363  12.000  18.734  0.00  0.00    +0.000 C 
ENDBRANCH   6  17
ENDBRANCH   1   9
BRANCH   3  18
ATOM     18  C   UNL     1       4.162   3.715  19.478  0.00  0.00    +0.000 C 
BRANCH  18  19
ATOM     19  O   UNL     1       5.496   4.190  19.290  0.00  0.00    +0.000 OA
BRANCH  19  20
ATOM     20  C   UNL     1       5.928   4.315  18.001  0.00  0.00    +0.000 A 
ATOM     21  C   UNL     1       5.063   3.778  17.041  0.00  0.00    +0.000 A 
ATOM     22  C   UNL     1       5.373   3.838  15.682  0.00  0.00    +0.000 A 
ATOM     23  C   UNL     1       6.555   4.469  15.278  0.00  0.00    +0.000 A 
ATOM     24  C   UNL     1       7.420   5.028  16.228  0.00  0.00    +0.000 A 
ATOM     25  C   UNL     1       7.103   4.951  17.591  0.00  0.00    +0.000 A 
BRANCH  23  26
ATOM     26  N   UNL     1       6.889   4.542  13.850  0.00  0.00    +0.000 N 
ATOM     27  O   UNL     1       7.658   5.441  13.482  0.00  0.00    +0.000 OA
ATOM     28  O   UNL     1       6.383   3.698  13.096  0.00  0.00    +0.000 OA
ENDBRANCH  23  26
ENDBRANCH  19  20
ENDBRANCH  18  19
ENDBRANCH   3  18
TORSDOF 7
ENDMDL
MODEL 7
REMARK VINA RESULT:      -8.0      6.532      8.379
REMARK  Name = 
REMARK  7 active torsions:
REMARK  status: ('A' for Active; 'I' for Inactive)
REMARK    1  A    between atoms: C_2  and  C_3
REMARK    2  A    between atoms: C_6  and  N_7
REMARK    3  A    between atoms: C_9  and  C_10
REMARK    4  A    between atoms: C_10  and  O_11
REMARK    5  A    between atoms: O_11  and  C_12
REMARK    6  A    between atoms: C_15  and  N_16
REMARK    7  A    between atoms: C_24  and  C_25
REMARK                            x       y       z     vdW  Elec       q    Type
REMARK                         _______ _______ _______ _____ _____    ______ ____
ROOT
ATOM      1  N   UNL     1       2.392   7.718  18.623  0.00  0.00    +0.000 N 
ATOM      2  C   UNL     1       1.548   8.488  19.386  0.00  0.00    +0.000 A 
ATOM      3  C   UNL     1       1.399   9.658  18.679  0.00  0.00    +0.000 A 
ATOM      4  N   UNL     1       2.118   9.570  17.520  0.00  0.00    +0.000 NA
ATOM      5  N   UNL     1       2.725   8.390  17.498  0.00  0.00    +0.000 NA
ENDROOT
BRANCH   1   9
ATOM      6  C   UNL     1       3.910   3.893  19.559  0.00  0.00    +0.000 A 
ATOM      7  C   UNL     1       4.667   4.801  18.804  0.00  0.00    +0.000 A 
ATOM      8  C   UNL     1       4.155   6.049  18.470  0.00  0.00    +0.000 A 
ATOM      9  C   UNL     1       2.886   6.425  18.916  0.00  0.00    +0.000 A 
ATOM     10  C   UNL     1       2.111   5.518  19.657  0.00  0.00    +0.000 A 
ATOM     11  C   UNL     1       2.607   4.234  19.969  0.00  0.00    +0.000 A 
BRANCH  11  12
ATOM     12  C   UNL     1       1.713   3.286  20.739  0.00  0.00    +0.000 C 
ATOM     13  F   UNL     1       0.431   3.702  20.885  0.00  0.00    +0.000 F 
ATOM     14  F   UNL     1       1.643   2.060  20.153  0.00  0.00    +0.000 F 
ATOM     15  F   UNL     1       2.172   3.070  22.004  0.00  0.00    +0.000 F 
ENDBRANCH  11  12
BRANCH   6  17
ATOM     16  N   UNL     1       5.089   1.665  20.173  0.00  0.00    +0.000 NA
ATOM     17  C   UNL     1       4.535   2.653  19.900  0.00  0.00    +0.000 C 
ENDBRANCH   6  17
ENDBRANCH   1   9
BRANCH   3  18
ATOM     18  C   UNL     1       0.639  10.879  19.052  0.00  0.00    +0.000 C 
BRANCH  18  19
ATOM     19  O   UNL     1       0.884  11.225  20.416  0.00  0.00    +0.000 OA
BRANCH  19  20
ATOM     20  C   UNL     1      -0.211  11.469  21.195  0.00  0.00    +0.000 A 
ATOM     21  C   UNL     1      -1.188  12.269  20.592  0.00  0.00    +0.000 A 
ATOM     22  C   UNL     1      -2.363  12.597  21.269  0.00  0.00    +0.000 A 
ATOM     23  C   UNL     1      -2.574  12.094  22.557  0.00  0.00    +0.000 A 
ATOM     24  C   UNL     1      -1.612  11.275  23.164  0.00  0.00    +0.000 A 
ATOM     25  C   UNL     1      -0.430  10.962  22.478  0.00  0.00    +0.000 A 
BRANCH  23  26
ATOM     26  N   UNL     1      -3.809  12.428  23.277  0.00  0.00    +0.000 N 
ATOM     27  O   UNL     1      -4.849  12.551  22.615  0.00  0.00    +0.000 OA
ATOM     28  O   UNL     1      -3.739  12.567  24.507  0.00  0.00    +0.000 OA
ENDBRANCH  23  26
ENDBRANCH  19  20
ENDBRANCH  18  19
ENDBRANCH   3  18
TORSDOF 7
ENDMDL
MODEL 8
REMARK VINA RESULT:      -8.0      5.985      8.343
REMARK  Name = 
REMARK  7 active torsions:
REMARK  status: ('A' for Active; 'I' for Inactive)
REMARK    1  A    between atoms: C_2  and  C_3
REMARK    2  A    between atoms: C_6  and  N_7
REMARK    3  A    between atoms: C_9  and  C_10
REMARK    4  A    between atoms: C_10  and  O_11
REMARK    5  A    between atoms: O_11  and  C_12
REMARK    6  A    between atoms: C_15  and  N_16
REMARK    7  A    between atoms: C_24  and  C_25
REMARK                            x       y       z     vdW  Elec       q    Type
REMARK                         _______ _______ _______ _____ _____    ______ ____
ROOT
ATOM      1  N   UNL     1       1.476   8.215  20.126  0.00  0.00    +0.000 N 
ATOM      2  C   UNL     1       1.885   6.986  20.584  0.00  0.00    +0.000 A 
ATOM      3  C   UNL     1       2.640   6.460  19.563  0.00  0.00    +0.000 A 
ATOM      4  N   UNL     1       2.693   7.364  18.540  0.00  0.00    +0.000 NA
ATOM      5  N   UNL     1       1.975   8.425  18.887  0.00  0.00    +0.000 NA
ENDROOT
BRANCH   1   9
ATOM      6  C   UNL     1      -0.918  11.061  22.121  0.00  0.00    +0.000 A 
ATOM      7  C   UNL     1      -0.291  10.027  22.830  0.00  0.00    +0.000 A 
ATOM      8  C   UNL     1       0.473   9.073  22.170  0.00  0.00    +0.000 A 
ATOM      9  C   UNL     1       0.650   9.155  20.787  0.00  0.00    +0.000 A 
ATOM     10  C   UNL     1       0.012  10.174  20.063  0.00  0.00    +0.000 A 
ATOM     11  C   UNL     1      -0.797  11.128  20.719  0.00  0.00    +0.000 A 
BRANCH  11  12
ATOM     12  C   UNL     1      -1.489  12.181  19.883  0.00  0.00    +0.000 C 
ATOM     13  F   UNL     1      -1.272  12.083  18.548  0.00  0.00    +0.000 F 
ATOM     14  F   UNL     1      -2.839  12.157  20.045  0.00  0.00    +0.000 F 
ATOM     15  F   UNL     1      -1.094  13.441  20.224  0.00  0.00    +0.000 F 
ENDBRANCH  11  12
BRANCH   6  17
ATOM     16  N   UNL     1      -2.248  12.779  23.539  0.00  0.00    +0.000 NA
ATOM     17  C   UNL     1      -1.642  12.029  22.886  0.00  0.00    +0.000 C 
ENDBRANCH   6  17
ENDBRANCH   1   9
BRANCH   3  18
ATOM     18  C   UNL     1       3.292   5.127  19.481  0.00  0.00    +0.000 C 
BRANCH  18  19
ATOM     19  O   UNL     1       4.713   5.264  19.496  0.00  0.00    +0.000 OA
BRANCH  19  20
ATOM     20  C   UNL     1       5.347   5.231  18.286  0.00  0.00    +0.000 A 
ATOM     21  C   UNL     1       4.848   4.276  17.393  0.00  0.00    +0.000 A 
ATOM     22  C   UNL     1       5.395   4.132  16.118  0.00  0.00    +0.000 A 
ATOM     23  C   UNL     1       6.440   4.974  15.722  0.00  0.00    +0.000 A 
ATOM     24  C   UNL     1       6.936   5.948  16.601  0.00  0.00    +0.000 A 
ATOM     25  C   UNL     1       6.385   6.075  17.884  0.00  0.00    +0.000 A 
BRANCH  23  26
ATOM     26  N   UNL     1       7.021   4.835  14.381  0.00  0.00    +0.000 N 
ATOM     27  O   UNL     1       6.493   4.028  13.604  0.00  0.00    +0.000 OA
ATOM     28  O   UNL     1       8.005   5.537  14.105  0.00  0.00    +0.000 OA
ENDBRANCH  23  26
ENDBRANCH  19  20
ENDBRANCH  18  19
ENDBRANCH   3  18
TORSDOF 7
ENDMDL
MODEL 9
REMARK VINA RESULT:      -7.9      6.092      8.188
REMARK  Name = 
REMARK  7 active torsions:
REMARK  status: ('A' for Active; 'I' for Inactive)
REMARK    1  A    between atoms: C_2  and  C_3
REMARK    2  A    between atoms: C_6  and  N_7
REMARK    3  A    between atoms: C_9  and  C_10
REMARK    4  A    between atoms: C_10  and  O_11
REMARK    5  A    between atoms: O_11  and  C_12
REMARK    6  A    between atoms: C_15  and  N_16
REMARK    7  A    between atoms: C_24  and  C_25
REMARK                            x       y       z     vdW  Elec       q    Type
REMARK                         _______ _______ _______ _____ _____    ______ ____
ROOT
ATOM      1  N   UNL     1       1.851   7.623  20.004  0.00  0.00    +0.000 N 
ATOM      2  C   UNL     1       2.081   6.342  20.443  0.00  0.00    +0.000 A 
ATOM      3  C   UNL     1       2.816   5.750  19.443  0.00  0.00    +0.000 A 
ATOM      4  N   UNL     1       3.033   6.666  18.452  0.00  0.00    +0.000 NA
ATOM      5  N   UNL     1       2.436   7.800  18.797  0.00  0.00    +0.000 NA
ENDROOT
BRANCH   1   9
ATOM      6  C   UNL     1      -0.271  10.703  21.960  0.00  0.00    +0.000 A 
ATOM      7  C   UNL     1       0.317   9.660  22.690  0.00  0.00    +0.000 A 
ATOM      8  C   UNL     1       0.990   8.630  22.045  0.00  0.00    +0.000 A 
ATOM      9  C   UNL     1       1.115   8.643  20.653  0.00  0.00    +0.000 A 
ATOM     10  C   UNL     1       0.515   9.671  19.910  0.00  0.00    +0.000 A 
ATOM     11  C   UNL     1      -0.203  10.702  20.553  0.00  0.00    +0.000 A 
BRANCH  11  12
ATOM     12  C   UNL     1      -0.860  11.763  19.698  0.00  0.00    +0.000 C 
ATOM     13  F   UNL     1      -0.449  13.031  19.946  0.00  0.00    +0.000 F 
ATOM     14  F   UNL     1      -0.646  11.554  18.371  0.00  0.00    +0.000 F 
ATOM     15  F   UNL     1      -2.213  11.781  19.861  0.00  0.00    +0.000 F 
ENDBRANCH  11  12
BRANCH   6  17
ATOM     16  N   UNL     1      -1.374  12.592  23.354  0.00  0.00    +0.000 NA
ATOM     17  C   UNL     1      -0.899  11.747  22.709  0.00  0.00    +0.000 C 
ENDBRANCH   6  17
ENDBRANCH   1   9
BRANCH   3  18
ATOM     18  C   UNL     1       3.301   4.350  19.351  0.00  0.00    +0.000 C 
BRANCH  18  19
ATOM     19  O   UNL     1       4.722   4.320  19.210  0.00  0.00    +0.000 OA
BRANCH  19  20
ATOM     20  C   UNL     1       5.215   4.409  17.939  0.00  0.00    +0.000 A 
ATOM     21  C   UNL     1       6.504   4.947  17.850  0.00  0.00    +0.000 A 
ATOM     22  C   UNL     1       7.136   5.094  16.615  0.00  0.00    +0.000 A 
ATOM     23  C   UNL     1       6.478   4.670  15.455  0.00  0.00    +0.000 A 
ATOM     24  C   UNL     1       5.194   4.112  15.533  0.00  0.00    +0.000 A 
ATOM     25  C   UNL     1       4.565   3.981  16.779  0.00  0.00    +0.000 A 
BRANCH  23  26
ATOM     26  N   UNL     1       7.135   4.815  14.150  0.00  0.00    +0.000 N 
ATOM     27  O   UNL     1       6.730   4.107  13.218  0.00  0.00    +0.000 OA
ATOM     28  O   UNL     1       8.057   5.639  14.058  0.00  0.00    +0.000 OA
ENDBRANCH  23  26
ENDBRANCH  19  20
ENDBRANCH  18  19
ENDBRANCH   3  18
TORSDOF 7
ENDMDL
