MODEL 1
REMARK VINA RESULT:      -6.7      0.000      0.000
REMARK  Name = 
REMARK  5 active torsions:
REMARK  status: ('A' for Active; 'I' for Inactive)
REMARK    1  A    between atoms: C_1  and  C_2
REMARK    2  A    between atoms: C_4  and  N_5
REMARK    3  A    between atoms: C_6  and  C_7
REMARK    4  A    between atoms: C_14  and  C_15
REMARK    5  A    between atoms: C_17  and  C_18
REMARK                            x       y       z     vdW  Elec       q    Type
REMARK                         _______ _______ _______ _____ _____    ______ ____
ROOT
ATOM      1  C   UNL     1       5.239   6.232  15.368  0.00  0.00    +0.000 C 
ATOM      2  C   UNL     1       6.111   6.282  16.563  0.00  0.00    +0.000 A 
ATOM      3  O   UNL     1       6.898   7.377  16.690  0.00  0.00    +0.000 OA
ATOM      4  C   UNL     1       7.631   7.278  17.855  0.00  0.00    +0.000 A 
ATOM      5  C   UNL     1       7.272   6.073  18.452  0.00  0.00    +0.000 A 
ATOM      6  C   UNL     1       6.303   5.426  17.625  0.00  0.00    +0.000 A 
ATOM      7  C   UNL     1       5.622   4.121  17.827  0.00  0.00    +0.000 C 
ENDROOT
BRANCH   4   8
ATOM      8  N   UNL     1       8.516   8.243  18.244  0.00  0.00    +0.000 NA
ATOM      9  C   UNL     1       8.124   9.465  18.041  0.00  0.00    +0.000 C 
BRANCH   9  10
ATOM     10  C   UNL     1       8.921  10.668  18.364  0.00  0.00    +0.000 A 
ATOM     11  C   UNL     1       8.741  11.899  17.727  0.00  0.00    +0.000 A 
ATOM     12  C   UNL     1       9.535  12.993  18.099  0.00  0.00    +0.000 A 
ATOM     13  C   UNL     1      10.499  12.851  19.101  0.00  0.00    +0.000 A 
ATOM     14 CL   UNL     1      11.472  14.194  19.560  0.00  0.00    +0.000 Cl
ATOM     15  C   UNL     1      10.680  11.625  19.736  0.00  0.00    +0.000 A 
ATOM     16  C   UNL     1       9.892  10.534  19.367  0.00  0.00    +0.000 A 
ENDBRANCH   9  10
ENDBRANCH   4   8
BRANCH   5  17
ATOM     17  C   UNL     1       7.800   5.590  19.686  0.00  0.00    +0.000 C 
ATOM     18  N   UNL     1       8.204   5.259  20.723  0.00  0.00    +0.000 NA
ENDBRANCH   5  17
TORSDOF 3
ENDMDL
MODEL 2
REMARK VINA RESULT:      -6.6      0.273      1.171
REMARK  Name = 
REMARK  5 active torsions:
REMARK  status: ('A' for Active; 'I' for Inactive)
REMARK    1  A    between atoms: C_1  and  C_2
REMARK    2  A    between atoms: C_4  and  N_5
REMARK    3  A    between atoms: C_6  and  C_7
REMARK    4  A    between atoms: C_14  and  C_15
REMARK    5  A    between atoms: C_17  and  C_18
REMARK                            x       y       z     vdW  Elec       q    Type
REMARK                         _______ _______ _______ _____ _____    ______ ____
ROOT
ATOM      1  C   UNL     1       5.213   6.607  15.533  0.00  0.00    +0.000 C 
ATOM      2  C   UNL     1       6.116   6.562  16.705  0.00  0.00    +0.000 A 
ATOM      3  O   UNL     1       6.933   7.628  16.879  0.00  0.00    +0.000 OA
ATOM      4  C   UNL     1       7.692   7.440  18.016  0.00  0.00    +0.000 A 
ATOM      5  C   UNL     1       7.319   6.209  18.546  0.00  0.00    +0.000 A 
ATOM      6  C   UNL     1       6.314   5.637  17.706  0.00  0.00    +0.000 A 
ATOM      7  C   UNL     1       5.606   4.338  17.846  0.00  0.00    +0.000 C 
ENDROOT
BRANCH   4   8
ATOM      8  N   UNL     1       8.610   8.359  18.439  0.00  0.00    +0.000 NA
ATOM      9  C   UNL     1       8.304   9.597  18.196  0.00  0.00    +0.000 C 
BRANCH   9  10
ATOM     10  C   UNL     1       9.153  10.757  18.545  0.00  0.00    +0.000 A 
ATOM     11  C   UNL     1      10.086  10.736  19.586  0.00  0.00    +0.000 A 
ATOM     12  C   UNL     1      10.856  11.878  19.847  0.00  0.00    +0.000 A 
ATOM     13  C   UNL     1      10.693  13.027  19.069  0.00  0.00    +0.000 A 
ATOM     14 CL   UNL     1      11.640  14.427  19.386  0.00  0.00    +0.000 Cl
ATOM     15  C   UNL     1       9.763  13.049  18.032  0.00  0.00    +0.000 A 
ATOM     16  C   UNL     1       8.993  11.915  17.771  0.00  0.00    +0.000 A 
ENDBRANCH   9  10
ENDBRANCH   4   8
BRANCH   5  17
ATOM     17  C   UNL     1       7.865   5.637  19.733  0.00  0.00    +0.000 C 
ATOM     18  N   UNL     1       8.288   5.233  20.737  0.00  0.00    +0.000 NA
ENDBRANCH   5  17
TORSDOF 3
ENDMDL
MODEL 3
REMARK VINA RESULT:      -6.3      1.574      1.761
REMARK  Name = 
REMARK  5 active torsions:
REMARK  status: ('A' for Active; 'I' for Inactive)
REMARK    1  A    between atoms: C_1  and  C_2
REMARK    2  A    between atoms: C_4  and  N_5
REMARK    3  A    between atoms: C_6  and  C_7
REMARK    4  A    between atoms: C_14  and  C_15
REMARK    5  A    between atoms: C_17  and  C_18
REMARK                            x       y       z     vdW  Elec       q    Type
REMARK                         _______ _______ _______ _____ _____    ______ ____
ROOT
ATOM      1  C   UNL     1       7.038   4.745  13.967  0.00  0.00    +0.000 C 
ATOM      2  C   UNL     1       6.794   5.151  15.369  0.00  0.00    +0.000 A 
ATOM      3  O   UNL     1       7.604   6.115  15.868  0.00  0.00    +0.000 OA
ATOM      4  C   UNL     1       7.237   6.390  17.170  0.00  0.00    +0.000 A 
ATOM      5  C   UNL     1       6.165   5.554  17.468  0.00  0.00    +0.000 A 
ATOM      6  C   UNL     1       5.880   4.752  16.320  0.00  0.00    +0.000 A 
ATOM      7  C   UNL     1       4.836   3.709  16.142  0.00  0.00    +0.000 C 
ENDROOT
BRANCH   4   8
ATOM      8  N   UNL     1       7.884   7.324  17.928  0.00  0.00    +0.000 NA
ATOM      9  C   UNL     1       7.772   8.548  17.507  0.00  0.00    +0.000 C 
BRANCH   9  10
ATOM     10  C   UNL     1       8.401   9.720  18.155  0.00  0.00    +0.000 A 
ATOM     11  C   UNL     1       8.386  11.002  17.598  0.00  0.00    +0.000 A 
ATOM     12  C   UNL     1       9.000  12.060  18.282  0.00  0.00    +0.000 A 
ATOM     13  C   UNL     1       9.620  11.833  19.513  0.00  0.00    +0.000 A 
ATOM     14 CL   UNL     1      10.371  13.132  20.355  0.00  0.00    +0.000 Cl
ATOM     15  C   UNL     1       9.636  10.556  20.070  0.00  0.00    +0.000 A 
ATOM     16  C   UNL     1       9.027   9.500  19.391  0.00  0.00    +0.000 A 
ENDBRANCH   9  10
ENDBRANCH   4   8
BRANCH   5  17
ATOM     17  C   UNL     1       5.482   5.524  18.720  0.00  0.00    +0.000 C 
ATOM     18  N   UNL     1       4.992   5.492  19.772  0.00  0.00    +0.000 NA
ENDBRANCH   5  17
TORSDOF 3
ENDMDL
MODEL 4
REMARK VINA RESULT:      -6.3      7.177      8.180
REMARK  Name = 
REMARK  5 active torsions:
REMARK  status: ('A' for Active; 'I' for Inactive)
REMARK    1  A    between atoms: C_1  and  C_2
REMARK    2  A    between atoms: C_4  and  N_5
REMARK    3  A    between atoms: C_6  and  C_7
REMARK    4  A    between atoms: C_14  and  C_15
REMARK    5  A    between atoms: C_17  and  C_18
REMARK                            x       y       z     vdW  Elec       q    Type
REMARK                         _______ _______ _______ _____ _____    ______ ____
ROOT
ATOM      1  C   UNL     1       2.160   2.983  21.439  0.00  0.00    +0.000 C 
ATOM      2  C   UNL     1       2.457   4.158  20.590  0.00  0.00    +0.000 A 
ATOM      3  O   UNL     1       1.876   5.326  20.952  0.00  0.00    +0.000 OA
ATOM      4  C   UNL     1       2.264   6.320  20.076  0.00  0.00    +0.000 A 
ATOM      5  C   UNL     1       3.111   5.724  19.146  0.00  0.00    +0.000 A 
ATOM      6  C   UNL     1       3.233   4.336  19.466  0.00  0.00    +0.000 A 
ATOM      7  C   UNL     1       4.017   3.282  18.772  0.00  0.00    +0.000 C 
ENDROOT
BRANCH   4   8
ATOM      8  N   UNL     1       1.829   7.609  20.196  0.00  0.00    +0.000 NA
ATOM      9  C   UNL     1       1.143   7.861  21.270  0.00  0.00    +0.000 C 
BRANCH   9  10
ATOM     10  C   UNL     1       0.557   9.178  21.602  0.00  0.00    +0.000 A 
ATOM     11  C   UNL     1       0.795  10.333  20.852  0.00  0.00    +0.000 A 
ATOM     12  C   UNL     1       0.194  11.541  21.232  0.00  0.00    +0.000 A 
ATOM     13  C   UNL     1      -0.641  11.587  22.352  0.00  0.00    +0.000 A 
ATOM     14 CL   UNL     1      -1.382  13.068  22.816  0.00  0.00    +0.000 Cl
ATOM     15  C   UNL     1      -0.879  10.437  23.101  0.00  0.00    +0.000 A 
ATOM     16  C   UNL     1      -0.280   9.234  22.726  0.00  0.00    +0.000 A 
ENDBRANCH   9  10
ENDBRANCH   4   8
BRANCH   5  17
ATOM     17  C   UNL     1       3.740   6.409  18.065  0.00  0.00    +0.000 C 
ATOM     18  N   UNL     1       4.216   7.029  17.206  0.00  0.00    +0.000 NA
ENDBRANCH   5  17
TORSDOF 3
ENDMDL
MODEL 5
REMARK VINA RESULT:      -6.3      7.033      8.167
REMARK  Name = 
REMARK  5 active torsions:
REMARK  status: ('A' for Active; 'I' for Inactive)
REMARK    1  A    between atoms: C_1  and  C_2
REMARK    2  A    between atoms: C_4  and  N_5
REMARK    3  A    between atoms: C_6  and  C_7
REMARK    4  A    between atoms: C_14  and  C_15
REMARK    5  A    between atoms: C_17  and  C_18
REMARK                            x       y       z     vdW  Elec       q    Type
REMARK                         _______ _______ _______ _____ _____    ______ ____
ROOT
ATOM      1  C   UNL     1       4.591   5.151  17.526  0.00  0.00    +0.000 C 
ATOM      2  C   UNL     1       3.723   4.893  18.697  0.00  0.00    +0.000 A 
ATOM      3  O   UNL     1       2.997   5.942  19.152  0.00  0.00    +0.000 OA
ATOM      4  C   UNL     1       2.234   5.536  20.228  0.00  0.00    +0.000 A 
ATOM      5  C   UNL     1       2.514   4.188  20.430  0.00  0.00    +0.000 A 
ATOM      6  C   UNL     1       3.474   3.771  19.456  0.00  0.00    +0.000 A 
ATOM      7  C   UNL     1       4.091   2.433  19.263  0.00  0.00    +0.000 C 
ENDROOT
BRANCH   4   8
ATOM      8  N   UNL     1       1.399   6.388  20.894  0.00  0.00    +0.000 NA
ATOM      9  C   UNL     1       1.512   7.639  20.564  0.00  0.00    +0.000 C 
BRANCH   9  10
ATOM     10  C   UNL     1       0.727   8.740  21.164  0.00  0.00    +0.000 A 
ATOM     11  C   UNL     1       0.525   8.873  22.541  0.00  0.00    +0.000 A 
ATOM     12  C   UNL     1      -0.227   9.951  23.028  0.00  0.00    +0.000 A 
ATOM     13  C   UNL     1      -0.767  10.887  22.142  0.00  0.00    +0.000 A 
ATOM     14 CL   UNL     1      -1.685  12.213  22.740  0.00  0.00    +0.000 Cl
ATOM     15  C   UNL     1      -0.565  10.756  20.770  0.00  0.00    +0.000 A 
ATOM     16  C   UNL     1       0.181   9.683  20.282  0.00  0.00    +0.000 A 
ENDBRANCH   9  10
ENDBRANCH   4   8
BRANCH   5  17
ATOM     17  C   UNL     1       1.926   3.379  21.447  0.00  0.00    +0.000 C 
ATOM     18  N   UNL     1       1.510   2.681  22.277  0.00  0.00    +0.000 NA
ENDBRANCH   5  17
TORSDOF 3
ENDMDL
MODEL 6
REMARK VINA RESULT:      -6.2      5.987      8.344
REMARK  Name = 
REMARK  5 active torsions:
REMARK  status: ('A' for Active; 'I' for Inactive)
REMARK    1  A    between atoms: C_1  and  C_2
REMARK    2  A    between atoms: C_4  and  N_5
REMARK    3  A    between atoms: C_6  and  C_7
REMARK    4  A    between atoms: C_14  and  C_15
REMARK    5  A    between atoms: C_17  and  C_18
REMARK                            x       y       z     vdW  Elec       q    Type
REMARK                         _______ _______ _______ _____ _____    ______ ____
ROOT
ATOM      1  C   UNL     1       6.033   3.101  12.002  0.00  0.00    +0.000 C 
ATOM      2  C   UNL     1       6.250   3.773  13.302  0.00  0.00    +0.000 A 
ATOM      3  O   UNL     1       5.590   3.255  14.366  0.00  0.00    +0.000 OA
ATOM      4  C   UNL     1       5.910   3.979  15.497  0.00  0.00    +0.000 A 
ATOM      5  C   UNL     1       6.795   4.976  15.096  0.00  0.00    +0.000 A 
ATOM      6  C   UNL     1       7.011   4.854  13.689  0.00  0.00    +0.000 A 
ATOM      7  C   UNL     1       7.865   5.682  12.798  0.00  0.00    +0.000 C 
ENDROOT
BRANCH   4   8
ATOM      8  N   UNL     1       5.388   3.683  16.724  0.00  0.00    +0.000 NA
ATOM      9  C   UNL     1       4.113   3.893  16.846  0.00  0.00    +0.000 C 
BRANCH   9  10
ATOM     10  C   UNL     1       3.338   3.663  18.085  0.00  0.00    +0.000 A 
ATOM     11  C   UNL     1       2.783   4.697  18.844  0.00  0.00    +0.000 A 
ATOM     12  C   UNL     1       2.056   4.391  20.003  0.00  0.00    +0.000 A 
ATOM     13  C   UNL     1       1.887   3.060  20.394  0.00  0.00    +0.000 A 
ATOM     14 CL   UNL     1       0.992   2.684  21.814  0.00  0.00    +0.000 Cl
ATOM     15  C   UNL     1       2.440   2.029  19.639  0.00  0.00    +0.000 A 
ATOM     16  C   UNL     1       3.165   2.330  18.486  0.00  0.00    +0.000 A 
ENDBRANCH   9  10
ENDBRANCH   4   8
BRANCH   5  17
ATOM     17  C   UNL     1       7.376   5.945  15.968  0.00  0.00    +0.000 C 
ATOM     18  N   UNL     1       7.780   6.762  16.687  0.00  0.00    +0.000 NA
ENDBRANCH   5  17
TORSDOF 3
ENDMDL
MODEL 7
REMARK VINA RESULT:      -6.2      6.829      7.739
REMARK  Name = 
REMARK  5 active torsions:
REMARK  status: ('A' for Active; 'I' for Inactive)
REMARK    1  A    between atoms: C_1  and  C_2
REMARK    2  A    between atoms: C_4  and  N_5
REMARK    3  A    between atoms: C_6  and  C_7
REMARK    4  A    between atoms: C_14  and  C_15
REMARK    5  A    between atoms: C_17  and  C_18
REMARK                            x       y       z     vdW  Elec       q    Type
REMARK                         _______ _______ _______ _____ _____    ______ ____
ROOT
ATOM      1  C   UNL     1       4.977   6.330  16.353  0.00  0.00    +0.000 C 
ATOM      2  C   UNL     1       3.994   5.993  17.406  0.00  0.00    +0.000 A 
ATOM      3  O   UNL     1       3.617   7.003  18.226  0.00  0.00    +0.000 OA
ATOM      4  C   UNL     1       2.691   6.533  19.134  0.00  0.00    +0.000 A 
ATOM      5  C   UNL     1       2.505   5.183  18.852  0.00  0.00    +0.000 A 
ATOM      6  C   UNL     1       3.343   4.828  17.750  0.00  0.00    +0.000 A 
ATOM      7  C   UNL     1       3.505   3.510  17.084  0.00  0.00    +0.000 C 
ENDROOT
BRANCH   4   8
ATOM      8  N   UNL     1       2.133   7.335  20.090  0.00  0.00    +0.000 NA
ATOM      9  C   UNL     1       1.432   8.329  19.634  0.00  0.00    +0.000 C 
BRANCH   9  10
ATOM     10  C   UNL     1       0.754   9.335  20.480  0.00  0.00    +0.000 A 
ATOM     11  C   UNL     1       0.646  10.683  20.126  0.00  0.00    +0.000 A 
ATOM     12  C   UNL     1      -0.020  11.571  20.983  0.00  0.00    +0.000 A 
ATOM     13  C   UNL     1      -0.574  11.109  22.180  0.00  0.00    +0.000 A 
ATOM     14 CL   UNL     1      -1.395  12.197  23.229  0.00  0.00    +0.000 Cl
ATOM     15  C   UNL     1      -0.467   9.766  22.533  0.00  0.00    +0.000 A 
ATOM     16  C   UNL     1       0.197   8.880  21.683  0.00  0.00    +0.000 A 
ENDBRANCH   9  10
ENDBRANCH   4   8
BRANCH   5  17
ATOM     17  C   UNL     1       1.618   4.319  19.561  0.00  0.00    +0.000 C 
ATOM     18  N   UNL     1       0.839   3.659  20.114  0.00  0.00    +0.000 NA
ENDBRANCH   5  17
TORSDOF 3
ENDMDL
MODEL 8
REMARK VINA RESULT:      -6.0      5.910      7.281
REMARK  Name = 
REMARK  5 active torsions:
REMARK  status: ('A' for Active; 'I' for Inactive)
REMARK    1  A    between atoms: C_1  and  C_2
REMARK    2  A    between atoms: C_4  and  N_5
REMARK    3  A    between atoms: C_6  and  C_7
REMARK    4  A    between atoms: C_14  and  C_15
REMARK    5  A    between atoms: C_17  and  C_18
REMARK                            x       y       z     vdW  Elec       q    Type
REMARK                         _______ _______ _______ _____ _____    ______ ____
ROOT
ATOM      1  C   UNL     1       7.249   6.447  16.779  0.00  0.00    +0.000 C 
ATOM      2  C   UNL     1       5.888   5.955  17.086  0.00  0.00    +0.000 A 
ATOM      3  O   UNL     1       5.092   6.788  17.798  0.00  0.00    +0.000 OA
ATOM      4  C   UNL     1       3.860   6.193  17.985  0.00  0.00    +0.000 A 
ATOM      5  C   UNL     1       3.919   4.950  17.362  0.00  0.00    +0.000 A 
ATOM      6  C   UNL     1       5.219   4.788  16.791  0.00  0.00    +0.000 A 
ATOM      7  C   UNL     1       5.770   3.635  16.032  0.00  0.00    +0.000 C 
ENDROOT
BRANCH   4   8
ATOM      8  N   UNL     1       2.851   6.805  18.673  0.00  0.00    +0.000 NA
ATOM      9  C   UNL     1       2.534   7.991  18.247  0.00  0.00    +0.000 C 
BRANCH   9  10
ATOM     10  C   UNL     1       1.489   8.847  18.849  0.00  0.00    +0.000 A 
ATOM     11  C   UNL     1       1.229   8.888  20.222  0.00  0.00    +0.000 A 
ATOM     12  C   UNL     1       0.223   9.733  20.710  0.00  0.00    +0.000 A 
ATOM     13  C   UNL     1      -0.512  10.532  19.829  0.00  0.00    +0.000 A 
ATOM     14 CL   UNL     1      -1.743  11.572  20.428  0.00  0.00    +0.000 Cl
ATOM     15  C   UNL     1      -0.254  10.492  18.461  0.00  0.00    +0.000 A 
ATOM     16  C   UNL     1       0.746   9.650  17.971  0.00  0.00    +0.000 A 
ENDBRANCH   9  10
ENDBRANCH   4   8
BRANCH   5  17
ATOM     17  C   UNL     1       2.844   4.013  17.317  0.00  0.00    +0.000 C 
ATOM     18  N   UNL     1       2.018   3.199  17.255  0.00  0.00    +0.000 NA
ENDBRANCH   5  17
TORSDOF 3
ENDMDL
MODEL 9
REMARK VINA RESULT:      -6.0      3.528      7.129
REMARK  Name = 
REMARK  5 active torsions:
REMARK  status: ('A' for Active; 'I' for Inactive)
REMARK    1  A    between atoms: C_1  and  C_2
REMARK    2  A    between atoms: C_4  and  N_5
REMARK    3  A    between atoms: C_6  and  C_7
REMARK    4  A    between atoms: C_14  and  C_15
REMARK    5  A    between atoms: C_17  and  C_18
REMARK                            x       y       z     vdW  Elec       q    Type
REMARK                         _______ _______ _______ _____ _____    ______ ____
ROOT
ATOM      1  C   UNL     1      11.664  12.879  16.863  0.00  0.00    +0.000 C 
ATOM      2  C   UNL     1      10.895  12.379  18.025  0.00  0.00    +0.000 A 
ATOM      3  O   UNL     1      10.291  11.176  17.875  0.00  0.00    +0.000 OA
ATOM      4  C   UNL     1       9.635  10.847  19.045  0.00  0.00    +0.000 A 
ATOM      5  C   UNL     1       9.851  11.896  19.933  0.00  0.00    +0.000 A 
ATOM      6  C   UNL     1      10.653  12.885  19.283  0.00  0.00    +0.000 A 
ATOM      7  C   UNL     1      11.145  14.184  19.809  0.00  0.00    +0.000 C 
ENDROOT
BRANCH   4   8
ATOM      8  N   UNL     1       8.933   9.683  19.184  0.00  0.00    +0.000 NA
ATOM      9  C   UNL     1       8.527   9.148  18.073  0.00  0.00    +0.000 C 
BRANCH   9  10
ATOM     10  C   UNL     1       7.735   7.902  17.981  0.00  0.00    +0.000 A 
ATOM     11  C   UNL     1       6.619   7.764  17.150  0.00  0.00    +0.000 A 
ATOM     12  C   UNL     1       5.928   6.544  17.118  0.00  0.00    +0.000 A 
ATOM     13  C   UNL     1       6.356   5.474  17.908  0.00  0.00    +0.000 A 
ATOM     14 CL   UNL     1       5.511   3.976  17.865  0.00  0.00    +0.000 Cl
ATOM     15  C   UNL     1       7.468   5.610  18.736  0.00  0.00    +0.000 A 
ATOM     16  C   UNL     1       8.157   6.823  18.772  0.00  0.00    +0.000 A 
ENDBRANCH   9  10
ENDBRANCH   4   8
BRANCH   5  17
ATOM     17  C   UNL     1       9.346  11.949  21.266  0.00  0.00    +0.000 C 
ATOM     18  N   UNL     1       8.881  11.944  22.330  0.00  0.00    +0.000 NA
ENDBRANCH   5  17
TORSDOF 3
ENDMDL
