MODEL 1
REMARK VINA RESULT:      -8.2      0.000      0.000
REMARK  Name = 
REMARK  4 active torsions:
REMARK  status: ('A' for Active; 'I' for Inactive)
REMARK    1  A    between atoms: C_1  and  C_2
REMARK    2  A    between atoms: C_5  and  N_6
REMARK    3  A    between atoms: C_8  and  C_9
REMARK    4  A    between atoms: N_11  and  C_12
REMARK                            x       y       z     vdW  Elec       q    Type
REMARK                         _______ _______ _______ _____ _____    ______ ____
ROOT
ATOM      1  N   UNL     1       5.079   5.401  18.002  0.00  0.00    +0.000 N 
ATOM      2  C   UNL     1       6.449   5.003  17.756  0.00  0.00    +0.000 C 
ATOM      3  C   UNL     1       7.032   6.154  16.974  0.00  0.00    +0.000 C 
ATOM      4  C   UNL     1       5.856   6.743  16.222  0.00  0.00    +0.000 C 
ATOM      5  C   UNL     1       4.673   6.386  17.086  0.00  0.00    +0.000 C 
ATOM      6  O   UNL     1       3.584   6.921  16.954  0.00  0.00    +0.000 OA
ENDROOT
BRANCH   1  11
ATOM      7  C   UNL     1       1.719   2.738  21.849  0.00  0.00    +0.000 C 
ATOM      8  C   UNL     1       2.605   3.440  20.865  0.00  0.00    +0.000 A 
ATOM      9  C   UNL     1       2.483   4.811  20.641  0.00  0.00    +0.000 A 
ATOM     10  C   UNL     1       3.302   5.456  19.708  0.00  0.00    +0.000 A 
ATOM     11  C   UNL     1       4.257   4.752  18.965  0.00  0.00    +0.000 A 
ATOM     12  C   UNL     1       4.377   3.375  19.207  0.00  0.00    +0.000 A 
ATOM     13  C   UNL     1       3.567   2.728  20.149  0.00  0.00    +0.000 A 
ENDBRANCH   1  11
BRANCH   3  14
ATOM     14  C   UNL     1       7.725   7.164  17.879  0.00  0.00    +0.000 C 
ATOM     15  O   UNL     1       8.177   6.769  18.952  0.00  0.00    +0.000 OA
ATOM     16  N   UNL     1       7.755   8.472  17.424  0.00  0.00    +0.000 N 
ATOM     17  H   UNL     1       7.170   8.719  16.629  0.00  0.00    +0.000 HD
BRANCH  16  18
ATOM     18  C   UNL     1       8.378   9.562  18.079  0.00  0.00    +0.000 A 
ATOM     19  C   UNL     1       9.044   9.426  19.314  0.00  0.00    +0.000 A 
ATOM     20  C   UNL     1       9.602  10.531  19.966  0.00  0.00    +0.000 A 
ATOM     21  C   UNL     1       9.478  11.757  19.362  0.00  0.00    +0.000 A 
ATOM     22  C   UNL     1       8.861  11.902  18.142  0.00  0.00    +0.000 A 
ATOM     23  C   UNL     1       8.317  10.824  17.466  0.00  0.00    +0.000 A 
ATOM     24  O   UNL     1       8.844  13.199  17.727  0.00  0.00    +0.000 OA
ATOM     25  C   UNL     1       9.459  13.854  18.859  0.00  0.00    +0.000 C 
ATOM     26  O   UNL     1       9.926  12.937  19.868  0.00  0.00    +0.000 OA
ENDBRANCH  16  18
ENDBRANCH   3  14
TORSDOF 3
ENDMDL
MODEL 2
REMARK VINA RESULT:      -8.1      4.813      7.138
REMARK  Name = 
REMARK  4 active torsions:
REMARK  status: ('A' for Active; 'I' for Inactive)
REMARK    1  A    between atoms: C_1  and  C_2
REMARK    2  A    between atoms: C_5  and  N_6
REMARK    3  A    between atoms: C_8  and  C_9
REMARK    4  A    between atoms: N_11  and  C_12
REMARK                            x       y       z     vdW  Elec       q    Type
REMARK                         _______ _______ _______ _____ _____    ______ ____
ROOT
ATOM      1  N   UNL     1       5.330   4.295  16.988  0.00  0.00    +0.000 N 
ATOM      2  C   UNL     1       4.158   3.527  17.351  0.00  0.00    +0.000 C 
ATOM      3  C   UNL     1       3.772   4.064  18.707  0.00  0.00    +0.000 C 
ATOM      4  C   UNL     1       5.076   4.527  19.324  0.00  0.00    +0.000 C 
ATOM      5  C   UNL     1       5.932   4.856  18.127  0.00  0.00    +0.000 C 
ATOM      6  O   UNL     1       6.953   5.517  18.219  0.00  0.00    +0.000 OA
ENDROOT
BRANCH   1  11
ATOM      7  C   UNL     1       7.403   4.367  11.615  0.00  0.00    +0.000 C 
ATOM      8  C   UNL     1       6.858   4.370  13.011  0.00  0.00    +0.000 A 
ATOM      9  C   UNL     1       7.524   5.032  14.040  0.00  0.00    +0.000 A 
ATOM     10  C   UNL     1       7.017   5.016  15.344  0.00  0.00    +0.000 A 
ATOM     11  C   UNL     1       5.838   4.330  15.660  0.00  0.00    +0.000 A 
ATOM     12  C   UNL     1       5.171   3.676  14.613  0.00  0.00    +0.000 A 
ATOM     13  C   UNL     1       5.670   3.700  13.304  0.00  0.00    +0.000 A 
ENDBRANCH   1  11
BRANCH   3  14
ATOM     14  C   UNL     1       2.735   5.175  18.606  0.00  0.00    +0.000 C 
ATOM     15  O   UNL     1       1.677   4.933  18.026  0.00  0.00    +0.000 OA
ATOM     16  N   UNL     1       3.093   6.396  19.153  0.00  0.00    +0.000 N 
ATOM     17  H   UNL     1       4.065   6.540  19.416  0.00  0.00    +0.000 HD
BRANCH  16  18
ATOM     18  C   UNL     1       2.275   7.551  19.207  0.00  0.00    +0.000 A 
ATOM     19  C   UNL     1       2.053   8.377  18.087  0.00  0.00    +0.000 A 
ATOM     20  C   UNL     1       1.286   9.543  18.183  0.00  0.00    +0.000 A 
ATOM     21  C   UNL     1       0.755   9.858  19.409  0.00  0.00    +0.000 A 
ATOM     22  C   UNL     1       0.935   9.046  20.504  0.00  0.00    +0.000 A 
ATOM     23  C   UNL     1       1.673   7.877  20.433  0.00  0.00    +0.000 A 
ATOM     24  O   UNL     1       0.329   9.544  21.617  0.00  0.00    +0.000 OA
ATOM     25  C   UNL     1      -0.188  10.794  21.108  0.00  0.00    +0.000 C 
ATOM     26  O   UNL     1       0.019  10.965  19.692  0.00  0.00    +0.000 OA
ENDBRANCH  16  18
ENDBRANCH   3  14
TORSDOF 3
ENDMDL
MODEL 3
REMARK VINA RESULT:      -8.0      5.889      8.898
REMARK  Name = 
REMARK  4 active torsions:
REMARK  status: ('A' for Active; 'I' for Inactive)
REMARK    1  A    between atoms: C_1  and  C_2
REMARK    2  A    between atoms: C_5  and  N_6
REMARK    3  A    between atoms: C_8  and  C_9
REMARK    4  A    between atoms: N_11  and  C_12
REMARK                            x       y       z     vdW  Elec       q    Type
REMARK                         _______ _______ _______ _____ _____    ______ ____
ROOT
ATOM      1  N   UNL     1       0.100  11.074  19.746  0.00  0.00    +0.000 N 
ATOM      2  C   UNL     1      -0.246  10.115  18.717  0.00  0.00    +0.000 C 
ATOM      3  C   UNL     1       1.082   9.739  18.106  0.00  0.00    +0.000 C 
ATOM      4  C   UNL     1       1.950  10.966  18.285  0.00  0.00    +0.000 C 
ATOM      5  C   UNL     1       1.362  11.639  19.499  0.00  0.00    +0.000 C 
ATOM      6  O   UNL     1       1.957  12.509  20.115  0.00  0.00    +0.000 OA
ENDROOT
BRANCH   1  11
ATOM      7  C   UNL     1      -3.614  12.558  23.891  0.00  0.00    +0.000 C 
ATOM      8  C   UNL     1      -2.639  12.192  22.813  0.00  0.00    +0.000 A 
ATOM      9  C   UNL     1      -2.801  12.661  21.510  0.00  0.00    +0.000 A 
ATOM     10  C   UNL     1      -1.896  12.302  20.506  0.00  0.00    +0.000 A 
ATOM     11  C   UNL     1      -0.812  11.456  20.769  0.00  0.00    +0.000 A 
ATOM     12  C   UNL     1      -0.654  11.000  22.086  0.00  0.00    +0.000 A 
ATOM     13  C   UNL     1      -1.551  11.367  23.097  0.00  0.00    +0.000 A 
ENDBRANCH   1  11
BRANCH   3  14
ATOM     14  C   UNL     1       1.673   8.493  18.752  0.00  0.00    +0.000 C 
ATOM     15  O   UNL     1       1.649   8.406  19.979  0.00  0.00    +0.000 OA
ATOM     16  N   UNL     1       2.232   7.564  17.889  0.00  0.00    +0.000 N 
ATOM     17  H   UNL     1       2.383   7.836  16.921  0.00  0.00    +0.000 HD
BRANCH  16  18
ATOM     18  C   UNL     1       2.799   6.322  18.265  0.00  0.00    +0.000 A 
ATOM     19  C   UNL     1       4.056   6.222  18.896  0.00  0.00    +0.000 A 
ATOM     20  C   UNL     1       4.619   4.979  19.205  0.00  0.00    +0.000 A 
ATOM     21  C   UNL     1       3.905   3.855  18.870  0.00  0.00    +0.000 A 
ATOM     22  C   UNL     1       2.664   3.936  18.284  0.00  0.00    +0.000 A 
ATOM     23  C   UNL     1       2.075   5.152  17.985  0.00  0.00    +0.000 A 
ATOM     24  O   UNL     1       2.133   2.707  18.034  0.00  0.00    +0.000 OA
ATOM     25  C   UNL     1       3.215   1.851  18.466  0.00  0.00    +0.000 C 
ATOM     26  O   UNL     1       4.312   2.572  19.062  0.00  0.00    +0.000 OA
ENDBRANCH  16  18
ENDBRANCH   3  14
TORSDOF 3
ENDMDL
MODEL 4
REMARK VINA RESULT:      -8.0      4.868      7.035
REMARK  Name = 
REMARK  4 active torsions:
REMARK  status: ('A' for Active; 'I' for Inactive)
REMARK    1  A    between atoms: C_1  and  C_2
REMARK    2  A    between atoms: C_5  and  N_6
REMARK    3  A    between atoms: C_8  and  C_9
REMARK    4  A    between atoms: N_11  and  C_12
REMARK                            x       y       z     vdW  Elec       q    Type
REMARK                         _______ _______ _______ _____ _____    ______ ____
ROOT
ATOM      1  N   UNL     1       5.268   4.193  17.125  0.00  0.00    +0.000 N 
ATOM      2  C   UNL     1       4.044   3.478  17.422  0.00  0.00    +0.000 C 
ATOM      3  C   UNL     1       3.678   3.937  18.812  0.00  0.00    +0.000 C 
ATOM      4  C   UNL     1       5.002   4.267  19.470  0.00  0.00    +0.000 C 
ATOM      5  C   UNL     1       5.891   4.628  18.307  0.00  0.00    +0.000 C 
ATOM      6  O   UNL     1       6.953   5.212  18.454  0.00  0.00    +0.000 OA
ENDROOT
BRANCH   1  11
ATOM      7  C   UNL     1       7.412   4.527  11.790  0.00  0.00    +0.000 C 
ATOM      8  C   UNL     1       6.847   4.461  13.176  0.00  0.00    +0.000 A 
ATOM      9  C   UNL     1       7.460   5.130  14.233  0.00  0.00    +0.000 A 
ATOM     10  C   UNL     1       6.936   5.050  15.528  0.00  0.00    +0.000 A 
ATOM     11  C   UNL     1       5.793   4.292  15.807  0.00  0.00    +0.000 A 
ATOM     12  C   UNL     1       5.178   3.632  14.732  0.00  0.00    +0.000 A 
ATOM     13  C   UNL     1       5.693   3.719  13.433  0.00  0.00    +0.000 A 
ENDBRANCH   1  11
BRANCH   3  14
ATOM     14  C   UNL     1       2.716   5.118  18.786  0.00  0.00    +0.000 C 
ATOM     15  O   UNL     1       1.821   5.121  17.943  0.00  0.00    +0.000 OA
ATOM     16  N   UNL     1       2.959   6.123  19.708  0.00  0.00    +0.000 N 
ATOM     17  H   UNL     1       3.844   6.113  20.209  0.00  0.00    +0.000 HD
BRANCH  16  18
ATOM     18  C   UNL     1       2.174   7.288  19.889  0.00  0.00    +0.000 A 
ATOM     19  C   UNL     1       1.424   7.523  21.060  0.00  0.00    +0.000 A 
ATOM     20  C   UNL     1       0.612   8.655  21.189  0.00  0.00    +0.000 A 
ATOM     21  C   UNL     1       0.568   9.532  20.134  0.00  0.00    +0.000 A 
ATOM     22  C   UNL     1       1.318   9.334  18.999  0.00  0.00    +0.000 A 
ATOM     23  C   UNL     1       2.144   8.233  18.852  0.00  0.00    +0.000 A 
ATOM     24  O   UNL     1       1.124  10.318  18.078  0.00  0.00    +0.000 OA
ATOM     25  C   UNL     1       0.115  11.113  18.739  0.00  0.00    +0.000 C 
ATOM     26  O   UNL     1      -0.190  10.658  20.072  0.00  0.00    +0.000 OA
ENDBRANCH  16  18
ENDBRANCH   3  14
TORSDOF 3
ENDMDL
MODEL 5
REMARK VINA RESULT:      -7.9      4.997      6.782
REMARK  Name = 
REMARK  4 active torsions:
REMARK  status: ('A' for Active; 'I' for Inactive)
REMARK    1  A    between atoms: C_1  and  C_2
REMARK    2  A    between atoms: C_5  and  N_6
REMARK    3  A    between atoms: C_8  and  C_9
REMARK    4  A    between atoms: N_11  and  C_12
REMARK                            x       y       z     vdW  Elec       q    Type
REMARK                         _______ _______ _______ _____ _____    ______ ____
ROOT
ATOM      1  N   UNL     1       2.745   5.577  19.745  0.00  0.00    +0.000 N 
ATOM      2  C   UNL     1       4.171   5.332  19.797  0.00  0.00    +0.000 C 
ATOM      3  C   UNL     1       4.304   3.865  19.469  0.00  0.00    +0.000 C 
ATOM      4  C   UNL     1       3.015   3.242  19.962  0.00  0.00    +0.000 C 
ATOM      5  C   UNL     1       2.026   4.378  19.894  0.00  0.00    +0.000 C 
ATOM      6  O   UNL     1       0.821   4.198  19.950  0.00  0.00    +0.000 OA
ENDROOT
BRANCH   1  11
ATOM      7  C   UNL     1       0.467  10.863  19.529  0.00  0.00    +0.000 C 
ATOM      8  C   UNL     1       1.080   9.496  19.586  0.00  0.00    +0.000 A 
ATOM      9  C   UNL     1       1.727   8.954  18.477  0.00  0.00    +0.000 A 
ATOM     10  C   UNL     1       2.282   7.671  18.533  0.00  0.00    +0.000 A 
ATOM     11  C   UNL     1       2.198   6.889  19.691  0.00  0.00    +0.000 A 
ATOM     12  C   UNL     1       1.553   7.450  20.803  0.00  0.00    +0.000 A 
ATOM     13  C   UNL     1       1.006   8.739  20.755  0.00  0.00    +0.000 A 
ENDBRANCH   1  11
BRANCH   3  14
ATOM     14  C   UNL     1       4.546   3.634  17.983  0.00  0.00    +0.000 C 
ATOM     15  O   UNL     1       3.945   2.712  17.432  0.00  0.00    +0.000 OA
ATOM     16  N   UNL     1       5.467   4.472  17.376  0.00  0.00    +0.000 N 
ATOM     17  H   UNL     1       6.053   5.054  17.970  0.00  0.00    +0.000 HD
BRANCH  16  18
ATOM     18  C   UNL     1       5.816   4.463  16.004  0.00  0.00    +0.000 A 
ATOM     19  C   UNL     1       5.102   3.717  15.044  0.00  0.00    +0.000 A 
ATOM     20  C   UNL     1       5.503   3.681  13.704  0.00  0.00    +0.000 A 
ATOM     21  C   UNL     1       6.619   4.400  13.354  0.00  0.00    +0.000 A 
ATOM     22  C   UNL     1       7.307   5.159  14.271  0.00  0.00    +0.000 A 
ATOM     23  C   UNL     1       6.922   5.227  15.598  0.00  0.00    +0.000 A 
ATOM     24  O   UNL     1       8.381   5.785  13.716  0.00  0.00    +0.000 OA
ATOM     25  C   UNL     1       8.325   5.274  12.365  0.00  0.00    +0.000 C 
ATOM     26  O   UNL     1       7.170   4.450  12.112  0.00  0.00    +0.000 OA
ENDBRANCH  16  18
ENDBRANCH   3  14
TORSDOF 3
ENDMDL
MODEL 6
REMARK VINA RESULT:      -7.9      1.335      1.888
REMARK  Name = 
REMARK  4 active torsions:
REMARK  status: ('A' for Active; 'I' for Inactive)
REMARK    1  A    between atoms: C_1  and  C_2
REMARK    2  A    between atoms: C_5  and  N_6
REMARK    3  A    between atoms: C_8  and  C_9
REMARK    4  A    between atoms: N_11  and  C_12
REMARK                            x       y       z     vdW  Elec       q    Type
REMARK                         _______ _______ _______ _____ _____    ______ ____
ROOT
ATOM      1  N   UNL     1       5.747   5.524  18.059  0.00  0.00    +0.000 N 
ATOM      2  C   UNL     1       6.976   5.747  18.792  0.00  0.00    +0.000 C 
ATOM      3  C   UNL     1       7.881   6.424  17.793  0.00  0.00    +0.000 C 
ATOM      4  C   UNL     1       7.428   5.901  16.445  0.00  0.00    +0.000 C 
ATOM      5  C   UNL     1       5.979   5.552  16.674  0.00  0.00    +0.000 C 
ATOM      6  O   UNL     1       5.203   5.357  15.753  0.00  0.00    +0.000 OA
ENDROOT
BRANCH   1  11
ATOM      7  C   UNL     1       0.782   4.121  20.620  0.00  0.00    +0.000 C 
ATOM      8  C   UNL     1       2.080   4.497  19.971  0.00  0.00    +0.000 A 
ATOM      9  C   UNL     1       2.292   5.787  19.487  0.00  0.00    +0.000 A 
ATOM     10  C   UNL     1       3.500   6.127  18.868  0.00  0.00    +0.000 A 
ATOM     11  C   UNL     1       4.525   5.187  18.704  0.00  0.00    +0.000 A 
ATOM     12  C   UNL     1       4.303   3.896  19.206  0.00  0.00    +0.000 A 
ATOM     13  C   UNL     1       3.100   3.555  19.837  0.00  0.00    +0.000 A 
ENDBRANCH   1  11
BRANCH   3  14
ATOM     14  C   UNL     1       7.809   7.942  17.896  0.00  0.00    +0.000 C 
ATOM     15  O   UNL     1       6.892   8.522  17.316  0.00  0.00    +0.000 OA
ATOM     16  N   UNL     1       8.821   8.554  18.617  0.00  0.00    +0.000 N 
ATOM     17  H   UNL     1       9.634   7.999  18.872  0.00  0.00    +0.000 HD
BRANCH  16  18
ATOM     18  C   UNL     1       8.931   9.942  18.875  0.00  0.00    +0.000 A 
ATOM     19  C   UNL     1       8.764  10.917  17.869  0.00  0.00    +0.000 A 
ATOM     20  C   UNL     1       8.934  12.279  18.140  0.00  0.00    +0.000 A 
ATOM     21  C   UNL     1       9.271  12.637  19.422  0.00  0.00    +0.000 A 
ATOM     22  C   UNL     1       9.404  11.702  20.421  0.00  0.00    +0.000 A 
ATOM     23  C   UNL     1       9.223  10.350  20.186  0.00  0.00    +0.000 A 
ATOM     24  O   UNL     1       9.744  12.269  21.611  0.00  0.00    +0.000 OA
ATOM     25  C   UNL     1       9.877  13.655  21.224  0.00  0.00    +0.000 C 
ATOM     26  O   UNL     1       9.509  13.904  19.852  0.00  0.00    +0.000 OA
ENDBRANCH  16  18
ENDBRANCH   3  14
TORSDOF 3
ENDMDL
MODEL 7
REMARK VINA RESULT:      -7.9      4.642      7.089
REMARK  Name = 
REMARK  4 active torsions:
REMARK  status: ('A' for Active; 'I' for Inactive)
REMARK    1  A    between atoms: C_1  and  C_2
REMARK    2  A    between atoms: C_5  and  N_6
REMARK    3  A    between atoms: C_8  and  C_9
REMARK    4  A    between atoms: N_11  and  C_12
REMARK                            x       y       z     vdW  Elec       q    Type
REMARK                         _______ _______ _______ _____ _____    ______ ____
ROOT
ATOM      1  N   UNL     1       5.353   4.506  17.297  0.00  0.00    +0.000 N 
ATOM      2  C   UNL     1       4.170   3.780  17.711  0.00  0.00    +0.000 C 
ATOM      3  C   UNL     1       3.829   4.371  19.056  0.00  0.00    +0.000 C 
ATOM      4  C   UNL     1       5.158   4.820  19.629  0.00  0.00    +0.000 C 
ATOM      5  C   UNL     1       5.995   5.088  18.404  0.00  0.00    +0.000 C 
ATOM      6  O   UNL     1       7.035   5.724  18.451  0.00  0.00    +0.000 OA
ENDROOT
BRANCH   1  11
ATOM      7  C   UNL     1       7.282   4.481  11.870  0.00  0.00    +0.000 C 
ATOM      8  C   UNL     1       6.786   4.466  13.284  0.00  0.00    +0.000 A 
ATOM      9  C   UNL     1       5.606   3.807  13.624  0.00  0.00    +0.000 A 
ATOM     10  C   UNL     1       5.141   3.811  14.943  0.00  0.00    +0.000 A 
ATOM     11  C   UNL     1       5.833   4.483  15.958  0.00  0.00    +0.000 A 
ATOM     12  C   UNL     1       7.024   5.134  15.606  0.00  0.00    +0.000 A 
ATOM     13  C   UNL     1       7.499   5.122  14.288  0.00  0.00    +0.000 A 
ENDBRANCH   1  11
BRANCH   3  14
ATOM     14  C   UNL     1       2.818   5.505  18.941  0.00  0.00    +0.000 C 
ATOM     15  O   UNL     1       2.071   5.521  17.964  0.00  0.00    +0.000 OA
ATOM     16  N   UNL     1       2.854   6.459  19.945  0.00  0.00    +0.000 N 
ATOM     17  H   UNL     1       3.646   6.458  20.582  0.00  0.00    +0.000 HD
BRANCH  16  18
ATOM     18  C   UNL     1       1.985   7.572  20.060  0.00  0.00    +0.000 A 
ATOM     19  C   UNL     1       1.157   7.775  21.183  0.00  0.00    +0.000 A 
ATOM     20  C   UNL     1       0.267   8.852  21.246  0.00  0.00    +0.000 A 
ATOM     21  C   UNL     1       0.225   9.708  20.174  0.00  0.00    +0.000 A 
ATOM     22  C   UNL     1       1.049   9.543  19.086  0.00  0.00    +0.000 A 
ATOM     23  C   UNL     1       1.953   8.498  19.005  0.00  0.00    +0.000 A 
ATOM     24  O   UNL     1       0.844  10.498  18.137  0.00  0.00    +0.000 OA
ATOM     25  C   UNL     1      -0.251  11.235  18.726  0.00  0.00    +0.000 C 
ATOM     26  O   UNL     1      -0.600  10.781  20.049  0.00  0.00    +0.000 OA
ENDBRANCH  16  18
ENDBRANCH   3  14
TORSDOF 3
ENDMDL
MODEL 8
REMARK VINA RESULT:      -7.8      4.949      6.882
REMARK  Name = 
REMARK  4 active torsions:
REMARK  status: ('A' for Active; 'I' for Inactive)
REMARK    1  A    between atoms: C_1  and  C_2
REMARK    2  A    between atoms: C_5  and  N_6
REMARK    3  A    between atoms: C_8  and  C_9
REMARK    4  A    between atoms: N_11  and  C_12
REMARK                            x       y       z     vdW  Elec       q    Type
REMARK                         _______ _______ _______ _____ _____    ______ ____
ROOT
ATOM      1  N   UNL     1       2.754   5.789  19.120  0.00  0.00    +0.000 N 
ATOM      2  C   UNL     1       3.913   5.421  19.906  0.00  0.00    +0.000 C 
ATOM      3  C   UNL     1       4.331   4.085  19.342  0.00  0.00    +0.000 C 
ATOM      4  C   UNL     1       3.046   3.464  18.832  0.00  0.00    +0.000 C 
ATOM      5  C   UNL     1       2.181   4.658  18.515  0.00  0.00    +0.000 C 
ATOM      6  O   UNL     1       1.177   4.571  17.828  0.00  0.00    +0.000 OA
ENDROOT
BRANCH   1  11
ATOM      7  C   UNL     1       0.687  11.165  19.073  0.00  0.00    +0.000 C 
ATOM      8  C   UNL     1       1.205   9.759  19.086  0.00  0.00    +0.000 A 
ATOM      9  C   UNL     1       1.158   8.988  20.246  0.00  0.00    +0.000 A 
ATOM     10  C   UNL     1       1.658   7.681  20.255  0.00  0.00    +0.000 A 
ATOM     11  C   UNL     1       2.229   7.111  19.110  0.00  0.00    +0.000 A 
ATOM     12  C   UNL     1       2.260   7.893  17.946  0.00  0.00    +0.000 A 
ATOM     13  C   UNL     1       1.749   9.197  17.931  0.00  0.00    +0.000 A 
ENDBRANCH   1  11
BRANCH   3  14
ATOM     14  C   UNL     1       5.391   4.231  18.258  0.00  0.00    +0.000 C 
ATOM     15  O   UNL     1       6.572   4.257  18.600  0.00  0.00    +0.000 OA
ATOM     16  N   UNL     1       4.925   4.360  16.960  0.00  0.00    +0.000 N 
ATOM     17  H   UNL     1       3.933   4.535  16.820  0.00  0.00    +0.000 HD
BRANCH  16  18
ATOM     18  C   UNL     1       5.728   4.467  15.799  0.00  0.00    +0.000 A 
ATOM     19  C   UNL     1       6.816   5.358  15.708  0.00  0.00    +0.000 A 
ATOM     20  C   UNL     1       7.558   5.484  14.528  0.00  0.00    +0.000 A 
ATOM     21  C   UNL     1       7.189   4.708  13.458  0.00  0.00    +0.000 A 
ATOM     22  C   UNL     1       6.151   3.810  13.540  0.00  0.00    +0.000 A 
ATOM     23  C   UNL     1       5.413   3.652  14.700  0.00  0.00    +0.000 A 
ATOM     24  O   UNL     1       5.952   3.148  12.367  0.00  0.00    +0.000 OA
ATOM     25  C   UNL     1       6.937   3.786  11.524  0.00  0.00    +0.000 C 
ATOM     26  O   UNL     1       7.771   4.727  12.230  0.00  0.00    +0.000 OA
ENDBRANCH  16  18
ENDBRANCH   3  14
TORSDOF 3
ENDMDL
MODEL 9
REMARK VINA RESULT:      -7.8      1.266      1.423
REMARK  Name = 
REMARK  4 active torsions:
REMARK  status: ('A' for Active; 'I' for Inactive)
REMARK    1  A    between atoms: C_1  and  C_2
REMARK    2  A    between atoms: C_5  and  N_6
REMARK    3  A    between atoms: C_8  and  C_9
REMARK    4  A    between atoms: N_11  and  C_12
REMARK                            x       y       z     vdW  Elec       q    Type
REMARK                         _______ _______ _______ _____ _____    ______ ____
ROOT
ATOM      1  N   UNL     1       5.784   5.657  18.074  0.00  0.00    +0.000 N 
ATOM      2  C   UNL     1       7.025   5.820  18.801  0.00  0.00    +0.000 C 
ATOM      3  C   UNL     1       7.934   6.524  17.823  0.00  0.00    +0.000 C 
ATOM      4  C   UNL     1       7.455   6.073  16.459  0.00  0.00    +0.000 C 
ATOM      5  C   UNL     1       6.001   5.744  16.689  0.00  0.00    +0.000 C 
ATOM      6  O   UNL     1       5.211   5.607  15.769  0.00  0.00    +0.000 OA
ENDROOT
BRANCH   1  11
ATOM      7  C   UNL     1       0.822   4.236  20.631  0.00  0.00    +0.000 C 
ATOM      8  C   UNL     1       2.118   4.618  19.983  0.00  0.00    +0.000 A 
ATOM      9  C   UNL     1       2.307   5.893  19.453  0.00  0.00    +0.000 A 
ATOM     10  C   UNL     1       3.514   6.237  18.835  0.00  0.00    +0.000 A 
ATOM     11  C   UNL     1       4.562   5.316  18.718  0.00  0.00    +0.000 A 
ATOM     12  C   UNL     1       4.364   4.040  19.265  0.00  0.00    +0.000 A 
ATOM     13  C   UNL     1       3.161   3.696  19.895  0.00  0.00    +0.000 A 
ENDBRANCH   1  11
BRANCH   3  14
ATOM     14  C   UNL     1       7.894   8.037  17.996  0.00  0.00    +0.000 C 
ATOM     15  O   UNL     1       7.005   8.665  17.424  0.00  0.00    +0.000 OA
ATOM     16  N   UNL     1       8.904   8.590  18.767  0.00  0.00    +0.000 N 
ATOM     17  H   UNL     1       9.698   8.004  19.013  0.00  0.00    +0.000 HD
BRANCH  16  18
ATOM     18  C   UNL     1       9.040   9.961  19.092  0.00  0.00    +0.000 A 
ATOM     19  C   UNL     1       9.108  10.423  20.423  0.00  0.00    +0.000 A 
ATOM     20  C   UNL     1       9.186  11.788  20.717  0.00  0.00    +0.000 A 
ATOM     21  C   UNL     1       9.193  12.668  19.663  0.00  0.00    +0.000 A 
ATOM     22  C   UNL     1       9.160  12.233  18.359  0.00  0.00    +0.000 A 
ATOM     23  C   UNL     1       9.102  10.888  18.039  0.00  0.00    +0.000 A 
ATOM     24  O   UNL     1       9.171  13.267  17.474  0.00  0.00    +0.000 OA
ATOM     25  C   UNL     1       9.143  14.397  18.374  0.00  0.00    +0.000 C 
ATOM     26  O   UNL     1       9.227  14.023  19.764  0.00  0.00    +0.000 OA
ENDBRANCH  16  18
ENDBRANCH   3  14
TORSDOF 3
ENDMDL
