MODEL 1
REMARK VINA RESULT:      -7.0      0.000      0.000
REMARK  Name = 
REMARK  8 active torsions:
REMARK  status: ('A' for Active; 'I' for Inactive)
REMARK    1  A    between atoms: C_1  and  O_2
REMARK    2  A    between atoms: O_2  and  C_3
REMARK    3  A    between atoms: C_3  and  C_4
REMARK    4  A    between atoms: C_4  and  C_5
REMARK    5  A    between atoms: C_5  and  N_6
REMARK    6  A    between atoms: N_15  and  C_16
REMARK    7  A    between atoms: C_16  and  C_17
REMARK    8  A    between atoms: C_22  and  C_23
REMARK                            x       y       z     vdW  Elec       q    Type
REMARK                         _______ _______ _______ _____ _____    ______ ____
ROOT
ATOM      1  N   UNL     1       4.134   4.995  17.023  0.00  0.00    +0.000 N 
ATOM      2  C   UNL     1       3.554   3.757  17.271  0.00  0.00    +0.000 A 
ATOM      3  O   UNL     1       3.821   2.732  16.658  0.00  0.00    +0.000 OA
ATOM      4  C   UNL     1       2.571   3.698  18.365  0.00  0.00    +0.000 A 
ATOM      5  C   UNL     1       1.852   2.510  18.580  0.00  0.00    +0.000 A 
ATOM      6  C   UNL     1       0.909   2.439  19.600  0.00  0.00    +0.000 A 
ATOM      7  C   UNL     1       0.693   3.548  20.407  0.00  0.00    +0.000 A 
ATOM      8  C   UNL     1       1.417   4.730  20.197  0.00  0.00    +0.000 A 
ATOM      9  C   UNL     1       2.365   4.822  19.165  0.00  0.00    +0.000 A 
ATOM     10  N   UNL     1       3.145   5.989  18.935  0.00  0.00    +0.000 N 
ATOM     11  C   UNL     1       4.114   6.044  17.937  0.00  0.00    +0.000 A 
ATOM     12  O   UNL     1       4.913   6.981  17.872  0.00  0.00    +0.000 OA
ENDROOT
BRANCH   1  13
ATOM     13  C   UNL     1       5.078   5.096  15.906  0.00  0.00    +0.000 C 
BRANCH  13  14
ATOM     14  C   UNL     1       6.311   4.190  16.049  0.00  0.00    +0.000 C 
BRANCH  14  15
ATOM     15  C   UNL     1       7.421   4.904  16.816  0.00  0.00    +0.000 C 
BRANCH  15  17
ATOM     16  C   UNL     1       7.762   5.521  19.073  0.00  0.00    +0.000 C 
ATOM     17  O   UNL     1       7.370   4.490  18.179  0.00  0.00    +0.000 OA
ENDBRANCH  15  17
ENDBRANCH  14  15
ENDBRANCH  13  14
ENDBRANCH   1  13
BRANCH  10  18
ATOM     18  C   UNL     1       2.985   7.189  19.765  0.00  0.00    +0.000 C 
BRANCH  18  19
ATOM     19  C   UNL     1       1.931   8.187  19.312  0.00  0.00    +0.000 A 
ATOM     20  C   UNL     1       1.736   8.475  17.950  0.00  0.00    +0.000 A 
ATOM     21  C   UNL     1       0.814   9.438  17.539  0.00  0.00    +0.000 A 
ATOM     22  C   UNL     1       0.048  10.112  18.480  0.00  0.00    +0.000 A 
ATOM     23  C   UNL     1       0.182   9.803  19.831  0.00  0.00    +0.000 A 
ATOM     24  C   UNL     1       1.107   8.837  20.263  0.00  0.00    +0.000 A 
ATOM     25  C   UNL     1       1.193   8.531  21.735  0.00  0.00    +0.000 C 
ENDBRANCH  18  19
ENDBRANCH  10  18
TORSDOF 6
ENDMDL
MODEL 2
REMARK VINA RESULT:      -7.0      1.305      1.954
REMARK  Name = 
REMARK  8 active torsions:
REMARK  status: ('A' for Active; 'I' for Inactive)
REMARK    1  A    between atoms: C_1  and  O_2
REMARK    2  A    between atoms: O_2  and  C_3
REMARK    3  A    between atoms: C_3  and  C_4
REMARK    4  A    between atoms: C_4  and  C_5
REMARK    5  A    between atoms: C_5  and  N_6
REMARK    6  A    between atoms: N_15  and  C_16
REMARK    7  A    between atoms: C_16  and  C_17
REMARK    8  A    between atoms: C_22  and  C_23
REMARK                            x       y       z     vdW  Elec       q    Type
REMARK                         _______ _______ _______ _____ _____    ______ ____
ROOT
ATOM      1  N   UNL     1       4.710   4.570  17.572  0.00  0.00    +0.000 N 
ATOM      2  C   UNL     1       4.018   3.365  17.531  0.00  0.00    +0.000 A 
ATOM      3  O   UNL     1       4.390   2.373  16.917  0.00  0.00    +0.000 OA
ATOM      4  C   UNL     1       2.767   3.297  18.304  0.00  0.00    +0.000 A 
ATOM      5  C   UNL     1       1.955   2.156  18.197  0.00  0.00    +0.000 A 
ATOM      6  C   UNL     1       0.762   2.078  18.910  0.00  0.00    +0.000 A 
ATOM      7  C   UNL     1       0.389   3.135  19.731  0.00  0.00    +0.000 A 
ATOM      8  C   UNL     1       1.205   4.268  19.843  0.00  0.00    +0.000 A 
ATOM      9  C   UNL     1       2.407   4.367  19.123  0.00  0.00    +0.000 A 
ATOM     10  N   UNL     1       3.281   5.483  19.229  0.00  0.00    +0.000 N 
ATOM     11  C   UNL     1       4.492   5.541  18.543  0.00  0.00    +0.000 A 
ATOM     12  O   UNL     1       5.326   6.415  18.791  0.00  0.00    +0.000 OA
ENDROOT
BRANCH   1  13
ATOM     13  C   UNL     1       5.932   4.683  16.770  0.00  0.00    +0.000 C 
BRANCH  13  14
ATOM     14  C   UNL     1       5.730   5.402  15.427  0.00  0.00    +0.000 C 
BRANCH  14  15
ATOM     15  C   UNL     1       6.565   4.746  14.331  0.00  0.00    +0.000 C 
BRANCH  15  17
ATOM     16  C   UNL     1       6.308   3.442  12.375  0.00  0.00    +0.000 C 
ATOM     17  O   UNL     1       5.737   3.833  13.614  0.00  0.00    +0.000 OA
ENDBRANCH  15  17
ENDBRANCH  14  15
ENDBRANCH  13  14
ENDBRANCH   1  13
BRANCH  10  18
ATOM     18  C   UNL     1       2.961   6.623  20.097  0.00  0.00    +0.000 C 
BRANCH  18  19
ATOM     19  C   UNL     1       2.157   7.748  19.463  0.00  0.00    +0.000 A 
ATOM     20  C   UNL     1       2.184   7.974  18.076  0.00  0.00    +0.000 A 
ATOM     21  C   UNL     1       1.499   9.046  17.504  0.00  0.00    +0.000 A 
ATOM     22  C   UNL     1       0.749   9.897  18.304  0.00  0.00    +0.000 A 
ATOM     23  C   UNL     1       0.659   9.659  19.674  0.00  0.00    +0.000 A 
ATOM     24  C   UNL     1       1.345   8.586  20.267  0.00  0.00    +0.000 A 
ATOM     25  C   UNL     1       1.194   8.367  21.750  0.00  0.00    +0.000 C 
ENDBRANCH  18  19
ENDBRANCH  10  18
TORSDOF 6
ENDMDL
MODEL 3
REMARK VINA RESULT:      -6.7      1.490      2.522
REMARK  Name = 
REMARK  8 active torsions:
REMARK  status: ('A' for Active; 'I' for Inactive)
REMARK    1  A    between atoms: C_1  and  O_2
REMARK    2  A    between atoms: O_2  and  C_3
REMARK    3  A    between atoms: C_3  and  C_4
REMARK    4  A    between atoms: C_4  and  C_5
REMARK    5  A    between atoms: C_5  and  N_6
REMARK    6  A    between atoms: N_15  and  C_16
REMARK    7  A    between atoms: C_16  and  C_17
REMARK    8  A    between atoms: C_22  and  C_23
REMARK                            x       y       z     vdW  Elec       q    Type
REMARK                         _______ _______ _______ _____ _____    ______ ____
ROOT
ATOM      1  N   UNL     1       4.821   5.752  18.126  0.00  0.00    +0.000 N 
ATOM      2  C   UNL     1       4.893   4.639  18.955  0.00  0.00    +0.000 A 
ATOM      3  O   UNL     1       5.916   4.001  19.169  0.00  0.00    +0.000 OA
ATOM      4  C   UNL     1       3.647   4.234  19.624  0.00  0.00    +0.000 A 
ATOM      5  C   UNL     1       3.622   3.043  20.368  0.00  0.00    +0.000 A 
ATOM      6  C   UNL     1       2.450   2.636  20.998  0.00  0.00    +0.000 A 
ATOM      7  C   UNL     1       1.311   3.423  20.891  0.00  0.00    +0.000 A 
ATOM      8  C   UNL     1       1.339   4.616  20.156  0.00  0.00    +0.000 A 
ATOM      9  C   UNL     1       2.511   5.035  19.506  0.00  0.00    +0.000 A 
ATOM     10  N   UNL     1       2.596   6.253  18.776  0.00  0.00    +0.000 N 
ATOM     11  C   UNL     1       3.781   6.675  18.178  0.00  0.00    +0.000 A 
ATOM     12  O   UNL     1       3.895   7.813  17.718  0.00  0.00    +0.000 OA
ENDROOT
BRANCH   1  13
ATOM     13  C   UNL     1       6.034   6.148  17.405  0.00  0.00    +0.000 C 
BRANCH  13  14
ATOM     14  C   UNL     1       6.065   5.687  15.939  0.00  0.00    +0.000 C 
BRANCH  14  15
ATOM     15  C   UNL     1       6.935   4.443  15.780  0.00  0.00    +0.000 C 
BRANCH  15  17
ATOM     16  C   UNL     1       6.163   3.914  13.609  0.00  0.00    +0.000 C 
ATOM     17  O   UNL     1       6.239   3.503  14.965  0.00  0.00    +0.000 OA
ENDBRANCH  15  17
ENDBRANCH  14  15
ENDBRANCH  13  14
ENDBRANCH   1  13
BRANCH  10  18
ATOM     18  C   UNL     1       1.437   7.144  18.642  0.00  0.00    +0.000 C 
BRANCH  18  19
ATOM     19  C   UNL     1       1.291   8.225  19.701  0.00  0.00    +0.000 A 
ATOM     20  C   UNL     1       1.406   7.928  21.070  0.00  0.00    +0.000 A 
ATOM     21  C   UNL     1       1.208   8.907  22.043  0.00  0.00    +0.000 A 
ATOM     22  C   UNL     1       0.920  10.212  21.666  0.00  0.00    +0.000 A 
ATOM     23  C   UNL     1       0.859  10.544  20.314  0.00  0.00    +0.000 A 
ATOM     24  C   UNL     1       1.053   9.569  19.322  0.00  0.00    +0.000 A 
ATOM     25  C   UNL     1       0.994   9.992  17.877  0.00  0.00    +0.000 C 
ENDBRANCH  18  19
ENDBRANCH  10  18
TORSDOF 6
ENDMDL
MODEL 4
REMARK VINA RESULT:      -6.7      1.948      3.840
REMARK  Name = 
REMARK  8 active torsions:
REMARK  status: ('A' for Active; 'I' for Inactive)
REMARK    1  A    between atoms: C_1  and  O_2
REMARK    2  A    between atoms: O_2  and  C_3
REMARK    3  A    between atoms: C_3  and  C_4
REMARK    4  A    between atoms: C_4  and  C_5
REMARK    5  A    between atoms: C_5  and  N_6
REMARK    6  A    between atoms: N_15  and  C_16
REMARK    7  A    between atoms: C_16  and  C_17
REMARK    8  A    between atoms: C_22  and  C_23
REMARK                            x       y       z     vdW  Elec       q    Type
REMARK                         _______ _______ _______ _____ _____    ______ ____
ROOT
ATOM      1  N   UNL     1       1.845   3.912  19.170  0.00  0.00    +0.000 N 
ATOM      2  C   UNL     1       2.492   3.560  17.992  0.00  0.00    +0.000 A 
ATOM      3  O   UNL     1       2.306   2.512  17.386  0.00  0.00    +0.000 OA
ATOM      4  C   UNL     1       3.445   4.540  17.445  0.00  0.00    +0.000 A 
ATOM      5  C   UNL     1       4.228   4.190  16.333  0.00  0.00    +0.000 A 
ATOM      6  C   UNL     1       5.144   5.098  15.810  0.00  0.00    +0.000 A 
ATOM      7  C   UNL     1       5.268   6.352  16.392  0.00  0.00    +0.000 A 
ATOM      8  C   UNL     1       4.480   6.703  17.496  0.00  0.00    +0.000 A 
ATOM      9  C   UNL     1       3.558   5.795  18.043  0.00  0.00    +0.000 A 
ATOM     10  N   UNL     1       2.715   6.118  19.142  0.00  0.00    +0.000 N 
ATOM     11  C   UNL     1       1.774   5.220  19.639  0.00  0.00    +0.000 A 
ATOM     12  O   UNL     1       0.922   5.574  20.457  0.00  0.00    +0.000 OA
ENDROOT
BRANCH   1  13
ATOM     13  C   UNL     1       0.930   2.934  19.765  0.00  0.00    +0.000 C 
BRANCH  13  14
ATOM     14  C   UNL     1       1.364   2.441  21.154  0.00  0.00    +0.000 C 
BRANCH  14  15
ATOM     15  C   UNL     1       2.729   3.009  21.529  0.00  0.00    +0.000 C 
BRANCH  15  17
ATOM     16  C   UNL     1       4.582   2.024  20.438  0.00  0.00    +0.000 C 
ATOM     17  O   UNL     1       3.679   1.946  21.531  0.00  0.00    +0.000 OA
ENDBRANCH  15  17
ENDBRANCH  14  15
ENDBRANCH  13  14
ENDBRANCH   1  13
BRANCH  10  18
ATOM     18  C   UNL     1       2.778   7.433  19.790  0.00  0.00    +0.000 C 
BRANCH  18  19
ATOM     19  C   UNL     1       1.704   8.434  19.391  0.00  0.00    +0.000 A 
ATOM     20  C   UNL     1       1.447   8.730  18.041  0.00  0.00    +0.000 A 
ATOM     21  C   UNL     1       0.508   9.695  17.678  0.00  0.00    +0.000 A 
ATOM     22  C   UNL     1      -0.215  10.363  18.656  0.00  0.00    +0.000 A 
ATOM     23  C   UNL     1      -0.020  10.046  19.999  0.00  0.00    +0.000 A 
ATOM     24  C   UNL     1       0.924   9.078  20.382  0.00  0.00    +0.000 A 
ATOM     25  C   UNL     1       1.077   8.763  21.847  0.00  0.00    +0.000 C 
ENDBRANCH  18  19
ENDBRANCH  10  18
TORSDOF 6
ENDMDL
MODEL 5
REMARK VINA RESULT:      -6.7      1.122      1.598
REMARK  Name = 
REMARK  8 active torsions:
REMARK  status: ('A' for Active; 'I' for Inactive)
REMARK    1  A    between atoms: C_1  and  O_2
REMARK    2  A    between atoms: O_2  and  C_3
REMARK    3  A    between atoms: C_3  and  C_4
REMARK    4  A    between atoms: C_4  and  C_5
REMARK    5  A    between atoms: C_5  and  N_6
REMARK    6  A    between atoms: N_15  and  C_16
REMARK    7  A    between atoms: C_16  and  C_17
REMARK    8  A    between atoms: C_22  and  C_23
REMARK                            x       y       z     vdW  Elec       q    Type
REMARK                         _______ _______ _______ _____ _____    ______ ____
ROOT
ATOM      1  N   UNL     1       4.082   5.550  17.033  0.00  0.00    +0.000 N 
ATOM      2  C   UNL     1       3.634   4.243  17.178  0.00  0.00    +0.000 A 
ATOM      3  O   UNL     1       4.010   3.301  16.493  0.00  0.00    +0.000 OA
ATOM      4  C   UNL     1       2.657   3.998  18.251  0.00  0.00    +0.000 A 
ATOM      5  C   UNL     1       2.065   2.728  18.365  0.00  0.00    +0.000 A 
ATOM      6  C   UNL     1       1.129   2.481  19.365  0.00  0.00    +0.000 A 
ATOM      7  C   UNL     1       0.793   3.496  20.251  0.00  0.00    +0.000 A 
ATOM      8  C   UNL     1       1.391   4.759  20.141  0.00  0.00    +0.000 A 
ATOM      9  C   UNL     1       2.329   5.029  19.132  0.00  0.00    +0.000 A 
ATOM     10  N   UNL     1       2.984   6.285  19.002  0.00  0.00    +0.000 N 
ATOM     11  C   UNL     1       3.947   6.517  18.023  0.00  0.00    +0.000 A 
ATOM     12  O   UNL     1       4.643   7.535  18.041  0.00  0.00    +0.000 OA
ENDROOT
BRANCH   1  13
ATOM     13  C   UNL     1       5.016   5.834  15.939  0.00  0.00    +0.000 C 
BRANCH  13  14
ATOM     14  C   UNL     1       6.489   5.578  16.296  0.00  0.00    +0.000 C 
BRANCH  14  15
ATOM     15  C   UNL     1       7.067   4.458  15.438  0.00  0.00    +0.000 C 
BRANCH  15  17
ATOM     16  C   UNL     1       6.270   3.767  13.321  0.00  0.00    +0.000 C 
ATOM     17  O   UNL     1       6.895   4.802  14.065  0.00  0.00    +0.000 OA
ENDBRANCH  15  17
ENDBRANCH  14  15
ENDBRANCH  13  14
ENDBRANCH   1  13
BRANCH  10  18
ATOM     18  C   UNL     1       2.694   7.394  19.919  0.00  0.00    +0.000 C 
BRANCH  18  19
ATOM     19  C   UNL     1       1.632   8.384  19.466  0.00  0.00    +0.000 A 
ATOM     20  C   UNL     1       1.449   8.687  18.106  0.00  0.00    +0.000 A 
ATOM     21  C   UNL     1       0.519   9.643  17.697  0.00  0.00    +0.000 A 
ATOM     22  C   UNL     1      -0.267  10.294  18.637  0.00  0.00    +0.000 A 
ATOM     23  C   UNL     1      -0.145   9.969  19.986  0.00  0.00    +0.000 A 
ATOM     24  C   UNL     1       0.788   9.010  20.416  0.00  0.00    +0.000 A 
ATOM     25  C   UNL     1       0.861   8.685  21.885  0.00  0.00    +0.000 C 
ENDBRANCH  18  19
ENDBRANCH  10  18
TORSDOF 6
ENDMDL
MODEL 6
REMARK VINA RESULT:      -6.6      2.832      5.377
REMARK  Name = 
REMARK  8 active torsions:
REMARK  status: ('A' for Active; 'I' for Inactive)
REMARK    1  A    between atoms: C_1  and  O_2
REMARK    2  A    between atoms: O_2  and  C_3
REMARK    3  A    between atoms: C_3  and  C_4
REMARK    4  A    between atoms: C_4  and  C_5
REMARK    5  A    between atoms: C_5  and  N_6
REMARK    6  A    between atoms: N_15  and  C_16
REMARK    7  A    between atoms: C_16  and  C_17
REMARK    8  A    between atoms: C_22  and  C_23
REMARK                            x       y       z     vdW  Elec       q    Type
REMARK                         _______ _______ _______ _____ _____    ______ ____
ROOT
ATOM      1  N   UNL     1       7.352   6.425  18.147  0.00  0.00    +0.000 N 
ATOM      2  C   UNL     1       7.353   6.304  16.763  0.00  0.00    +0.000 A 
ATOM      3  O   UNL     1       8.086   6.935  16.013  0.00  0.00    +0.000 OA
ATOM      4  C   UNL     1       6.414   5.328  16.186  0.00  0.00    +0.000 A 
ATOM      5  C   UNL     1       6.271   5.253  14.790  0.00  0.00    +0.000 A 
ATOM      6  C   UNL     1       5.379   4.347  14.226  0.00  0.00    +0.000 A 
ATOM      7  C   UNL     1       4.640   3.513  15.055  0.00  0.00    +0.000 A 
ATOM      8  C   UNL     1       4.790   3.582  16.447  0.00  0.00    +0.000 A 
ATOM      9  C   UNL     1       5.678   4.499  17.033  0.00  0.00    +0.000 A 
ATOM     10  N   UNL     1       5.886   4.583  18.437  0.00  0.00    +0.000 N 
ATOM     11  C   UNL     1       6.806   5.466  18.995  0.00  0.00    +0.000 A 
ATOM     12  O   UNL     1       7.118   5.396  20.186  0.00  0.00    +0.000 OA
ENDROOT
BRANCH   1  13
ATOM     13  C   UNL     1       8.239   7.425  18.747  0.00  0.00    +0.000 C 
BRANCH  13  14
ATOM     14  C   UNL     1       8.147   8.812  18.090  0.00  0.00    +0.000 C 
BRANCH  14  15
ATOM     15  C   UNL     1       8.953   9.839  18.878  0.00  0.00    +0.000 C 
BRANCH  15  17
ATOM     16  C   UNL     1      10.334  11.461  17.851  0.00  0.00    +0.000 C 
ATOM     17  O   UNL     1       9.004  11.050  18.127  0.00  0.00    +0.000 OA
ENDBRANCH  15  17
ENDBRANCH  14  15
ENDBRANCH  13  14
ENDBRANCH   1  13
BRANCH  10  18
ATOM     18  C   UNL     1       5.155   3.716  19.369  0.00  0.00    +0.000 C 
BRANCH  18  19
ATOM     19  C   UNL     1       3.698   4.073  19.622  0.00  0.00    +0.000 A 
ATOM     20  C   UNL     1       3.322   5.367  20.019  0.00  0.00    +0.000 A 
ATOM     21  C   UNL     1       1.994   5.676  20.314  0.00  0.00    +0.000 A 
ATOM     22  C   UNL     1       1.011   4.704  20.189  0.00  0.00    +0.000 A 
ATOM     23  C   UNL     1       1.350   3.430  19.742  0.00  0.00    +0.000 A 
ATOM     24  C   UNL     1       2.683   3.101  19.443  0.00  0.00    +0.000 A 
ATOM     25  C   UNL     1       2.987   1.712  18.944  0.00  0.00    +0.000 C 
ENDBRANCH  18  19
ENDBRANCH  10  18
TORSDOF 6
ENDMDL
MODEL 7
REMARK VINA RESULT:      -6.6      1.908      2.647
REMARK  Name = 
REMARK  8 active torsions:
REMARK  status: ('A' for Active; 'I' for Inactive)
REMARK    1  A    between atoms: C_1  and  O_2
REMARK    2  A    between atoms: O_2  and  C_3
REMARK    3  A    between atoms: C_3  and  C_4
REMARK    4  A    between atoms: C_4  and  C_5
REMARK    5  A    between atoms: C_5  and  N_6
REMARK    6  A    between atoms: N_15  and  C_16
REMARK    7  A    between atoms: C_16  and  C_17
REMARK    8  A    between atoms: C_22  and  C_23
REMARK                            x       y       z     vdW  Elec       q    Type
REMARK                         _______ _______ _______ _____ _____    ______ ____
ROOT
ATOM      1  N   UNL     1       5.170   5.769  17.856  0.00  0.00    +0.000 N 
ATOM      2  C   UNL     1       5.266   4.654  18.681  0.00  0.00    +0.000 A 
ATOM      3  O   UNL     1       6.303   4.043  18.901  0.00  0.00    +0.000 OA
ATOM      4  C   UNL     1       4.025   4.212  19.337  0.00  0.00    +0.000 A 
ATOM      5  C   UNL     1       4.026   3.016  20.075  0.00  0.00    +0.000 A 
ATOM      6  C   UNL     1       2.860   2.575  20.693  0.00  0.00    +0.000 A 
ATOM      7  C   UNL     1       1.700   3.331  20.578  0.00  0.00    +0.000 A 
ATOM      8  C   UNL     1       1.703   4.528  19.850  0.00  0.00    +0.000 A 
ATOM      9  C   UNL     1       2.869   4.982  19.212  0.00  0.00    +0.000 A 
ATOM     10  N   UNL     1       2.926   6.205  18.488  0.00  0.00    +0.000 N 
ATOM     11  C   UNL     1       4.105   6.662  17.903  0.00  0.00    +0.000 A 
ATOM     12  O   UNL     1       4.192   7.805  17.450  0.00  0.00    +0.000 OA
ENDROOT
BRANCH   1  13
ATOM     13  C   UNL     1       6.378   6.200  17.148  0.00  0.00    +0.000 C 
BRANCH  13  14
ATOM     14  C   UNL     1       7.459   6.795  18.066  0.00  0.00    +0.000 C 
BRANCH  14  15
ATOM     15  C   UNL     1       7.830   8.206  17.621  0.00  0.00    +0.000 C 
BRANCH  15  17
ATOM     16  C   UNL     1       8.875  10.182  18.394  0.00  0.00    +0.000 C 
ATOM     17  O   UNL     1       8.639   8.803  18.633  0.00  0.00    +0.000 OA
ENDBRANCH  15  17
ENDBRANCH  14  15
ENDBRANCH  13  14
ENDBRANCH   1  13
BRANCH  10  18
ATOM     18  C   UNL     1       1.745   7.064  18.348  0.00  0.00    +0.000 C 
BRANCH  18  19
ATOM     19  C   UNL     1       1.516   8.083  19.454  0.00  0.00    +0.000 A 
ATOM     20  C   UNL     1       1.554   7.712  20.809  0.00  0.00    +0.000 A 
ATOM     21  C   UNL     1       1.281   8.633  21.820  0.00  0.00    +0.000 A 
ATOM     22  C   UNL     1       0.992   9.952  21.498  0.00  0.00    +0.000 A 
ATOM     23  C   UNL     1       1.006  10.358  20.165  0.00  0.00    +0.000 A 
ATOM     24  C   UNL     1       1.277   9.442  19.135  0.00  0.00    +0.000 A 
ATOM     25  C   UNL     1       1.297   9.944  17.714  0.00  0.00    +0.000 C 
ENDBRANCH  18  19
ENDBRANCH  10  18
TORSDOF 6
ENDMDL
MODEL 8
REMARK VINA RESULT:      -6.5      1.475      2.379
REMARK  Name = 
REMARK  8 active torsions:
REMARK  status: ('A' for Active; 'I' for Inactive)
REMARK    1  A    between atoms: C_1  and  O_2
REMARK    2  A    between atoms: O_2  and  C_3
REMARK    3  A    between atoms: C_3  and  C_4
REMARK    4  A    between atoms: C_4  and  C_5
REMARK    5  A    between atoms: C_5  and  N_6
REMARK    6  A    between atoms: N_15  and  C_16
REMARK    7  A    between atoms: C_16  and  C_17
REMARK    8  A    between atoms: C_22  and  C_23
REMARK                            x       y       z     vdW  Elec       q    Type
REMARK                         _______ _______ _______ _____ _____    ______ ____
ROOT
ATOM      1  N   UNL     1       5.268   4.831  18.653  0.00  0.00    +0.000 N 
ATOM      2  C   UNL     1       4.790   3.612  19.119  0.00  0.00    +0.000 A 
ATOM      3  O   UNL     1       5.495   2.717  19.565  0.00  0.00    +0.000 OA
ATOM      4  C   UNL     1       3.331   3.420  19.082  0.00  0.00    +0.000 A 
ATOM      5  C   UNL     1       2.795   2.164  19.414  0.00  0.00    +0.000 A 
ATOM      6  C   UNL     1       1.420   1.957  19.372  0.00  0.00    +0.000 A 
ATOM      7  C   UNL     1       0.584   3.006  19.009  0.00  0.00    +0.000 A 
ATOM      8  C   UNL     1       1.119   4.261  18.688  0.00  0.00    +0.000 A 
ATOM      9  C   UNL     1       2.506   4.483  18.715  0.00  0.00    +0.000 A 
ATOM     10  N   UNL     1       3.092   5.746  18.427  0.00  0.00    +0.000 N 
ATOM     11  C   UNL     1       4.466   5.958  18.506  0.00  0.00    +0.000 A 
ATOM     12  O   UNL     1       4.942   7.094  18.446  0.00  0.00    +0.000 OA
ENDROOT
BRANCH   1  13
ATOM     13  C   UNL     1       6.719   5.032  18.629  0.00  0.00    +0.000 C 
BRANCH  13  14
ATOM     14  C   UNL     1       7.382   4.623  17.304  0.00  0.00    +0.000 C 
BRANCH  14  15
ATOM     15  C   UNL     1       7.039   5.617  16.198  0.00  0.00    +0.000 C 
BRANCH  15  17
ATOM     16  C   UNL     1       6.659   4.515  14.140  0.00  0.00    +0.000 C 
ATOM     17  O   UNL     1       7.611   5.153  14.977  0.00  0.00    +0.000 OA
ENDBRANCH  15  17
ENDBRANCH  14  15
ENDBRANCH  13  14
ENDBRANCH   1  13
BRANCH  10  18
ATOM     18  C   UNL     1       2.266   6.903  18.060  0.00  0.00    +0.000 C 
BRANCH  18  19
ATOM     19  C   UNL     1       1.801   7.791  19.204  0.00  0.00    +0.000 A 
ATOM     20  C   UNL     1       1.684   7.293  20.514  0.00  0.00    +0.000 A 
ATOM     21  C   UNL     1       1.196   8.090  21.549  0.00  0.00    +0.000 A 
ATOM     22  C   UNL     1       0.842   9.409  21.303  0.00  0.00    +0.000 A 
ATOM     23  C   UNL     1       1.004   9.942  20.026  0.00  0.00    +0.000 A 
ATOM     24  C   UNL     1       1.492   9.153  18.971  0.00  0.00    +0.000 A 
ATOM     25  C   UNL     1       1.665   9.790  17.616  0.00  0.00    +0.000 C 
ENDBRANCH  18  19
ENDBRANCH  10  18
TORSDOF 6
ENDMDL
MODEL 9
REMARK VINA RESULT:      -6.5      1.787      4.347
REMARK  Name = 
REMARK  8 active torsions:
REMARK  status: ('A' for Active; 'I' for Inactive)
REMARK    1  A    between atoms: C_1  and  O_2
REMARK    2  A    between atoms: O_2  and  C_3
REMARK    3  A    between atoms: C_3  and  C_4
REMARK    4  A    between atoms: C_4  and  C_5
REMARK    5  A    between atoms: C_5  and  N_6
REMARK    6  A    between atoms: N_15  and  C_16
REMARK    7  A    between atoms: C_16  and  C_17
REMARK    8  A    between atoms: C_22  and  C_23
REMARK                            x       y       z     vdW  Elec       q    Type
REMARK                         _______ _______ _______ _____ _____    ______ ____
ROOT
ATOM      1  N   UNL     1       2.863   3.786  17.906  0.00  0.00    +0.000 N 
ATOM      2  C   UNL     1       4.196   3.431  17.734  0.00  0.00    +0.000 A 
ATOM      3  O   UNL     1       4.594   2.283  17.588  0.00  0.00    +0.000 OA
ATOM      4  C   UNL     1       5.172   4.533  17.708  0.00  0.00    +0.000 A 
ATOM      5  C   UNL     1       6.544   4.234  17.670  0.00  0.00    +0.000 A 
ATOM      6  C   UNL     1       7.483   5.261  17.659  0.00  0.00    +0.000 A 
ATOM      7  C   UNL     1       7.050   6.580  17.676  0.00  0.00    +0.000 A 
ATOM      8  C   UNL     1       5.681   6.877  17.704  0.00  0.00    +0.000 A 
ATOM      9  C   UNL     1       4.720   5.852  17.727  0.00  0.00    +0.000 A 
ATOM     10  N   UNL     1       3.321   6.105  17.724  0.00  0.00    +0.000 N 
ATOM     11  C   UNL     1       2.384   5.075  17.698  0.00  0.00    +0.000 A 
ATOM     12  O   UNL     1       1.189   5.302  17.500  0.00  0.00    +0.000 OA
ENDROOT
BRANCH   1  13
ATOM     13  C   UNL     1       1.875   2.707  17.989  0.00  0.00    +0.000 C 
BRANCH  13  14
ATOM     14  C   UNL     1       1.625   2.199  19.417  0.00  0.00    +0.000 C 
BRANCH  14  15
ATOM     15  C   UNL     1       0.777   3.193  20.205  0.00  0.00    +0.000 C 
BRANCH  15  17
ATOM     16  C   UNL     1       2.602   2.813  21.659  0.00  0.00    +0.000 C 
ATOM     17  O   UNL     1       1.554   3.695  21.289  0.00  0.00    +0.000 OA
ENDBRANCH  15  17
ENDBRANCH  14  15
ENDBRANCH  13  14
ENDBRANCH   1  13
BRANCH  10  18
ATOM     18  C   UNL     1       2.794   7.475  17.718  0.00  0.00    +0.000 C 
BRANCH  18  19
ATOM     19  C   UNL     1       2.086   7.932  18.984  0.00  0.00    +0.000 A 
ATOM     20  C   UNL     1       2.098   7.148  20.151  0.00  0.00    +0.000 A 
ATOM     21  C   UNL     1       1.395   7.536  21.291  0.00  0.00    +0.000 A 
ATOM     22  C   UNL     1       0.689   8.731  21.298  0.00  0.00    +0.000 A 
ATOM     23  C   UNL     1       0.710   9.554  20.174  0.00  0.00    +0.000 A 
ATOM     24  C   UNL     1       1.411   9.177  19.016  0.00  0.00    +0.000 A 
ATOM     25  C   UNL     1       1.414  10.116  17.838  0.00  0.00    +0.000 C 
ENDBRANCH  18  19
ENDBRANCH  10  18
TORSDOF 6
ENDMDL
