MODEL 1
REMARK VINA RESULT:      -7.5      0.000      0.000
REMARK  Name = 
REMARK  9 active torsions:
REMARK  status: ('A' for Active; 'I' for Inactive)
REMARK    1  A    between atoms: N_11  and  C_12
REMARK    2  A    between atoms: C_12  and  C_13
REMARK    3  A    between atoms: C_13  and  C_14
REMARK    4  A    between atoms: C_14  and  C_15
REMARK    5  A    between atoms: C_15  and  C_16
REMARK    6  A    between atoms: C_16  and  C_17
REMARK    7  A    between atoms: C_17  and  N_18
REMARK    8  A    between atoms: N_18  and  C_19
REMARK    9  A    between atoms: C_19  and  C_20
REMARK                            x       y       z     vdW  Elec       q    Type
REMARK                         _______ _______ _______ _____ _____    ______ ____
ROOT
ATOM      1  C   UNL     1       1.185   2.720  18.502  0.00  0.00    +0.000 C 
ENDROOT
BRANCH   1   2
ATOM      2  C   UNL     1       2.200   3.412  17.591  0.00  0.00    +0.000 C 
BRANCH   2   3
ATOM      3  C   UNL     1       3.572   2.740  17.649  0.00  0.00    +0.000 C 
BRANCH   3  14
ATOM      4  O   UNL     1       4.450   4.766  15.668  0.00  0.00    +0.000 OA
ATOM      5  C   UNL     1       4.945   4.627  16.769  0.00  0.00    +0.000 C 
ATOM      6  C   UNL     1       6.026   5.458  17.299  0.00  0.00    +0.000 A 
ATOM      7  C   UNL     1       6.712   6.510  16.725  0.00  0.00    +0.000 A 
ATOM      8  C   UNL     1       7.710   7.118  17.495  0.00  0.00    +0.000 A 
ATOM      9  C   UNL     1       7.992   6.666  18.801  0.00  0.00    +0.000 A 
ATOM     10  C   UNL     1       7.280   5.603  19.361  0.00  0.00    +0.000 A 
ATOM     11  C   UNL     1       6.301   5.019  18.581  0.00  0.00    +0.000 A 
ATOM     12  C   UNL     1       5.390   3.914  18.876  0.00  0.00    +0.000 C 
ATOM     13  O   UNL     1       5.349   3.326  19.939  0.00  0.00    +0.000 OA
ATOM     14  N   UNL     1       4.634   3.722  17.751  0.00  0.00    +0.000 N 
ENDBRANCH   3  14
ENDBRANCH   2   3
ENDBRANCH   1   2
BRANCH   1  15
ATOM     15  C   UNL     1       1.861   2.257  19.794  0.00  0.00    +0.000 C 
BRANCH  15  16
ATOM     16  C   UNL     1       2.218   3.432  20.703  0.00  0.00    +0.000 C 
BRANCH  16  17
ATOM     17  C   UNL     1       1.204   4.567  20.545  0.00  0.00    +0.000 C 
BRANCH  17  18
ATOM     18  N   UNL     1       1.856   5.835  20.854  0.00  0.00    +0.000 NA
ATOM     19  H   UNL     1       2.538   5.705  21.600  0.00  0.00    +0.000 HD
BRANCH  18  20
ATOM     20  C   UNL     1       2.535   6.387  19.685  0.00  0.00    +0.000 C 
BRANCH  20  21
ATOM     21  C   UNL     1       2.028   7.780  19.387  0.00  0.00    +0.000 A 
ATOM     22  C   UNL     1       1.319   8.510  20.352  0.00  0.00    +0.000 A 
ATOM     23  C   UNL     1       0.865   9.800  20.067  0.00  0.00    +0.000 A 
ATOM     24  C   UNL     1       1.119  10.358  18.819  0.00  0.00    +0.000 A 
ATOM     25  F   UNL     1       0.681  11.595  18.550  0.00  0.00    +0.000 F 
ATOM     26  C   UNL     1       1.817   9.652  17.848  0.00  0.00    +0.000 A 
ATOM     27  C   UNL     1       2.274   8.366  18.132  0.00  0.00    +0.000 A 
ENDBRANCH  20  21
ENDBRANCH  18  20
ENDBRANCH  17  18
ENDBRANCH  16  17
ENDBRANCH  15  16
ENDBRANCH   1  15
TORSDOF 9
ENDMDL
MODEL 2
REMARK VINA RESULT:      -7.4      2.050      3.684
REMARK  Name = 
REMARK  9 active torsions:
REMARK  status: ('A' for Active; 'I' for Inactive)
REMARK    1  A    between atoms: N_11  and  C_12
REMARK    2  A    between atoms: C_12  and  C_13
REMARK    3  A    between atoms: C_13  and  C_14
REMARK    4  A    between atoms: C_14  and  C_15
REMARK    5  A    between atoms: C_15  and  C_16
REMARK    6  A    between atoms: C_16  and  C_17
REMARK    7  A    between atoms: C_17  and  N_18
REMARK    8  A    between atoms: N_18  and  C_19
REMARK    9  A    between atoms: C_19  and  C_20
REMARK                            x       y       z     vdW  Elec       q    Type
REMARK                         _______ _______ _______ _____ _____    ______ ____
ROOT
ATOM      1  C   UNL     1       1.749   5.482  20.037  0.00  0.00    +0.000 C 
ENDROOT
BRANCH   1   2
ATOM      2  C   UNL     1       2.739   4.506  20.673  0.00  0.00    +0.000 C 
BRANCH   2   3
ATOM      3  C   UNL     1       3.050   3.326  19.753  0.00  0.00    +0.000 C 
BRANCH   3  14
ATOM      4  O   UNL     1       5.842   4.326  19.843  0.00  0.00    +0.000 OA
ATOM      5  C   UNL     1       5.207   4.161  18.820  0.00  0.00    +0.000 C 
ATOM      6  C   UNL     1       5.732   4.399  17.476  0.00  0.00    +0.000 A 
ATOM      7  C   UNL     1       6.971   4.849  17.064  0.00  0.00    +0.000 A 
ATOM      8  C   UNL     1       7.179   4.975  15.685  0.00  0.00    +0.000 A 
ATOM      9  C   UNL     1       6.159   4.652  14.767  0.00  0.00    +0.000 A 
ATOM     10  C   UNL     1       4.915   4.194  15.209  0.00  0.00    +0.000 A 
ATOM     11  C   UNL     1       4.734   4.078  16.574  0.00  0.00    +0.000 A 
ATOM     12  C   UNL     1       3.573   3.626  17.340  0.00  0.00    +0.000 C 
ATOM     13  O   UNL     1       2.535   3.236  16.841  0.00  0.00    +0.000 OA
ATOM     14  N   UNL     1       3.917   3.725  18.661  0.00  0.00    +0.000 N 
ENDBRANCH   3  14
ENDBRANCH   2   3
ENDBRANCH   1   2
BRANCH   1  15
ATOM     15  C   UNL     1       2.455   6.787  19.664  0.00  0.00    +0.000 C 
BRANCH  15  16
ATOM     16  C   UNL     1       2.545   6.974  18.151  0.00  0.00    +0.000 C 
BRANCH  16  17
ATOM     17  C   UNL     1       2.573   8.460  17.789  0.00  0.00    +0.000 C 
BRANCH  17  18
ATOM     18  N   UNL     1       1.277   9.052  18.099  0.00  0.00    +0.000 NA
ATOM     19  H   UNL     1       0.760   8.446  18.735  0.00  0.00    +0.000 HD
BRANCH  18  20
ATOM     20  C   UNL     1       1.421  10.369  18.714  0.00  0.00    +0.000 C 
BRANCH  20  21
ATOM     21  C   UNL     1       0.656  10.432  20.016  0.00  0.00    +0.000 A 
ATOM     22  C   UNL     1       0.407   9.271  20.762  0.00  0.00    +0.000 A 
ATOM     23  C   UNL     1      -0.291   9.345  21.970  0.00  0.00    +0.000 A 
ATOM     24  C   UNL     1      -0.742  10.578  22.428  0.00  0.00    +0.000 A 
ATOM     25  F   UNL     1      -1.413  10.644  23.586  0.00  0.00    +0.000 F 
ATOM     26  C   UNL     1      -0.509  11.740  21.704  0.00  0.00    +0.000 A 
ATOM     27  C   UNL     1       0.192  11.668  20.501  0.00  0.00    +0.000 A 
ENDBRANCH  20  21
ENDBRANCH  18  20
ENDBRANCH  17  18
ENDBRANCH  16  17
ENDBRANCH  15  16
ENDBRANCH   1  15
TORSDOF 9
ENDMDL
MODEL 3
REMARK VINA RESULT:      -7.3      0.925      2.232
REMARK  Name = 
REMARK  9 active torsions:
REMARK  status: ('A' for Active; 'I' for Inactive)
REMARK    1  A    between atoms: N_11  and  C_12
REMARK    2  A    between atoms: C_12  and  C_13
REMARK    3  A    between atoms: C_13  and  C_14
REMARK    4  A    between atoms: C_14  and  C_15
REMARK    5  A    between atoms: C_15  and  C_16
REMARK    6  A    between atoms: C_16  and  C_17
REMARK    7  A    between atoms: C_17  and  N_18
REMARK    8  A    between atoms: N_18  and  C_19
REMARK    9  A    between atoms: C_19  and  C_20
REMARK                            x       y       z     vdW  Elec       q    Type
REMARK                         _______ _______ _______ _____ _____    ______ ____
ROOT
ATOM      1  C   UNL     1       1.659   2.698  18.132  0.00  0.00    +0.000 C 
ENDROOT
BRANCH   1   2
ATOM      2  C   UNL     1       2.533   3.506  17.171  0.00  0.00    +0.000 C 
BRANCH   2   3
ATOM      3  C   UNL     1       3.965   2.977  17.118  0.00  0.00    +0.000 C 
BRANCH   3  14
ATOM      4  O   UNL     1       5.495   3.450  19.616  0.00  0.00    +0.000 OA
ATOM      5  C   UNL     1       5.588   4.136  18.616  0.00  0.00    +0.000 C 
ATOM      6  C   UNL     1       6.491   5.278  18.480  0.00  0.00    +0.000 A 
ATOM      7  C   UNL     1       7.379   5.831  19.382  0.00  0.00    +0.000 A 
ATOM      8  C   UNL     1       8.119   6.939  18.953  0.00  0.00    +0.000 A 
ATOM      9  C   UNL     1       7.955   7.459  17.652  0.00  0.00    +0.000 A 
ATOM     10  C   UNL     1       7.053   6.877  16.756  0.00  0.00    +0.000 A 
ATOM     11  C   UNL     1       6.335   5.786  17.203  0.00  0.00    +0.000 A 
ATOM     12  C   UNL     1       5.339   4.962  16.519  0.00  0.00    +0.000 C 
ATOM     13  O   UNL     1       4.997   5.123  15.363  0.00  0.00    +0.000 OA
ATOM     14  N   UNL     1       4.924   4.022  17.422  0.00  0.00    +0.000 N 
ENDBRANCH   3  14
ENDBRANCH   2   3
ENDBRANCH   1   2
BRANCH   1  15
ATOM     15  C   UNL     1       2.460   2.303  19.373  0.00  0.00    +0.000 C 
BRANCH  15  16
ATOM     16  C   UNL     1       1.574   2.194  20.612  0.00  0.00    +0.000 C 
BRANCH  16  17
ATOM     17  C   UNL     1       1.740   3.423  21.509  0.00  0.00    +0.000 C 
BRANCH  17  18
ATOM     18  N   UNL     1       1.412   4.620  20.743  0.00  0.00    +0.000 NA
ATOM     19  H   UNL     1       0.436   4.872  20.890  0.00  0.00    +0.000 HD
BRANCH  18  20
ATOM     20  C   UNL     1       2.255   5.750  21.127  0.00  0.00    +0.000 C 
BRANCH  20  21
ATOM     21  C   UNL     1       2.188   6.839  20.080  0.00  0.00    +0.000 A 
ATOM     22  C   UNL     1       2.752   6.654  18.810  0.00  0.00    +0.000 A 
ATOM     23  C   UNL     1       2.673   7.665  17.849  0.00  0.00    +0.000 A 
ATOM     24  C   UNL     1       2.034   8.860  18.160  0.00  0.00    +0.000 A 
ATOM     25  F   UNL     1       1.962   9.827  17.236  0.00  0.00    +0.000 F 
ATOM     26  C   UNL     1       1.470   9.065  19.412  0.00  0.00    +0.000 A 
ATOM     27  C   UNL     1       1.544   8.056  20.371  0.00  0.00    +0.000 A 
ENDBRANCH  20  21
ENDBRANCH  18  20
ENDBRANCH  17  18
ENDBRANCH  16  17
ENDBRANCH  15  16
ENDBRANCH   1  15
TORSDOF 9
ENDMDL
MODEL 4
REMARK VINA RESULT:      -7.3      2.149      4.630
REMARK  Name = 
REMARK  9 active torsions:
REMARK  status: ('A' for Active; 'I' for Inactive)
REMARK    1  A    between atoms: N_11  and  C_12
REMARK    2  A    between atoms: C_12  and  C_13
REMARK    3  A    between atoms: C_13  and  C_14
REMARK    4  A    between atoms: C_14  and  C_15
REMARK    5  A    between atoms: C_15  and  C_16
REMARK    6  A    between atoms: C_16  and  C_17
REMARK    7  A    between atoms: C_17  and  N_18
REMARK    8  A    between atoms: N_18  and  C_19
REMARK    9  A    between atoms: C_19  and  C_20
REMARK                            x       y       z     vdW  Elec       q    Type
REMARK                         _______ _______ _______ _____ _____    ______ ____
ROOT
ATOM      1  C   UNL     1       4.533   6.551  17.909  0.00  0.00    +0.000 C 
ENDROOT
BRANCH   1   2
ATOM      2  C   UNL     1       5.210   5.644  16.880  0.00  0.00    +0.000 C 
BRANCH   2   3
ATOM      3  C   UNL     1       4.432   4.347  16.662  0.00  0.00    +0.000 C 
BRANCH   3  14
ATOM      4  O   UNL     1       1.504   4.239  17.126  0.00  0.00    +0.000 OA
ATOM      5  C   UNL     1       2.340   3.935  17.954  0.00  0.00    +0.000 C 
ATOM      6  C   UNL     1       2.029   3.438  19.294  0.00  0.00    +0.000 A 
ATOM      7  C   UNL     1       0.812   3.223  19.912  0.00  0.00    +0.000 A 
ATOM      8  C   UNL     1       0.838   2.731  21.222  0.00  0.00    +0.000 A 
ATOM      9  C   UNL     1       2.062   2.469  21.872  0.00  0.00    +0.000 A 
ATOM     10  C   UNL     1       3.280   2.690  21.223  0.00  0.00    +0.000 A 
ATOM     11  C   UNL     1       3.228   3.176  19.932  0.00  0.00    +0.000 A 
ATOM     12  C   UNL     1       4.305   3.497  18.997  0.00  0.00    +0.000 C 
ATOM     13  O   UNL     1       5.487   3.344  19.237  0.00  0.00    +0.000 OA
ATOM     14  N   UNL     1       3.706   3.962  17.857  0.00  0.00    +0.000 N 
ENDBRANCH   3  14
ENDBRANCH   2   3
ENDBRANCH   1   2
BRANCH   1  15
ATOM     15  C   UNL     1       3.487   7.436  17.229  0.00  0.00    +0.000 C 
BRANCH  15  16
ATOM     16  C   UNL     1       2.293   7.710  18.141  0.00  0.00    +0.000 C 
BRANCH  16  17
ATOM     17  C   UNL     1       2.518   7.103  19.528  0.00  0.00    +0.000 C 
BRANCH  17  18
ATOM     18  N   UNL     1       1.853   7.933  20.526  0.00  0.00    +0.000 NA
ATOM     19  H   UNL     1       2.537   8.299  21.187  0.00  0.00    +0.000 HD
BRANCH  18  20
ATOM     20  C   UNL     1       1.146   9.052  19.909  0.00  0.00    +0.000 C 
BRANCH  20  21
ATOM     21  C   UNL     1       0.309   9.780  20.936  0.00  0.00    +0.000 A 
ATOM     22  C   UNL     1      -0.279  11.019  20.640  0.00  0.00    +0.000 A 
ATOM     23  C   UNL     1      -1.059  11.674  21.594  0.00  0.00    +0.000 A 
ATOM     24  C   UNL     1      -1.249  11.094  22.843  0.00  0.00    +0.000 A 
ATOM     25  F   UNL     1      -1.998  11.728  23.756  0.00  0.00    +0.000 F 
ATOM     26  C   UNL     1      -0.675   9.869  23.158  0.00  0.00    +0.000 A 
ATOM     27  C   UNL     1       0.100   9.211  22.205  0.00  0.00    +0.000 A 
ENDBRANCH  20  21
ENDBRANCH  18  20
ENDBRANCH  17  18
ENDBRANCH  16  17
ENDBRANCH  15  16
ENDBRANCH   1  15
TORSDOF 9
ENDMDL
MODEL 5
REMARK VINA RESULT:      -7.3      2.785      3.941
REMARK  Name = 
REMARK  9 active torsions:
REMARK  status: ('A' for Active; 'I' for Inactive)
REMARK    1  A    between atoms: N_11  and  C_12
REMARK    2  A    between atoms: C_12  and  C_13
REMARK    3  A    between atoms: C_13  and  C_14
REMARK    4  A    between atoms: C_14  and  C_15
REMARK    5  A    between atoms: C_15  and  C_16
REMARK    6  A    between atoms: C_16  and  C_17
REMARK    7  A    between atoms: C_17  and  N_18
REMARK    8  A    between atoms: N_18  and  C_19
REMARK    9  A    between atoms: C_19  and  C_20
REMARK                            x       y       z     vdW  Elec       q    Type
REMARK                         _______ _______ _______ _____ _____    ______ ____
ROOT
ATOM      1  C   UNL     1       2.063   5.779  19.222  0.00  0.00    +0.000 C 
ENDROOT
BRANCH   1   2
ATOM      2  C   UNL     1       3.028   5.117  20.207  0.00  0.00    +0.000 C 
BRANCH   2   3
ATOM      3  C   UNL     1       3.551   3.780  19.684  0.00  0.00    +0.000 C 
BRANCH   3  14
ATOM      4  O   UNL     1       2.802   3.360  16.844  0.00  0.00    +0.000 OA
ATOM      5  C   UNL     1       3.893   3.749  17.214  0.00  0.00    +0.000 C 
ATOM      6  C   UNL     1       4.991   4.101  16.314  0.00  0.00    +0.000 A 
ATOM      7  C   UNL     1       5.067   4.066  14.936  0.00  0.00    +0.000 A 
ATOM      8  C   UNL     1       6.273   4.472  14.352  0.00  0.00    +0.000 A 
ATOM      9  C   UNL     1       7.356   4.897  15.149  0.00  0.00    +0.000 A 
ATOM     10  C   UNL     1       7.252   4.928  16.543  0.00  0.00    +0.000 A 
ATOM     11  C   UNL     1       6.052   4.522  17.095  0.00  0.00    +0.000 A 
ATOM     12  C   UNL     1       5.630   4.448  18.493  0.00  0.00    +0.000 C 
ATOM     13  O   UNL     1       6.323   4.784  19.434  0.00  0.00    +0.000 OA
ATOM     14  N   UNL     1       4.352   3.961  18.488  0.00  0.00    +0.000 N 
ENDBRANCH   3  14
ENDBRANCH   2   3
ENDBRANCH   1   2
BRANCH   1  15
ATOM     15  C   UNL     1       2.681   7.055  18.650  0.00  0.00    +0.000 C 
BRANCH  15  16
ATOM     16  C   UNL     1       1.678   8.206  18.609  0.00  0.00    +0.000 C 
BRANCH  16  17
ATOM     17  C   UNL     1       2.251   9.400  17.843  0.00  0.00    +0.000 C 
BRANCH  17  18
ATOM     18  N   UNL     1       1.244  10.452  17.775  0.00  0.00    +0.000 NA
ATOM     19  H   UNL     1       0.754  10.409  16.882  0.00  0.00    +0.000 HD
BRANCH  18  20
ATOM     20  C   UNL     1       0.269  10.332  18.855  0.00  0.00    +0.000 C 
BRANCH  20  21
ATOM     21  C   UNL     1      -1.134  10.524  18.325  0.00  0.00    +0.000 A 
ATOM     22  C   UNL     1      -2.015  11.433  18.931  0.00  0.00    +0.000 A 
ATOM     23  C   UNL     1      -3.305  11.608  18.424  0.00  0.00    +0.000 A 
ATOM     24  C   UNL     1      -3.713  10.874  17.316  0.00  0.00    +0.000 A 
ATOM     25  F   UNL     1      -4.952  11.045  16.834  0.00  0.00    +0.000 F 
ATOM     26  C   UNL     1      -2.859   9.967  16.703  0.00  0.00    +0.000 A 
ATOM     27  C   UNL     1      -1.569   9.795  17.204  0.00  0.00    +0.000 A 
ENDBRANCH  20  21
ENDBRANCH  18  20
ENDBRANCH  17  18
ENDBRANCH  16  17
ENDBRANCH  15  16
ENDBRANCH   1  15
TORSDOF 9
ENDMDL
MODEL 6
REMARK VINA RESULT:      -7.3      2.787      6.840
REMARK  Name = 
REMARK  9 active torsions:
REMARK  status: ('A' for Active; 'I' for Inactive)
REMARK    1  A    between atoms: N_11  and  C_12
REMARK    2  A    between atoms: C_12  and  C_13
REMARK    3  A    between atoms: C_13  and  C_14
REMARK    4  A    between atoms: C_14  and  C_15
REMARK    5  A    between atoms: C_15  and  C_16
REMARK    6  A    between atoms: C_16  and  C_17
REMARK    7  A    between atoms: C_17  and  N_18
REMARK    8  A    between atoms: N_18  and  C_19
REMARK    9  A    between atoms: C_19  and  C_20
REMARK                            x       y       z     vdW  Elec       q    Type
REMARK                         _______ _______ _______ _____ _____    ______ ____
ROOT
ATOM      1  C   UNL     1       2.093   5.059  18.786  0.00  0.00    +0.000 C 
ENDROOT
BRANCH   1   2
ATOM      2  C   UNL     1       1.960   6.402  18.065  0.00  0.00    +0.000 C 
BRANCH   2   3
ATOM      3  C   UNL     1       2.713   7.516  18.789  0.00  0.00    +0.000 C 
BRANCH   3  14
ATOM      4  O   UNL     1       1.230   7.880  21.333  0.00  0.00    +0.000 OA
ATOM      5  C   UNL     1       1.192   8.660  20.402  0.00  0.00    +0.000 C 
ATOM      6  C   UNL     1       0.437   9.912  20.405  0.00  0.00    +0.000 A 
ATOM      7  C   UNL     1      -0.370  10.470  21.377  0.00  0.00    +0.000 A 
ATOM      8  C   UNL     1      -0.966  11.702  21.083  0.00  0.00    +0.000 A 
ATOM      9  C   UNL     1      -0.744  12.336  19.843  0.00  0.00    +0.000 A 
ATOM     10  C   UNL     1       0.082  11.753  18.878  0.00  0.00    +0.000 A 
ATOM     11  C   UNL     1       0.658  10.538  19.191  0.00  0.00    +0.000 A 
ATOM     12  C   UNL     1       1.562   9.690  18.415  0.00  0.00    +0.000 C 
ATOM     13  O   UNL     1       1.984   9.973  17.310  0.00  0.00    +0.000 OA
ATOM     14  N   UNL     1       1.817   8.587  19.184  0.00  0.00    +0.000 N 
ENDBRANCH   3  14
ENDBRANCH   2   3
ENDBRANCH   1   2
BRANCH   1  15
ATOM     15  C   UNL     1       1.438   3.949  17.963  0.00  0.00    +0.000 C 
BRANCH  15  16
ATOM     16  C   UNL     1       2.416   2.819  17.649  0.00  0.00    +0.000 C 
BRANCH  16  17
ATOM     17  C   UNL     1       3.795   3.114  18.244  0.00  0.00    +0.000 C 
BRANCH  17  18
ATOM     18  N   UNL     1       4.807   2.953  17.206  0.00  0.00    +0.000 NA
ATOM     19  H   UNL     1       4.568   2.165  16.606  0.00  0.00    +0.000 HD
BRANCH  18  20
ATOM     20  C   UNL     1       4.929   4.154  16.384  0.00  0.00    +0.000 C 
BRANCH  20  21
ATOM     21  C   UNL     1       5.907   5.124  17.006  0.00  0.00    +0.000 A 
ATOM     22  C   UNL     1       5.819   6.500  16.749  0.00  0.00    +0.000 A 
ATOM     23  C   UNL     1       6.723   7.386  17.340  0.00  0.00    +0.000 A 
ATOM     24  C   UNL     1       7.714   6.897  18.183  0.00  0.00    +0.000 A 
ATOM     25  F   UNL     1       8.579   7.751  18.746  0.00  0.00    +0.000 F 
ATOM     26  C   UNL     1       7.821   5.538  18.449  0.00  0.00    +0.000 A 
ATOM     27  C   UNL     1       6.917   4.653  17.864  0.00  0.00    +0.000 A 
ENDBRANCH  20  21
ENDBRANCH  18  20
ENDBRANCH  17  18
ENDBRANCH  16  17
ENDBRANCH  15  16
ENDBRANCH   1  15
TORSDOF 9
ENDMDL
MODEL 7
REMARK VINA RESULT:      -7.2      5.627      8.053
REMARK  Name = 
REMARK  9 active torsions:
REMARK  status: ('A' for Active; 'I' for Inactive)
REMARK    1  A    between atoms: N_11  and  C_12
REMARK    2  A    between atoms: C_12  and  C_13
REMARK    3  A    between atoms: C_13  and  C_14
REMARK    4  A    between atoms: C_14  and  C_15
REMARK    5  A    between atoms: C_15  and  C_16
REMARK    6  A    between atoms: C_16  and  C_17
REMARK    7  A    between atoms: C_17  and  N_18
REMARK    8  A    between atoms: N_18  and  C_19
REMARK    9  A    between atoms: C_19  and  C_20
REMARK                            x       y       z     vdW  Elec       q    Type
REMARK                         _______ _______ _______ _____ _____    ______ ____
ROOT
ATOM      1  C   UNL     1       7.891   8.205  17.491  0.00  0.00    +0.000 C 
ENDROOT
BRANCH   1   2
ATOM      2  C   UNL     1       8.138   9.604  18.058  0.00  0.00    +0.000 C 
BRANCH   2   3
ATOM      3  C   UNL     1       9.244   9.608  19.112  0.00  0.00    +0.000 C 
BRANCH   3  14
ATOM      4  O   UNL     1       8.694  11.155  21.583  0.00  0.00    +0.000 OA
ATOM      5  C   UNL     1       9.339  11.575  20.642  0.00  0.00    +0.000 C 
ATOM      6  C   UNL     1       9.970  12.893  20.599  0.00  0.00    +0.000 A 
ATOM      7  C   UNL     1       9.978  13.915  21.528  0.00  0.00    +0.000 A 
ATOM      8  C   UNL     1      10.684  15.077  21.194  0.00  0.00    +0.000 A 
ATOM      9  C   UNL     1      11.355  15.186  19.959  0.00  0.00    +0.000 A 
ATOM     10  C   UNL     1      11.336  14.135  19.037  0.00  0.00    +0.000 A 
ATOM     11  C   UNL     1      10.633  13.000  19.389  0.00  0.00    +0.000 A 
ATOM     12  C   UNL     1      10.433  11.747  18.663  0.00  0.00    +0.000 C 
ATOM     13  O   UNL     1      10.918  11.503  17.575  0.00  0.00    +0.000 OA
ATOM     14  N   UNL     1       9.640  10.961  19.454  0.00  0.00    +0.000 N 
ENDBRANCH   3  14
ENDBRANCH   2   3
ENDBRANCH   1   2
BRANCH   1  15
ATOM     15  C   UNL     1       8.073   7.150  18.584  0.00  0.00    +0.000 C 
BRANCH  15  16
ATOM     16  C   UNL     1       7.326   5.859  18.260  0.00  0.00    +0.000 C 
BRANCH  16  17
ATOM     17  C   UNL     1       6.831   5.867  16.812  0.00  0.00    +0.000 C 
BRANCH  17  18
ATOM     18  N   UNL     1       5.426   5.474  16.786  0.00  0.00    +0.000 NA
ATOM     19  H   UNL     1       5.338   4.518  16.443  0.00  0.00    +0.000 HD
BRANCH  18  20
ATOM     20  C   UNL     1       4.821   5.557  18.112  0.00  0.00    +0.000 C 
BRANCH  20  21
ATOM     21  C   UNL     1       3.641   4.618  18.215  0.00  0.00    +0.000 A 
ATOM     22  C   UNL     1       3.647   3.378  17.560  0.00  0.00    +0.000 A 
ATOM     23  C   UNL     1       2.554   2.516  17.673  0.00  0.00    +0.000 A 
ATOM     24  C   UNL     1       1.456   2.895  18.436  0.00  0.00    +0.000 A 
ATOM     25  F   UNL     1       0.409   2.065  18.540  0.00  0.00    +0.000 F 
ATOM     26  C   UNL     1       1.427   4.119  19.091  0.00  0.00    +0.000 A 
ATOM     27  C   UNL     1       2.519   4.979  18.983  0.00  0.00    +0.000 A 
ENDBRANCH  20  21
ENDBRANCH  18  20
ENDBRANCH  17  18
ENDBRANCH  16  17
ENDBRANCH  15  16
ENDBRANCH   1  15
TORSDOF 9
ENDMDL
MODEL 8
REMARK VINA RESULT:      -7.2      2.653      6.653
REMARK  Name = 
REMARK  9 active torsions:
REMARK  status: ('A' for Active; 'I' for Inactive)
REMARK    1  A    between atoms: N_11  and  C_12
REMARK    2  A    between atoms: C_12  and  C_13
REMARK    3  A    between atoms: C_13  and  C_14
REMARK    4  A    between atoms: C_14  and  C_15
REMARK    5  A    between atoms: C_15  and  C_16
REMARK    6  A    between atoms: C_16  and  C_17
REMARK    7  A    between atoms: C_17  and  N_18
REMARK    8  A    between atoms: N_18  and  C_19
REMARK    9  A    between atoms: C_19  and  C_20
REMARK                            x       y       z     vdW  Elec       q    Type
REMARK                         _______ _______ _______ _____ _____    ______ ____
ROOT
ATOM      1  C   UNL     1       4.859   6.549  16.202  0.00  0.00    +0.000 C 
ENDROOT
BRANCH   1   2
ATOM      2  C   UNL     1       4.284   7.217  17.452  0.00  0.00    +0.000 C 
BRANCH   2   3
ATOM      3  C   UNL     1       2.894   6.683  17.797  0.00  0.00    +0.000 C 
BRANCH   3  14
ATOM      4  O   UNL     1       2.171   6.218  20.637  0.00  0.00    +0.000 OA
ATOM      5  C   UNL     1       1.939   7.246  20.031  0.00  0.00    +0.000 C 
ATOM      6  C   UNL     1       1.298   8.422  20.619  0.00  0.00    +0.000 A 
ATOM      7  C   UNL     1       0.819   8.638  21.896  0.00  0.00    +0.000 A 
ATOM      8  C   UNL     1       0.249   9.889  22.162  0.00  0.00    +0.000 A 
ATOM      9  C   UNL     1       0.175  10.878  21.159  0.00  0.00    +0.000 A 
ATOM     10  C   UNL     1       0.672  10.636  19.875  0.00  0.00    +0.000 A 
ATOM     11  C   UNL     1       1.229   9.394  19.638  0.00  0.00    +0.000 A 
ATOM     12  C   UNL     1       1.834   8.844  18.426  0.00  0.00    +0.000 C 
ATOM     13  O   UNL     1       1.963   9.461  17.386  0.00  0.00    +0.000 OA
ATOM     14  N   UNL     1       2.209   7.563  18.725  0.00  0.00    +0.000 N 
ENDBRANCH   3  14
ENDBRANCH   2   3
ENDBRANCH   1   2
BRANCH   1  15
ATOM     15  C   UNL     1       6.101   5.732  16.560  0.00  0.00    +0.000 C 
BRANCH  15  16
ATOM     16  C   UNL     1       6.838   6.313  17.764  0.00  0.00    +0.000 C 
BRANCH  16  17
ATOM     17  C   UNL     1       6.772   5.355  18.956  0.00  0.00    +0.000 C 
BRANCH  17  18
ATOM     18  N   UNL     1       6.054   4.148  18.559  0.00  0.00    +0.000 NA
ATOM     19  H   UNL     1       6.701   3.478  18.145  0.00  0.00    +0.000 HD
BRANCH  18  20
ATOM     20  C   UNL     1       5.388   3.521  19.698  0.00  0.00    +0.000 C 
BRANCH  20  21
ATOM     21  C   UNL     1       3.959   3.175  19.349  0.00  0.00    +0.000 A 
ATOM     22  C   UNL     1       3.519   3.184  18.017  0.00  0.00    +0.000 A 
ATOM     23  C   UNL     1       2.198   2.851  17.709  0.00  0.00    +0.000 A 
ATOM     24  C   UNL     1       1.318   2.513  18.730  0.00  0.00    +0.000 A 
ATOM     25  F   UNL     1       0.051   2.196  18.430  0.00  0.00    +0.000 F 
ATOM     26  C   UNL     1       1.731   2.501  20.056  0.00  0.00    +0.000 A 
ATOM     27  C   UNL     1       3.050   2.828  20.365  0.00  0.00    +0.000 A 
ENDBRANCH  20  21
ENDBRANCH  18  20
ENDBRANCH  17  18
ENDBRANCH  16  17
ENDBRANCH  15  16
ENDBRANCH   1  15
TORSDOF 9
ENDMDL
MODEL 9
REMARK VINA RESULT:      -7.1      6.522      8.763
REMARK  Name = 
REMARK  9 active torsions:
REMARK  status: ('A' for Active; 'I' for Inactive)
REMARK    1  A    between atoms: N_11  and  C_12
REMARK    2  A    between atoms: C_12  and  C_13
REMARK    3  A    between atoms: C_13  and  C_14
REMARK    4  A    between atoms: C_14  and  C_15
REMARK    5  A    between atoms: C_15  and  C_16
REMARK    6  A    between atoms: C_16  and  C_17
REMARK    7  A    between atoms: C_17  and  N_18
REMARK    8  A    between atoms: N_18  and  C_19
REMARK    9  A    between atoms: C_19  and  C_20
REMARK                            x       y       z     vdW  Elec       q    Type
REMARK                         _______ _______ _______ _____ _____    ______ ____
ROOT
ATOM      1  C   UNL     1       8.729   9.297  18.694  0.00  0.00    +0.000 C 
ENDROOT
BRANCH   1   2
ATOM      2  C   UNL     1       9.036  10.684  18.127  0.00  0.00    +0.000 C 
BRANCH   2   3
ATOM      3  C   UNL     1      10.164  11.377  18.889  0.00  0.00    +0.000 C 
BRANCH   3  14
ATOM      4  O   UNL     1      11.743  12.887  16.881  0.00  0.00    +0.000 OA
ATOM      5  C   UNL     1      10.947  13.394  17.648  0.00  0.00    +0.000 C 
ATOM      6  C   UNL     1      10.623  14.820  17.675  0.00  0.00    +0.000 A 
ATOM      7  C   UNL     1      11.109  15.865  16.914  0.00  0.00    +0.000 A 
ATOM      8  C   UNL     1      10.595  17.140  17.178  0.00  0.00    +0.000 A 
ATOM      9  C   UNL     1       9.622  17.335  18.180  0.00  0.00    +0.000 A 
ATOM     10  C   UNL     1       9.143  16.260  18.933  0.00  0.00    +0.000 A 
ATOM     11  C   UNL     1       9.666  15.012  18.655  0.00  0.00    +0.000 A 
ATOM     12  C   UNL     1       9.371  13.708  19.247  0.00  0.00    +0.000 C 
ATOM     13  O   UNL     1       8.542  13.525  20.118  0.00  0.00    +0.000 OA
ATOM     14  N   UNL     1      10.182  12.803  18.620  0.00  0.00    +0.000 N 
ENDBRANCH   3  14
ENDBRANCH   2   3
ENDBRANCH   1   2
BRANCH   1  15
ATOM     15  C   UNL     1       7.912   8.482  17.691  0.00  0.00    +0.000 C 
BRANCH  15  16
ATOM     16  C   UNL     1       7.791   7.019  18.110  0.00  0.00    +0.000 C 
BRANCH  16  17
ATOM     17  C   UNL     1       6.983   6.225  17.081  0.00  0.00    +0.000 C 
BRANCH  17  18
ATOM     18  N   UNL     1       5.560   6.441  17.321  0.00  0.00    +0.000 NA
ATOM     19  H   UNL     1       5.251   7.288  16.846  0.00  0.00    +0.000 HD
BRANCH  18  20
ATOM     20  C   UNL     1       4.759   5.315  16.849  0.00  0.00    +0.000 C 
BRANCH  20  21
ATOM     21  C   UNL     1       3.661   4.996  17.837  0.00  0.00    +0.000 A 
ATOM     22  C   UNL     1       2.540   4.246  17.451  0.00  0.00    +0.000 A 
ATOM     23  C   UNL     1       1.538   3.950  18.378  0.00  0.00    +0.000 A 
ATOM     24  C   UNL     1       1.656   4.404  19.687  0.00  0.00    +0.000 A 
ATOM     25  F   UNL     1       0.691   4.118  20.572  0.00  0.00    +0.000 F 
ATOM     26  C   UNL     1       2.756   5.150  20.090  0.00  0.00    +0.000 A 
ATOM     27  C   UNL     1       3.759   5.443  19.167  0.00  0.00    +0.000 A 
ENDBRANCH  20  21
ENDBRANCH  18  20
ENDBRANCH  17  18
ENDBRANCH  16  17
ENDBRANCH  15  16
ENDBRANCH   1  15
TORSDOF 9
ENDMDL
