MODEL 1
REMARK VINA RESULT:      -8.4      0.000      0.000
REMARK  Name = 
REMARK  7 active torsions:
REMARK  status: ('A' for Active; 'I' for Inactive)
REMARK    1  A    between atoms: C_1  and  C_2
REMARK    2  A    between atoms: C_2  and  C_3
REMARK    3  A    between atoms: C_3  and  N_4
REMARK    4  A    between atoms: C_7  and  O_8
REMARK    5  A    between atoms: O_8  and  C_9
REMARK    6  A    between atoms: C_12  and  N_13
REMARK    7  A    between atoms: C_14  and  C_15
REMARK                            x       y       z     vdW  Elec       q    Type
REMARK                         _______ _______ _______ _____ _____    ______ ____
ROOT
ATOM      1  C   UNL     1       2.902   6.989  18.343  0.00  0.00    +0.000 A 
ATOM      2  C   UNL     1       2.608   8.157  17.639  0.00  0.00    +0.000 A 
ATOM      3  C   UNL     1       1.846   9.192  18.226  0.00  0.00    +0.000 A 
ATOM      4  C   UNL     1       1.378   9.081  19.534  0.00  0.00    +0.000 A 
ATOM      5  C   UNL     1       1.690   7.903  20.227  0.00  0.00    +0.000 A 
ATOM      6  C   UNL     1       2.417   6.869  19.638  0.00  0.00    +0.000 A 
ENDROOT
BRANCH   4   7
ATOM      7  N   UNL     1       0.586  10.094  20.171  0.00  0.00    +0.000 N 
ATOM      8  C   UNL     1      -0.176  10.951  19.394  0.00  0.00    +0.000 A 
ATOM      9  C   UNL     1      -1.512  10.323  19.010  0.00  0.00    +0.000 C 
ATOM     10  N   UNL     1      -0.123  12.227  19.603  0.00  0.00    +0.000 NA
ATOM     11  C   UNL     1      -0.515  12.498  20.926  0.00  0.00    +0.000 A 
ATOM     12  C   UNL     1      -1.342  13.586  21.150  0.00  0.00    +0.000 A 
ATOM     13  C   UNL     1      -2.207  13.554  22.254  0.00  0.00    +0.000 A 
ATOM     14  C   UNL     1      -2.196  12.457  23.121  0.00  0.00    +0.000 A 
ATOM     15  C   UNL     1      -1.250  11.438  22.978  0.00  0.00    +0.000 A 
ATOM     16  C   UNL     1      -0.384  11.479  21.884  0.00  0.00    +0.000 A 
ATOM     17  C   UNL     1       0.508  10.327  21.539  0.00  0.00    +0.000 A 
ATOM     18  O   UNL     1       1.030   9.697  22.452  0.00  0.00    +0.000 OA
ENDBRANCH   4   7
BRANCH   1  19
ATOM     19  O   UNL     1       3.652   6.056  17.678  0.00  0.00    +0.000 OA
BRANCH  19  23
ATOM     20  N   UNL     1       6.518   4.572  16.163  0.00  0.00    +0.000 NA
ATOM     21  C   UNL     1       6.388   5.989  16.534  0.00  0.00    +0.000 C 
ATOM     22  C   UNL     1       6.084   6.133  18.021  0.00  0.00    +0.000 C 
ATOM     23  C   UNL     1       4.762   5.452  18.370  0.00  0.00    +0.000 C 
ATOM     24  C   UNL     1       4.862   3.980  17.942  0.00  0.00    +0.000 C 
ATOM     25  C   UNL     1       5.276   3.838  16.474  0.00  0.00    +0.000 C 
BRANCH  20  26
ATOM     26  C   UNL     1       6.839   4.416  14.732  0.00  0.00    +0.000 C 
BRANCH  26  28
ATOM     27  C   UNL     1       6.087   3.434  12.495  0.00  0.00    +0.000 C 
ATOM     28  C   UNL     1       5.657   4.014  13.835  0.00  0.00    +0.000 C 
ENDBRANCH  26  28
ENDBRANCH  20  26
ENDBRANCH  19  23
ENDBRANCH   1  19
TORSDOF 5
ENDMDL
MODEL 2
REMARK VINA RESULT:      -8.1      1.388      1.862
REMARK  Name = 
REMARK  7 active torsions:
REMARK  status: ('A' for Active; 'I' for Inactive)
REMARK    1  A    between atoms: C_1  and  C_2
REMARK    2  A    between atoms: C_2  and  C_3
REMARK    3  A    between atoms: C_3  and  N_4
REMARK    4  A    between atoms: C_7  and  O_8
REMARK    5  A    between atoms: O_8  and  C_9
REMARK    6  A    between atoms: C_12  and  N_13
REMARK    7  A    between atoms: C_14  and  C_15
REMARK                            x       y       z     vdW  Elec       q    Type
REMARK                         _______ _______ _______ _____ _____    ______ ____
ROOT
ATOM      1  C   UNL     1       2.635   7.439  18.452  0.00  0.00    +0.000 A 
ATOM      2  C   UNL     1       2.250   8.533  17.679  0.00  0.00    +0.000 A 
ATOM      3  C   UNL     1       1.446   9.563  18.219  0.00  0.00    +0.000 A 
ATOM      4  C   UNL     1       1.026   9.520  19.547  0.00  0.00    +0.000 A 
ATOM      5  C   UNL     1       1.429   8.415  20.310  0.00  0.00    +0.000 A 
ATOM      6  C   UNL     1       2.198   7.385  19.769  0.00  0.00    +0.000 A 
ENDROOT
BRANCH   4   7
ATOM      7  N   UNL     1       0.195  10.528  20.140  0.00  0.00    +0.000 N 
ATOM      8  C   UNL     1       0.686  11.280  21.194  0.00  0.00    +0.000 A 
ATOM      9  C   UNL     1       1.539  12.446  20.704  0.00  0.00    +0.000 C 
ATOM     10  N   UNL     1      -0.028  11.435  22.262  0.00  0.00    +0.000 NA
ATOM     11  C   UNL     1      -1.246  12.050  21.920  0.00  0.00    +0.000 A 
ATOM     12  C   UNL     1      -1.732  13.043  22.754  0.00  0.00    +0.000 A 
ATOM     13  C   UNL     1      -2.541  14.046  22.201  0.00  0.00    +0.000 A 
ATOM     14  C   UNL     1      -2.873  14.009  20.843  0.00  0.00    +0.000 A 
ATOM     15  C   UNL     1      -2.511  12.921  20.044  0.00  0.00    +0.000 A 
ATOM     16  C   UNL     1      -1.714  11.920  20.601  0.00  0.00    +0.000 A 
ATOM     17  C   UNL     1      -1.107  10.836  19.765  0.00  0.00    +0.000 A 
ATOM     18  O   UNL     1      -1.767  10.370  18.843  0.00  0.00    +0.000 OA
ENDBRANCH   4   7
BRANCH   1  19
ATOM     19  O   UNL     1       3.419   6.505  17.828  0.00  0.00    +0.000 OA
BRANCH  19  23
ATOM     20  N   UNL     1       5.911   4.154  16.845  0.00  0.00    +0.000 NA
ATOM     21  C   UNL     1       6.158   5.392  17.598  0.00  0.00    +0.000 C 
ATOM     22  C   UNL     1       5.346   5.411  18.889  0.00  0.00    +0.000 C 
ATOM     23  C   UNL     1       3.849   5.358  18.585  0.00  0.00    +0.000 C 
ATOM     24  C   UNL     1       3.582   4.094  17.754  0.00  0.00    +0.000 C 
ATOM     25  C   UNL     1       4.479   4.024  16.514  0.00  0.00    +0.000 C 
BRANCH  20  26
ATOM     26  C   UNL     1       6.711   4.108  15.607  0.00  0.00    +0.000 C 
BRANCH  26  28
ATOM     27  C   UNL     1       6.226   3.672  13.135  0.00  0.00    +0.000 C 
ATOM     28  C   UNL     1       5.981   4.573  14.337  0.00  0.00    +0.000 C 
ENDBRANCH  26  28
ENDBRANCH  20  26
ENDBRANCH  19  23
ENDBRANCH   1  19
TORSDOF 5
ENDMDL
MODEL 3
REMARK VINA RESULT:      -8.1      0.484      1.023
REMARK  Name = 
REMARK  7 active torsions:
REMARK  status: ('A' for Active; 'I' for Inactive)
REMARK    1  A    between atoms: C_1  and  C_2
REMARK    2  A    between atoms: C_2  and  C_3
REMARK    3  A    between atoms: C_3  and  N_4
REMARK    4  A    between atoms: C_7  and  O_8
REMARK    5  A    between atoms: O_8  and  C_9
REMARK    6  A    between atoms: C_12  and  N_13
REMARK    7  A    between atoms: C_14  and  C_15
REMARK                            x       y       z     vdW  Elec       q    Type
REMARK                         _______ _______ _______ _____ _____    ______ ____
ROOT
ATOM      1  C   UNL     1       2.680   7.272  18.329  0.00  0.00    +0.000 A 
ATOM      2  C   UNL     1       2.261   7.100  19.648  0.00  0.00    +0.000 A 
ATOM      3  C   UNL     1       1.526   8.105  20.317  0.00  0.00    +0.000 A 
ATOM      4  C   UNL     1       1.185   9.292  19.671  0.00  0.00    +0.000 A 
ATOM      5  C   UNL     1       1.609   9.442  18.343  0.00  0.00    +0.000 A 
ATOM      6  C   UNL     1       2.360   8.462  17.693  0.00  0.00    +0.000 A 
ENDROOT
BRANCH   4   7
ATOM      7  N   UNL     1       0.456  10.350  20.309  0.00  0.00    +0.000 N 
ATOM      8  C   UNL     1      -0.179  11.304  19.530  0.00  0.00    +0.000 A 
ATOM      9  C   UNL     1      -1.544  10.820  19.049  0.00  0.00    +0.000 C 
ATOM     10  N   UNL     1      -0.020  12.561  19.794  0.00  0.00    +0.000 NA
ATOM     11  C   UNL     1      -0.459  12.818  21.105  0.00  0.00    +0.000 A 
ATOM     12  C   UNL     1      -1.193  13.970  21.332  0.00  0.00    +0.000 A 
ATOM     13  C   UNL     1      -2.118  13.980  22.386  0.00  0.00    +0.000 A 
ATOM     14  C   UNL     1      -2.257  12.855  23.206  0.00  0.00    +0.000 A 
ATOM     15  C   UNL     1      -1.404  11.757  23.069  0.00  0.00    +0.000 A 
ATOM     16  C   UNL     1      -0.477  11.756  22.025  0.00  0.00    +0.000 A 
ATOM     17  C   UNL     1       0.322  10.539  21.679  0.00  0.00    +0.000 A 
ATOM     18  O   UNL     1       0.732   9.829  22.591  0.00  0.00    +0.000 OA
ENDBRANCH   4   7
BRANCH   1  19
ATOM     19  O   UNL     1       3.380   6.231  17.779  0.00  0.00    +0.000 OA
BRANCH  19  23
ATOM     20  N   UNL     1       6.143   4.236  16.733  0.00  0.00    +0.000 NA
ATOM     21  C   UNL     1       6.207   5.662  17.085  0.00  0.00    +0.000 C 
ATOM     22  C   UNL     1       5.703   5.893  18.506  0.00  0.00    +0.000 C 
ATOM     23  C   UNL     1       4.243   5.459  18.636  0.00  0.00    +0.000 C 
ATOM     24  C   UNL     1       4.151   3.982  18.224  0.00  0.00    +0.000 C 
ATOM     25  C   UNL     1       4.759   3.736  16.839  0.00  0.00    +0.000 C 
BRANCH  20  26
ATOM     26  C   UNL     1       6.654   3.994  15.371  0.00  0.00    +0.000 C 
BRANCH  26  28
ATOM     27  C   UNL     1       5.977   3.626  12.933  0.00  0.00    +0.000 C 
ATOM     28  C   UNL     1       5.687   4.362  14.233  0.00  0.00    +0.000 C 
ENDBRANCH  26  28
ENDBRANCH  20  26
ENDBRANCH  19  23
ENDBRANCH   1  19
TORSDOF 5
ENDMDL
MODEL 4
REMARK VINA RESULT:      -7.9      1.839      2.756
REMARK  Name = 
REMARK  7 active torsions:
REMARK  status: ('A' for Active; 'I' for Inactive)
REMARK    1  A    between atoms: C_1  and  C_2
REMARK    2  A    between atoms: C_2  and  C_3
REMARK    3  A    between atoms: C_3  and  N_4
REMARK    4  A    between atoms: C_7  and  O_8
REMARK    5  A    between atoms: O_8  and  C_9
REMARK    6  A    between atoms: C_12  and  N_13
REMARK    7  A    between atoms: C_14  and  C_15
REMARK                            x       y       z     vdW  Elec       q    Type
REMARK                         _______ _______ _______ _____ _____    ______ ____
ROOT
ATOM      1  C   UNL     1       2.554   7.508  18.365  0.00  0.00    +0.000 A 
ATOM      2  C   UNL     1       2.171   8.619  17.614  0.00  0.00    +0.000 A 
ATOM      3  C   UNL     1       1.379   9.644  18.179  0.00  0.00    +0.000 A 
ATOM      4  C   UNL     1       0.970   9.582  19.509  0.00  0.00    +0.000 A 
ATOM      5  C   UNL     1       1.372   8.461  20.249  0.00  0.00    +0.000 A 
ATOM      6  C   UNL     1       2.129   7.434  19.684  0.00  0.00    +0.000 A 
ENDROOT
BRANCH   4   7
ATOM      7  N   UNL     1       0.153  10.586  20.127  0.00  0.00    +0.000 N 
ATOM      8  C   UNL     1       0.664  11.325  21.181  0.00  0.00    +0.000 A 
ATOM      9  C   UNL     1       1.511  12.495  20.689  0.00  0.00    +0.000 C 
ATOM     10  N   UNL     1      -0.032  11.471  22.262  0.00  0.00    +0.000 NA
ATOM     11  C   UNL     1      -1.254  12.092  21.947  0.00  0.00    +0.000 A 
ATOM     12  C   UNL     1      -1.723  13.078  22.799  0.00  0.00    +0.000 A 
ATOM     13  C   UNL     1      -2.538  14.089  22.271  0.00  0.00    +0.000 A 
ATOM     14  C   UNL     1      -2.893  14.068  20.918  0.00  0.00    +0.000 A 
ATOM     15  C   UNL     1      -2.547  12.988  20.102  0.00  0.00    +0.000 A 
ATOM     16  C   UNL     1      -1.744  11.978  20.635  0.00  0.00    +0.000 A 
ATOM     17  C   UNL     1      -1.155  10.901  19.777  0.00  0.00    +0.000 A 
ATOM     18  O   UNL     1      -1.831  10.447  18.861  0.00  0.00    +0.000 OA
ENDBRANCH   4   7
BRANCH   1  19
ATOM     19  O   UNL     1       3.325   6.580  17.718  0.00  0.00    +0.000 OA
BRANCH  19  23
ATOM     20  N   UNL     1       6.121   4.466  18.370  0.00  0.00    +0.000 NA
ATOM     21  C   UNL     1       5.481   5.357  19.348  0.00  0.00    +0.000 C 
ATOM     22  C   UNL     1       4.000   5.024  19.496  0.00  0.00    +0.000 C 
ATOM     23  C   UNL     1       3.270   5.212  18.167  0.00  0.00    +0.000 C 
ATOM     24  C   UNL     1       3.959   4.324  17.120  0.00  0.00    +0.000 C 
ATOM     25  C   UNL     1       5.468   4.585  17.053  0.00  0.00    +0.000 C 
BRANCH  20  26
ATOM     26  C   UNL     1       7.561   4.758  18.236  0.00  0.00    +0.000 C 
BRANCH  26  28
ATOM     27  C   UNL     1       7.942   7.276  18.008  0.00  0.00    +0.000 C 
ATOM     28  C   UNL     1       8.032   6.056  18.913  0.00  0.00    +0.000 C 
ENDBRANCH  26  28
ENDBRANCH  20  26
ENDBRANCH  19  23
ENDBRANCH   1  19
TORSDOF 5
ENDMDL
MODEL 5
REMARK VINA RESULT:      -7.7      1.195      1.508
REMARK  Name = 
REMARK  7 active torsions:
REMARK  status: ('A' for Active; 'I' for Inactive)
REMARK    1  A    between atoms: C_1  and  C_2
REMARK    2  A    between atoms: C_2  and  C_3
REMARK    3  A    between atoms: C_3  and  N_4
REMARK    4  A    between atoms: C_7  and  O_8
REMARK    5  A    between atoms: O_8  and  C_9
REMARK    6  A    between atoms: C_12  and  N_13
REMARK    7  A    between atoms: C_14  and  C_15
REMARK                            x       y       z     vdW  Elec       q    Type
REMARK                         _______ _______ _______ _____ _____    ______ ____
ROOT
ATOM      1  C   UNL     1       2.243   7.824  18.929  0.00  0.00    +0.000 A 
ATOM      2  C   UNL     1       1.937   8.958  18.176  0.00  0.00    +0.000 A 
ATOM      3  C   UNL     1       1.172  10.013  18.723  0.00  0.00    +0.000 A 
ATOM      4  C   UNL     1       0.714   9.958  20.037  0.00  0.00    +0.000 A 
ATOM      5  C   UNL     1       1.039   8.814  20.780  0.00  0.00    +0.000 A 
ATOM      6  C   UNL     1       1.769   7.759  20.231  0.00  0.00    +0.000 A 
ENDROOT
BRANCH   4   7
ATOM      7  N   UNL     1      -0.079  10.993  20.636  0.00  0.00    +0.000 N 
ATOM      8  C   UNL     1      -0.673  11.948  19.827  0.00  0.00    +0.000 A 
ATOM      9  C   UNL     1      -1.990  11.448  19.241  0.00  0.00    +0.000 C 
ATOM     10  N   UNL     1      -0.558  13.203  20.121  0.00  0.00    +0.000 NA
ATOM     11  C   UNL     1      -1.096  13.431  21.400  0.00  0.00    +0.000 A 
ATOM     12  C   UNL     1      -1.866  14.566  21.589  0.00  0.00    +0.000 A 
ATOM     13  C   UNL     1      -2.865  14.542  22.573  0.00  0.00    +0.000 A 
ATOM     14  C   UNL     1      -3.042  13.401  23.364  0.00  0.00    +0.000 A 
ATOM     15  C   UNL     1      -2.161  12.321  23.274  0.00  0.00    +0.000 A 
ATOM     16  C   UNL     1      -1.161  12.354  22.300  0.00  0.00    +0.000 A 
ATOM     17  C   UNL     1      -0.315  11.156  21.995  0.00  0.00    +0.000 A 
ATOM     18  O   UNL     1       0.040  10.439  22.924  0.00  0.00    +0.000 OA
ENDBRANCH   4   7
BRANCH   1  19
ATOM     19  O   UNL     1       2.995   6.868  18.300  0.00  0.00    +0.000 OA
BRANCH  19  23
ATOM     20  N   UNL     1       5.396   4.337  17.568  0.00  0.00    +0.000 NA
ATOM     21  C   UNL     1       5.529   5.360  18.615  0.00  0.00    +0.000 C 
ATOM     22  C   UNL     1       4.361   5.287  19.593  0.00  0.00    +0.000 C 
ATOM     23  C   UNL     1       3.039   5.547  18.873  0.00  0.00    +0.000 C 
ATOM     24  C   UNL     1       2.908   4.516  17.741  0.00  0.00    +0.000 C 
ATOM     25  C   UNL     1       4.135   4.516  16.824  0.00  0.00    +0.000 C 
BRANCH  20  26
ATOM     26  C   UNL     1       6.534   4.376  16.629  0.00  0.00    +0.000 C 
BRANCH  26  28
ATOM     27  C   UNL     1       6.783   4.735  14.110  0.00  0.00    +0.000 C 
ATOM     28  C   UNL     1       6.237   3.845  15.217  0.00  0.00    +0.000 C 
ENDBRANCH  26  28
ENDBRANCH  20  26
ENDBRANCH  19  23
ENDBRANCH   1  19
TORSDOF 5
ENDMDL
MODEL 6
REMARK VINA RESULT:      -7.6      2.136      3.641
REMARK  Name = 
REMARK  7 active torsions:
REMARK  status: ('A' for Active; 'I' for Inactive)
REMARK    1  A    between atoms: C_1  and  C_2
REMARK    2  A    between atoms: C_2  and  C_3
REMARK    3  A    between atoms: C_3  and  N_4
REMARK    4  A    between atoms: C_7  and  O_8
REMARK    5  A    between atoms: O_8  and  C_9
REMARK    6  A    between atoms: C_12  and  N_13
REMARK    7  A    between atoms: C_14  and  C_15
REMARK                            x       y       z     vdW  Elec       q    Type
REMARK                         _______ _______ _______ _____ _____    ______ ____
ROOT
ATOM      1  C   UNL     1       2.973   6.872  18.665  0.00  0.00    +0.000 A 
ATOM      2  C   UNL     1       2.362   6.920  19.918  0.00  0.00    +0.000 A 
ATOM      3  C   UNL     1       1.585   8.035  20.308  0.00  0.00    +0.000 A 
ATOM      4  C   UNL     1       1.397   9.113  19.446  0.00  0.00    +0.000 A 
ATOM      5  C   UNL     1       2.014   9.042  18.189  0.00  0.00    +0.000 A 
ATOM      6  C   UNL     1       2.804   7.955  17.814  0.00  0.00    +0.000 A 
ENDROOT
BRANCH   4   7
ATOM      7  N   UNL     1       0.633  10.275  19.799  0.00  0.00    +0.000 N 
ATOM      8  C   UNL     1      -0.081  10.943  18.818  0.00  0.00    +0.000 A 
ATOM      9  C   UNL     1      -1.433  10.286  18.560  0.00  0.00    +0.000 C 
ATOM     10  N   UNL     1       0.017  12.229  18.713  0.00  0.00    +0.000 NA
ATOM     11  C   UNL     1      -0.388  12.826  19.921  0.00  0.00    +0.000 A 
ATOM     12  C   UNL     1      -1.176  13.962  19.854  0.00  0.00    +0.000 A 
ATOM     13  C   UNL     1      -2.061  14.227  20.908  0.00  0.00    +0.000 A 
ATOM     14  C   UNL     1      -2.108  13.373  22.015  0.00  0.00    +0.000 A 
ATOM     15  C   UNL     1      -1.200  12.319  22.148  0.00  0.00    +0.000 A 
ATOM     16  C   UNL     1      -0.314  12.065  21.100  0.00  0.00    +0.000 A 
ATOM     17  C   UNL     1       0.539  10.835  21.067  0.00  0.00    +0.000 A 
ATOM     18  O   UNL     1       1.021  10.429  22.119  0.00  0.00    +0.000 OA
ENDBRANCH   4   7
BRANCH   1  19
ATOM     19  O   UNL     1       3.696   5.741  18.391  0.00  0.00    +0.000 OA
BRANCH  19  23
ATOM     20  N   UNL     1       2.127   2.555  18.692  0.00  0.00    +0.000 NA
ATOM     21  C   UNL     1       1.429   3.847  18.655  0.00  0.00    +0.000 C 
ATOM     22  C   UNL     1       1.766   4.608  17.377  0.00  0.00    +0.000 C 
ATOM     23  C   UNL     1       3.264   4.901  17.303  0.00  0.00    +0.000 C 
ATOM     24  C   UNL     1       4.011   3.562  17.391  0.00  0.00    +0.000 C 
ATOM     25  C   UNL     1       3.588   2.751  18.621  0.00  0.00    +0.000 C 
BRANCH  20  26
ATOM     26  C   UNL     1       1.789   1.794  19.910  0.00  0.00    +0.000 C 
BRANCH  26  28
ATOM     27  C   UNL     1       2.282   3.265  21.943  0.00  0.00    +0.000 C 
ATOM     28  C   UNL     1       1.213   2.629  21.065  0.00  0.00    +0.000 C 
ENDBRANCH  26  28
ENDBRANCH  20  26
ENDBRANCH  19  23
ENDBRANCH   1  19
TORSDOF 5
ENDMDL
MODEL 7
REMARK VINA RESULT:      -7.6      1.559      2.321
REMARK  Name = 
REMARK  7 active torsions:
REMARK  status: ('A' for Active; 'I' for Inactive)
REMARK    1  A    between atoms: C_1  and  C_2
REMARK    2  A    between atoms: C_2  and  C_3
REMARK    3  A    between atoms: C_3  and  N_4
REMARK    4  A    between atoms: C_7  and  O_8
REMARK    5  A    between atoms: O_8  and  C_9
REMARK    6  A    between atoms: C_12  and  N_13
REMARK    7  A    between atoms: C_14  and  C_15
REMARK                            x       y       z     vdW  Elec       q    Type
REMARK                         _______ _______ _______ _____ _____    ______ ____
ROOT
ATOM      1  C   UNL     1       2.451   7.779  18.505  0.00  0.00    +0.000 A 
ATOM      2  C   UNL     1       2.032   7.643  19.829  0.00  0.00    +0.000 A 
ATOM      3  C   UNL     1       1.232   8.630  20.447  0.00  0.00    +0.000 A 
ATOM      4  C   UNL     1       0.826   9.763  19.746  0.00  0.00    +0.000 A 
ATOM      5  C   UNL     1       1.251   9.879  18.415  0.00  0.00    +0.000 A 
ATOM      6  C   UNL     1       2.064   8.919  17.814  0.00  0.00    +0.000 A 
ENDROOT
BRANCH   4   7
ATOM      7  N   UNL     1       0.028  10.803  20.331  0.00  0.00    +0.000 N 
ATOM      8  C   UNL     1       0.545  11.550  21.377  0.00  0.00    +0.000 A 
ATOM      9  C   UNL     1       1.433  12.684  20.874  0.00  0.00    +0.000 C 
ATOM     10  N   UNL     1      -0.161  11.738  22.445  0.00  0.00    +0.000 NA
ATOM     11  C   UNL     1      -1.360  12.387  22.099  0.00  0.00    +0.000 A 
ATOM     12  C   UNL     1      -1.812  13.403  22.924  0.00  0.00    +0.000 A 
ATOM     13  C   UNL     1      -2.590  14.426  22.364  0.00  0.00    +0.000 A 
ATOM     14  C   UNL     1      -2.927  14.386  21.006  0.00  0.00    +0.000 A 
ATOM     15  C   UNL     1      -2.601  13.280  20.217  0.00  0.00    +0.000 A 
ATOM     16  C   UNL     1      -1.835  12.259  20.783  0.00  0.00    +0.000 A 
ATOM     17  C   UNL     1      -1.264  11.148  19.956  0.00  0.00    +0.000 A 
ATOM     18  O   UNL     1      -1.941  10.694  19.040  0.00  0.00    +0.000 OA
ENDBRANCH   4   7
BRANCH   1  19
ATOM     19  O   UNL     1       3.217   6.759  18.007  0.00  0.00    +0.000 OA
BRANCH  19  23
ATOM     20  N   UNL     1       5.142   3.887  17.140  0.00  0.00    +0.000 NA
ATOM     21  C   UNL     1       5.667   5.103  17.779  0.00  0.00    +0.000 C 
ATOM     22  C   UNL     1       4.940   5.382  19.090  0.00  0.00    +0.000 C 
ATOM     23  C   UNL     1       3.449   5.608  18.842  0.00  0.00    +0.000 C 
ATOM     24  C   UNL     1       2.895   4.366  18.128  0.00  0.00    +0.000 C 
ATOM     25  C   UNL     1       3.699   4.024  16.869  0.00  0.00    +0.000 C 
BRANCH  20  26
ATOM     26  C   UNL     1       5.855   3.589  15.883  0.00  0.00    +0.000 C 
BRANCH  26  28
ATOM     27  C   UNL     1       7.000   4.904  14.013  0.00  0.00    +0.000 C 
ATOM     28  C   UNL     1       6.958   4.590  15.502  0.00  0.00    +0.000 C 
ENDBRANCH  26  28
ENDBRANCH  20  26
ENDBRANCH  19  23
ENDBRANCH   1  19
TORSDOF 5
ENDMDL
MODEL 8
REMARK VINA RESULT:      -7.5      1.316      1.934
REMARK  Name = 
REMARK  7 active torsions:
REMARK  status: ('A' for Active; 'I' for Inactive)
REMARK    1  A    between atoms: C_1  and  C_2
REMARK    2  A    between atoms: C_2  and  C_3
REMARK    3  A    between atoms: C_3  and  N_4
REMARK    4  A    between atoms: C_7  and  O_8
REMARK    5  A    between atoms: O_8  and  C_9
REMARK    6  A    between atoms: C_12  and  N_13
REMARK    7  A    between atoms: C_14  and  C_15
REMARK                            x       y       z     vdW  Elec       q    Type
REMARK                         _______ _______ _______ _____ _____    ______ ____
ROOT
ATOM      1  C   UNL     1       2.223   7.751  18.985  0.00  0.00    +0.000 A 
ATOM      2  C   UNL     1       1.920   7.584  20.336  0.00  0.00    +0.000 A 
ATOM      3  C   UNL     1       1.211   8.575  21.053  0.00  0.00    +0.000 A 
ATOM      4  C   UNL     1       0.782   9.742  20.425  0.00  0.00    +0.000 A 
ATOM      5  C   UNL     1       1.091   9.888  19.065  0.00  0.00    +0.000 A 
ATOM      6  C   UNL     1       1.815   8.923  18.365  0.00  0.00    +0.000 A 
ENDROOT
BRANCH   4   7
ATOM      7  N   UNL     1       0.076  10.787  21.110  0.00  0.00    +0.000 N 
ATOM      8  C   UNL     1       0.033  12.056  20.556  0.00  0.00    +0.000 A 
ATOM      9  C   UNL     1      -1.065  12.172  19.503  0.00  0.00    +0.000 C 
ATOM     10  N   UNL     1       0.309  13.087  21.286  0.00  0.00    +0.000 NA
ATOM     11  C   UNL     1      -0.585  13.139  22.371  0.00  0.00    +0.000 A 
ATOM     12  C   UNL     1      -1.103  14.372  22.730  0.00  0.00    +0.000 A 
ATOM     13  C   UNL     1      -2.366  14.418  23.338  0.00  0.00    +0.000 A 
ATOM     14  C   UNL     1      -3.058  13.232  23.605  0.00  0.00    +0.000 A 
ATOM     15  C   UNL     1      -2.462  11.987  23.385  0.00  0.00    +0.000 A 
ATOM     16  C   UNL     1      -1.200  11.947  22.789  0.00  0.00    +0.000 A 
ATOM     17  C   UNL     1      -0.586  10.662  22.325  0.00  0.00    +0.000 A 
ATOM     18  O   UNL     1      -0.750   9.656  23.006  0.00  0.00    +0.000 OA
ENDBRANCH   4   7
BRANCH   1  19
ATOM     19  O   UNL     1       2.907   6.725  18.389  0.00  0.00    +0.000 OA
BRANCH  19  23
ATOM     20  N   UNL     1       4.881   3.923  17.406  0.00  0.00    +0.000 NA
ATOM     21  C   UNL     1       5.348   5.047  18.230  0.00  0.00    +0.000 C 
ATOM     22  C   UNL     1       4.489   5.194  19.482  0.00  0.00    +0.000 C 
ATOM     23  C   UNL     1       3.036   5.482  19.107  0.00  0.00    +0.000 C 
ATOM     24  C   UNL     1       2.547   4.341  18.203  0.00  0.00    +0.000 C 
ATOM     25  C   UNL     1       3.476   4.124  17.003  0.00  0.00    +0.000 C 
BRANCH  20  26
ATOM     26  C   UNL     1       5.720   3.751  16.205  0.00  0.00    +0.000 C 
BRANCH  26  28
ATOM     27  C   UNL     1       6.707   4.894  14.142  0.00  0.00    +0.000 C 
ATOM     28  C   UNL     1       6.254   5.053  15.586  0.00  0.00    +0.000 C 
ENDBRANCH  26  28
ENDBRANCH  20  26
ENDBRANCH  19  23
ENDBRANCH   1  19
TORSDOF 5
ENDMDL
MODEL 9
REMARK VINA RESULT:      -7.5      1.269      2.083
REMARK  Name = 
REMARK  7 active torsions:
REMARK  status: ('A' for Active; 'I' for Inactive)
REMARK    1  A    between atoms: C_1  and  C_2
REMARK    2  A    between atoms: C_2  and  C_3
REMARK    3  A    between atoms: C_3  and  N_4
REMARK    4  A    between atoms: C_7  and  O_8
REMARK    5  A    between atoms: O_8  and  C_9
REMARK    6  A    between atoms: C_12  and  N_13
REMARK    7  A    between atoms: C_14  and  C_15
REMARK                            x       y       z     vdW  Elec       q    Type
REMARK                         _______ _______ _______ _____ _____    ______ ____
ROOT
ATOM      1  C   UNL     1       2.980   6.456  18.285  0.00  0.00    +0.000 A 
ATOM      2  C   UNL     1       2.417   6.149  19.524  0.00  0.00    +0.000 A 
ATOM      3  C   UNL     1       1.741   7.130  20.282  0.00  0.00    +0.000 A 
ATOM      4  C   UNL     1       1.603   8.433  19.807  0.00  0.00    +0.000 A 
ATOM      5  C   UNL     1       2.169   8.720  18.557  0.00  0.00    +0.000 A 
ATOM      6  C   UNL     1       2.862   7.759  17.821  0.00  0.00    +0.000 A 
ENDROOT
BRANCH   4   7
ATOM      7  N   UNL     1       0.942   9.471  20.544  0.00  0.00    +0.000 N 
ATOM      8  C   UNL     1       0.550   9.233  21.851  0.00  0.00    +0.000 A 
ATOM      9  C   UNL     1       1.701   9.442  22.830  0.00  0.00    +0.000 C 
ATOM     10  N   UNL     1      -0.652   9.532  22.228  0.00  0.00    +0.000 NA
ATOM     11  C   UNL     1      -0.870  10.908  22.033  0.00  0.00    +0.000 A 
ATOM     12  C   UNL     1      -1.544  11.607  23.019  0.00  0.00    +0.000 A 
ATOM     13  C   UNL     1      -1.274  12.974  23.176  0.00  0.00    +0.000 A 
ATOM     14  C   UNL     1      -0.368  13.612  22.322  0.00  0.00    +0.000 A 
ATOM     15  C   UNL     1       0.188  12.937  21.232  0.00  0.00    +0.000 A 
ATOM     16  C   UNL     1      -0.092  11.579  21.073  0.00  0.00    +0.000 A 
ATOM     17  C   UNL     1       0.626  10.737  20.065  0.00  0.00    +0.000 A 
ATOM     18  O   UNL     1       0.895  11.230  18.975  0.00  0.00    +0.000 OA
ENDBRANCH   4   7
BRANCH   1  19
ATOM     19  O   UNL     1       3.606   5.426  17.635  0.00  0.00    +0.000 OA
BRANCH  19  23
ATOM     20  N   UNL     1       6.588   4.622  15.854  0.00  0.00    +0.000 NA
ATOM     21  C   UNL     1       6.273   5.933  16.440  0.00  0.00    +0.000 C 
ATOM     22  C   UNL     1       6.014   5.808  17.938  0.00  0.00    +0.000 C 
ATOM     23  C   UNL     1       4.818   4.895  18.204  0.00  0.00    +0.000 C 
ATOM     24  C   UNL     1       5.110   3.534  17.553  0.00  0.00    +0.000 C 
ATOM     25  C   UNL     1       5.478   3.676  16.072  0.00  0.00    +0.000 C 
BRANCH  20  26
ATOM     26  C   UNL     1       6.868   4.731  14.410  0.00  0.00    +0.000 C 
BRANCH  26  28
ATOM     27  C   UNL     1       6.674   3.545  12.153  0.00  0.00    +0.000 C 
ATOM     28  C   UNL     1       6.034   3.806  13.509  0.00  0.00    +0.000 C 
ENDBRANCH  26  28
ENDBRANCH  20  26
ENDBRANCH  19  23
ENDBRANCH   1  19
TORSDOF 5
ENDMDL
