MODEL 1
REMARK VINA RESULT:      -7.9      0.000      0.000
REMARK  Name = 
REMARK  6 active torsions:
REMARK  status: ('A' for Active; 'I' for Inactive)
REMARK    1  A    between atoms: C_1  and  C_2
REMARK    2  A    between atoms: C_3  and  C_4
REMARK    3  A    between atoms: C_7  and  C_8
REMARK    4  A    between atoms: C_8  and  C_9
REMARK    5  A    between atoms: C_8  and  C_10
REMARK    6  A    between atoms: C_22  and  C_24
REMARK                            x       y       z     vdW  Elec       q    Type
REMARK                         _______ _______ _______ _____ _____    ______ ____
ROOT
ATOM      1  C   UNL     1       1.770  10.243  17.992  0.00  0.00    +0.000 C 
ATOM      2  C   UNL     1       1.364  10.137  19.411  0.00  0.00    +0.000 C 
ATOM      3  C   UNL     1       1.332   9.064  20.200  0.00  0.00    +0.000 C 
ATOM      4  S   UNL     1       0.854   9.430  21.812  0.00  0.00    +0.000 S 
ATOM      5  O   UNL     1      -0.458   8.894  22.081  0.00  0.00    +0.000 OA
ATOM      6  O   UNL     1       1.968   9.219  22.724  0.00  0.00    +0.000 OA
ATOM      7  N   UNL     1       0.729  11.030  21.510  0.00  0.00    +0.000 NA
ATOM      8  C   UNL     1       1.022  11.300  20.272  0.00  0.00    +0.000 C 
ATOM      9  N   UNL     1       1.113  12.599  19.803  0.00  0.00    +0.000 N 
ATOM     10  C   UNL     1       1.994  13.509  20.582  0.00  0.00    +0.000 C 
ATOM     11  C   UNL     1       2.397  14.710  19.713  0.00  0.00    +0.000 C 
ATOM     12  N   UNL     1       1.212  15.404  19.206  0.00  0.00    +0.000 N 
ATOM     13  C   UNL     1       1.193  16.800  19.216  0.00  0.00    +0.000 C 
ATOM     14  O   UNL     1       2.178  17.441  19.595  0.00  0.00    +0.000 OA
ATOM     15  C   UNL     1       0.259  14.511  18.513  0.00  0.00    +0.000 C 
ATOM     16  C   UNL     1      -0.122  13.308  19.400  0.00  0.00    +0.000 C 
ENDROOT
BRANCH   3  17
ATOM     17  C   UNL     1       1.687   7.671  19.978  0.00  0.00    +0.000 A 
ATOM     18  C   UNL     1       1.203   6.675  20.835  0.00  0.00    +0.000 A 
ATOM     19  C   UNL     1       1.515   5.329  20.614  0.00  0.00    +0.000 A 
ATOM     20  C   UNL     1       2.316   4.944  19.530  0.00  0.00    +0.000 A 
ATOM     21  C   UNL     1       2.841   5.952  18.705  0.00  0.00    +0.000 A 
ATOM     22  C   UNL     1       2.533   7.301  18.929  0.00  0.00    +0.000 A 
BRANCH  20  23
ATOM     23  C   UNL     1       2.542   3.466  19.243  0.00  0.00    +0.000 C 
ATOM     24  C   UNL     1       1.532   2.589  19.991  0.00  0.00    +0.000 C 
ATOM     25  C   UNL     1       2.516   3.131  17.750  0.00  0.00    +0.000 C 
ENDBRANCH  20  23
ENDBRANCH   3  17
BRANCH  13  26
ATOM     26  C   UNL     1      -0.006  17.485  18.765  0.00  0.00    +0.000 A 
ATOM     27  C   UNL     1      -0.259  18.221  17.619  0.00  0.00    +0.000 A 
ATOM     28  C   UNL     1      -1.613  18.631  17.687  0.00  0.00    +0.000 A 
ATOM     29  C   UNL     1      -2.097  18.158  18.881  0.00  0.00    +0.000 A 
ATOM     30  O   UNL     1      -1.120  17.514  19.561  0.00  0.00    +0.000 OA
ENDBRANCH  13  26
TORSDOF 3
ENDMDL
MODEL 2
REMARK VINA RESULT:      -7.8      0.569      1.245
REMARK  Name = 
REMARK  6 active torsions:
REMARK  status: ('A' for Active; 'I' for Inactive)
REMARK    1  A    between atoms: C_1  and  C_2
REMARK    2  A    between atoms: C_3  and  C_4
REMARK    3  A    between atoms: C_7  and  C_8
REMARK    4  A    between atoms: C_8  and  C_9
REMARK    5  A    between atoms: C_8  and  C_10
REMARK    6  A    between atoms: C_22  and  C_24
REMARK                            x       y       z     vdW  Elec       q    Type
REMARK                         _______ _______ _______ _____ _____    ______ ____
ROOT
ATOM      1  C   UNL     1       1.611  10.325  18.128  0.00  0.00    +0.000 C 
ATOM      2  C   UNL     1       1.229  10.193  19.551  0.00  0.00    +0.000 C 
ATOM      3  C   UNL     1       1.248   9.113  20.331  0.00  0.00    +0.000 C 
ATOM      4  S   UNL     1       0.780   9.449  21.953  0.00  0.00    +0.000 S 
ATOM      5  O   UNL     1      -0.507   8.862  22.236  0.00  0.00    +0.000 OA
ATOM      6  O   UNL     1       1.914   9.272  22.848  0.00  0.00    +0.000 OA
ATOM      7  N   UNL     1       0.591  11.046  21.666  0.00  0.00    +0.000 NA
ATOM      8  C   UNL     1       0.856  11.336  20.427  0.00  0.00    +0.000 C 
ATOM      9  N   UNL     1       0.893  12.641  19.968  0.00  0.00    +0.000 N 
ATOM     10  C   UNL     1       1.750  13.577  20.742  0.00  0.00    +0.000 C 
ATOM     11  C   UNL     1       2.096  14.798  19.876  0.00  0.00    +0.000 C 
ATOM     12  N   UNL     1       0.878  15.452  19.392  0.00  0.00    +0.000 N 
ATOM     13  C   UNL     1       0.808  16.847  19.414  0.00  0.00    +0.000 C 
ATOM     14  O   UNL     1       1.774  17.521  19.784  0.00  0.00    +0.000 OA
ATOM     15  C   UNL     1      -0.050  14.530  18.706  0.00  0.00    +0.000 C 
ATOM     16  C   UNL     1      -0.373  13.307  19.587  0.00  0.00    +0.000 C 
ENDROOT
BRANCH   3  17
ATOM     17  C   UNL     1       1.652   7.736  20.093  0.00  0.00    +0.000 A 
ATOM     18  C   UNL     1       2.490   7.424  19.016  0.00  0.00    +0.000 A 
ATOM     19  C   UNL     1       2.908   6.106  18.795  0.00  0.00    +0.000 A 
ATOM     20  C   UNL     1       2.501   5.069  19.646  0.00  0.00    +0.000 A 
ATOM     21  C   UNL     1       1.619   5.382  20.693  0.00  0.00    +0.000 A 
ATOM     22  C   UNL     1       1.196   6.700  20.912  0.00  0.00    +0.000 A 
BRANCH  20  23
ATOM     23  C   UNL     1       3.064   3.668  19.455  0.00  0.00    +0.000 C 
ATOM     24  C   UNL     1       4.528   3.709  19.002  0.00  0.00    +0.000 C 
ATOM     25  C   UNL     1       2.930   2.789  20.700  0.00  0.00    +0.000 C 
ENDBRANCH  20  23
ENDBRANCH   3  17
BRANCH  13  26
ATOM     26  C   UNL     1      -0.422  17.489  18.985  0.00  0.00    +0.000 A 
ATOM     27  C   UNL     1      -0.724  18.207  17.839  0.00  0.00    +0.000 A 
ATOM     28  C   UNL     1      -2.089  18.575  17.936  0.00  0.00    +0.000 A 
ATOM     29  C   UNL     1      -2.530  18.099  19.145  0.00  0.00    +0.000 A 
ATOM     30  O   UNL     1      -1.518  17.492  19.807  0.00  0.00    +0.000 OA
ENDBRANCH  13  26
TORSDOF 3
ENDMDL
MODEL 3
REMARK VINA RESULT:      -7.6      0.613      1.186
REMARK  Name = 
REMARK  6 active torsions:
REMARK  status: ('A' for Active; 'I' for Inactive)
REMARK    1  A    between atoms: C_1  and  C_2
REMARK    2  A    between atoms: C_3  and  C_4
REMARK    3  A    between atoms: C_7  and  C_8
REMARK    4  A    between atoms: C_8  and  C_9
REMARK    5  A    between atoms: C_8  and  C_10
REMARK    6  A    between atoms: C_22  and  C_24
REMARK                            x       y       z     vdW  Elec       q    Type
REMARK                         _______ _______ _______ _____ _____    ______ ____
ROOT
ATOM      1  C   UNL     1       1.807  10.337  18.000  0.00  0.00    +0.000 C 
ATOM      2  C   UNL     1       1.360  10.169  19.400  0.00  0.00    +0.000 C 
ATOM      3  C   UNL     1       1.327   9.067  20.147  0.00  0.00    +0.000 C 
ATOM      4  S   UNL     1       0.792   9.363  21.757  0.00  0.00    +0.000 S 
ATOM      5  O   UNL     1      -0.516   8.789  21.964  0.00  0.00    +0.000 OA
ATOM      6  O   UNL     1       1.881   9.141  22.695  0.00  0.00    +0.000 OA
ATOM      7  N   UNL     1       0.640  10.970  21.509  0.00  0.00    +0.000 NA
ATOM      8  C   UNL     1       0.965  11.292  20.292  0.00  0.00    +0.000 C 
ATOM      9  N   UNL     1       1.042  12.609  19.874  0.00  0.00    +0.000 N 
ATOM     10  C   UNL     1       1.878  13.508  20.714  0.00  0.00    +0.000 C 
ATOM     11  C   UNL     1       2.281  14.748  19.902  0.00  0.00    +0.000 C 
ATOM     12  N   UNL     1       1.096  15.436  19.384  0.00  0.00    +0.000 N 
ATOM     13  C   UNL     1       1.046  16.830  19.444  0.00  0.00    +0.000 C 
ATOM     14  O   UNL     1       2.005  17.477  19.877  0.00  0.00    +0.000 OA
ATOM     15  C   UNL     1       0.186  14.550  18.629  0.00  0.00    +0.000 C 
ATOM     16  C   UNL     1      -0.195  13.307  19.458  0.00  0.00    +0.000 C 
ENDROOT
BRANCH   3  17
ATOM     17  C   UNL     1       1.720   7.691  19.886  0.00  0.00    +0.000 A 
ATOM     18  C   UNL     1       2.387   7.362  18.700  0.00  0.00    +0.000 A 
ATOM     19  C   UNL     1       2.795   6.046  18.452  0.00  0.00    +0.000 A 
ATOM     20  C   UNL     1       2.550   5.028  19.384  0.00  0.00    +0.000 A 
ATOM     21  C   UNL     1       1.835   5.355  20.547  0.00  0.00    +0.000 A 
ATOM     22  C   UNL     1       1.421   6.671  20.794  0.00  0.00    +0.000 A 
BRANCH  20  23
ATOM     23  C   UNL     1       3.108   3.632  19.144  0.00  0.00    +0.000 C 
ATOM     24  C   UNL     1       1.991   2.620  18.871  0.00  0.00    +0.000 C 
ATOM     25  C   UNL     1       4.142   3.582  18.017  0.00  0.00    +0.000 C 
ENDBRANCH  20  23
ENDBRANCH   3  17
BRANCH  13  26
ATOM     26  C   UNL     1      -0.153  17.505  18.981  0.00  0.00    +0.000 A 
ATOM     27  C   UNL     1      -1.369  17.734  19.605  0.00  0.00    +0.000 A 
ATOM     28  C   UNL     1      -2.165  18.470  18.693  0.00  0.00    +0.000 A 
ATOM     29  C   UNL     1      -1.409  18.615  17.555  0.00  0.00    +0.000 A 
ATOM     30  O   UNL     1      -0.218  17.989  17.701  0.00  0.00    +0.000 OA
ENDBRANCH  13  26
TORSDOF 3
ENDMDL
MODEL 4
REMARK VINA RESULT:      -7.6      0.816      1.118
REMARK  Name = 
REMARK  6 active torsions:
REMARK  status: ('A' for Active; 'I' for Inactive)
REMARK    1  A    between atoms: C_1  and  C_2
REMARK    2  A    between atoms: C_3  and  C_4
REMARK    3  A    between atoms: C_7  and  C_8
REMARK    4  A    between atoms: C_8  and  C_9
REMARK    5  A    between atoms: C_8  and  C_10
REMARK    6  A    between atoms: C_22  and  C_24
REMARK                            x       y       z     vdW  Elec       q    Type
REMARK                         _______ _______ _______ _____ _____    ______ ____
ROOT
ATOM      1  C   UNL     1       1.488  10.571  18.161  0.00  0.00    +0.000 C 
ATOM      2  C   UNL     1       1.129  10.348  19.579  0.00  0.00    +0.000 C 
ATOM      3  C   UNL     1       1.203   9.230  20.300  0.00  0.00    +0.000 C 
ATOM      4  S   UNL     1       0.739   9.460  21.942  0.00  0.00    +0.000 S 
ATOM      5  O   UNL     1      -0.519   8.803  22.205  0.00  0.00    +0.000 OA
ATOM      6  O   UNL     1       1.889   9.285  22.816  0.00  0.00    +0.000 OA
ATOM      7  N   UNL     1       0.478  11.059  21.742  0.00  0.00    +0.000 NA
ATOM      8  C   UNL     1       0.717  11.426  20.517  0.00  0.00    +0.000 C 
ATOM      9  N   UNL     1       0.692  12.753  20.128  0.00  0.00    +0.000 N 
ATOM     10  C   UNL     1       1.517  13.684  20.943  0.00  0.00    +0.000 C 
ATOM     11  C   UNL     1       1.800  14.963  20.140  0.00  0.00    +0.000 C 
ATOM     12  N   UNL     1       0.550  15.588  19.702  0.00  0.00    +0.000 N 
ATOM     13  C   UNL     1       0.420  16.975  19.798  0.00  0.00    +0.000 C 
ATOM     14  O   UNL     1       1.361  17.670  20.196  0.00  0.00    +0.000 OA
ATOM     15  C   UNL     1      -0.345  14.663  18.976  0.00  0.00    +0.000 C 
ATOM     16  C   UNL     1      -0.606  13.382  19.794  0.00  0.00    +0.000 C 
ENDROOT
BRANCH   3  17
ATOM     17  C   UNL     1       1.662   7.886  19.986  0.00  0.00    +0.000 A 
ATOM     18  C   UNL     1       1.393   6.827  20.861  0.00  0.00    +0.000 A 
ATOM     19  C   UNL     1       1.806   5.525  20.553  0.00  0.00    +0.000 A 
ATOM     20  C   UNL     1       2.495   5.249  19.365  0.00  0.00    +0.000 A 
ATOM     21  C   UNL     1       2.808   6.325  18.518  0.00  0.00    +0.000 A 
ATOM     22  C   UNL     1       2.399   7.629  18.827  0.00  0.00    +0.000 A 
BRANCH  20  23
ATOM     23  C   UNL     1       2.827   3.809  18.999  0.00  0.00    +0.000 C 
ATOM     24  C   UNL     1       2.363   3.471  17.578  0.00  0.00    +0.000 C 
ATOM     25  C   UNL     1       4.313   3.475  19.154  0.00  0.00    +0.000 C 
ENDBRANCH  20  23
ENDBRANCH   3  17
BRANCH  13  26
ATOM     26  C   UNL     1      -0.841  17.585  19.416  0.00  0.00    +0.000 A 
ATOM     27  C   UNL     1      -2.026  17.743  20.115  0.00  0.00    +0.000 A 
ATOM     28  C   UNL     1      -2.916  18.439  19.260  0.00  0.00    +0.000 A 
ATOM     29  C   UNL     1      -2.242  18.631  18.080  0.00  0.00    +0.000 A 
ATOM     30  O   UNL     1      -1.011  18.071  18.146  0.00  0.00    +0.000 OA
ENDBRANCH  13  26
TORSDOF 3
ENDMDL
MODEL 5
REMARK VINA RESULT:      -7.6      3.501      4.349
REMARK  Name = 
REMARK  6 active torsions:
REMARK  status: ('A' for Active; 'I' for Inactive)
REMARK    1  A    between atoms: C_1  and  C_2
REMARK    2  A    between atoms: C_3  and  C_4
REMARK    3  A    between atoms: C_7  and  C_8
REMARK    4  A    between atoms: C_8  and  C_9
REMARK    5  A    between atoms: C_8  and  C_10
REMARK    6  A    between atoms: C_22  and  C_24
REMARK                            x       y       z     vdW  Elec       q    Type
REMARK                         _______ _______ _______ _____ _____    ______ ____
ROOT
ATOM      1  C   UNL     1      -0.492  11.764  19.180  0.00  0.00    +0.000 C 
ATOM      2  C   UNL     1      -0.420  10.994  20.442  0.00  0.00    +0.000 C 
ATOM      3  C   UNL     1       0.240   9.866  20.703  0.00  0.00    +0.000 C 
ATOM      4  S   UNL     1       0.090   9.366  22.343  0.00  0.00    +0.000 S 
ATOM      5  O   UNL     1      -0.721   8.176  22.433  0.00  0.00    +0.000 OA
ATOM      6  O   UNL     1       1.377   9.466  23.016  0.00  0.00    +0.000 OA
ATOM      7  N   UNL     1      -0.812  10.664  22.754  0.00  0.00    +0.000 NA
ATOM      8  C   UNL     1      -1.006  11.444  21.732  0.00  0.00    +0.000 C 
ATOM      9  N   UNL     1      -1.632  12.673  21.852  0.00  0.00    +0.000 N 
ATOM     10  C   UNL     1      -1.081  13.582  22.892  0.00  0.00    +0.000 C 
ATOM     11  C   UNL     1      -1.502  15.028  22.590  0.00  0.00    +0.000 C 
ATOM     12  N   UNL     1      -2.959  15.135  22.493  0.00  0.00    +0.000 N 
ATOM     13  C   UNL     1      -3.597  16.223  23.093  0.00  0.00    +0.000 C 
ATOM     14  O   UNL     1      -2.941  17.108  23.651  0.00  0.00    +0.000 OA
ATOM     15  C   UNL     1      -3.556  14.174  21.542  0.00  0.00    +0.000 C 
ATOM     16  C   UNL     1      -3.111  12.731  21.857  0.00  0.00    +0.000 C 
ENDROOT
BRANCH   3  17
ATOM     17  C   UNL     1       1.108   9.026  19.893  0.00  0.00    +0.000 A 
ATOM     18  C   UNL     1       1.627   7.836  20.419  0.00  0.00    +0.000 A 
ATOM     19  C   UNL     1       2.441   7.006  19.638  0.00  0.00    +0.000 A 
ATOM     20  C   UNL     1       2.753   7.342  18.314  0.00  0.00    +0.000 A 
ATOM     21  C   UNL     1       2.272   8.562  17.811  0.00  0.00    +0.000 A 
ATOM     22  C   UNL     1       1.462   9.396  18.594  0.00  0.00    +0.000 A 
BRANCH  20  23
ATOM     23  C   UNL     1       3.540   6.365  17.451  0.00  0.00    +0.000 C 
ATOM     24  C   UNL     1       5.005   6.792  17.315  0.00  0.00    +0.000 C 
ATOM     25  C   UNL     1       3.462   4.921  17.951  0.00  0.00    +0.000 C 
ENDBRANCH  20  23
ENDBRANCH   3  17
BRANCH  13  26
ATOM     26  C   UNL     1      -5.046  16.296  23.042  0.00  0.00    +0.000 A 
ATOM     27  C   UNL     1      -6.016  15.737  23.859  0.00  0.00    +0.000 A 
ATOM     28  C   UNL     1      -7.270  16.166  23.357  0.00  0.00    +0.000 A 
ATOM     29  C   UNL     1      -6.998  16.926  22.246  0.00  0.00    +0.000 A 
ATOM     30  O   UNL     1      -5.665  16.963  22.018  0.00  0.00    +0.000 OA
ENDBRANCH  13  26
TORSDOF 3
ENDMDL
MODEL 6
REMARK VINA RESULT:      -7.5      3.847      5.058
REMARK  Name = 
REMARK  6 active torsions:
REMARK  status: ('A' for Active; 'I' for Inactive)
REMARK    1  A    between atoms: C_1  and  C_2
REMARK    2  A    between atoms: C_3  and  C_4
REMARK    3  A    between atoms: C_7  and  C_8
REMARK    4  A    between atoms: C_8  and  C_9
REMARK    5  A    between atoms: C_8  and  C_10
REMARK    6  A    between atoms: C_22  and  C_24
REMARK                            x       y       z     vdW  Elec       q    Type
REMARK                         _______ _______ _______ _____ _____    ______ ____
ROOT
ATOM      1  C   UNL     1       2.410   9.022  17.572  0.00  0.00    +0.000 C 
ATOM      2  C   UNL     1       2.227   7.897  18.515  0.00  0.00    +0.000 C 
ATOM      3  C   UNL     1       2.757   6.674  18.480  0.00  0.00    +0.000 C 
ATOM      4  S   UNL     1       2.315   5.713  19.838  0.00  0.00    +0.000 S 
ATOM      5  O   UNL     1       1.419   4.656  19.434  0.00  0.00    +0.000 OA
ATOM      6  O   UNL     1       3.483   5.450  20.666  0.00  0.00    +0.000 OA
ATOM      7  N   UNL     1       1.452   6.916  20.526  0.00  0.00    +0.000 NA
ATOM      8  C   UNL     1       1.476   7.991  19.796  0.00  0.00    +0.000 C 
ATOM      9  N   UNL     1       0.925   9.186  20.225  0.00  0.00    +0.000 N 
ATOM     10  C   UNL     1       1.366   9.658  21.564  0.00  0.00    +0.000 C 
ATOM     11  C   UNL     1       1.100  11.166  21.694  0.00  0.00    +0.000 C 
ATOM     12  N   UNL     1      -0.312  11.466  21.451  0.00  0.00    +0.000 N 
ATOM     13  C   UNL     1      -0.960  12.381  22.283  0.00  0.00    +0.000 C 
ATOM     14  O   UNL     1      -0.342  12.968  23.177  0.00  0.00    +0.000 OA
ATOM     15  C   UNL     1      -0.816  10.922  20.172  0.00  0.00    +0.000 C 
ATOM     16  C   UNL     1      -0.528   9.411  20.058  0.00  0.00    +0.000 C 
ENDROOT
BRANCH   3  17
ATOM     17  C   UNL     1       3.683   6.031  17.561  0.00  0.00    +0.000 A 
ATOM     18  C   UNL     1       3.595   4.654  17.322  0.00  0.00    +0.000 A 
ATOM     19  C   UNL     1       4.463   4.031  16.417  0.00  0.00    +0.000 A 
ATOM     20  C   UNL     1       5.436   4.766  15.728  0.00  0.00    +0.000 A 
ATOM     21  C   UNL     1       5.552   6.137  16.012  0.00  0.00    +0.000 A 
ATOM     22  C   UNL     1       4.688   6.761  16.921  0.00  0.00    +0.000 A 
BRANCH  20  23
ATOM     23  C   UNL     1       6.286   4.087  14.664  0.00  0.00    +0.000 C 
ATOM     24  C   UNL     1       5.438   3.646  13.466  0.00  0.00    +0.000 C 
ATOM     25  C   UNL     1       7.455   4.951  14.183  0.00  0.00    +0.000 C 
ENDBRANCH  20  23
ENDBRANCH   3  17
BRANCH  13  26
ATOM     26  C   UNL     1      -2.375  12.634  22.073  0.00  0.00    +0.000 A 
ATOM     27  C   UNL     1      -3.046  13.242  21.024  0.00  0.00    +0.000 A 
ATOM     28  C   UNL     1      -4.427  13.187  21.337  0.00  0.00    +0.000 A 
ATOM     29  C   UNL     1      -4.518  12.588  22.569  0.00  0.00    +0.000 A 
ATOM     30  O   UNL     1      -3.283  12.302  23.043  0.00  0.00    +0.000 OA
ENDBRANCH  13  26
TORSDOF 3
ENDMDL
MODEL 7
REMARK VINA RESULT:      -7.5      3.604      4.420
REMARK  Name = 
REMARK  6 active torsions:
REMARK  status: ('A' for Active; 'I' for Inactive)
REMARK    1  A    between atoms: C_1  and  C_2
REMARK    2  A    between atoms: C_3  and  C_4
REMARK    3  A    between atoms: C_7  and  C_8
REMARK    4  A    between atoms: C_8  and  C_9
REMARK    5  A    between atoms: C_8  and  C_10
REMARK    6  A    between atoms: C_22  and  C_24
REMARK                            x       y       z     vdW  Elec       q    Type
REMARK                         _______ _______ _______ _____ _____    ______ ____
ROOT
ATOM      1  C   UNL     1       0.373   9.491  22.512  0.00  0.00    +0.000 C 
ATOM      2  C   UNL     1       0.428  10.020  21.132  0.00  0.00    +0.000 C 
ATOM      3  C   UNL     1       0.928   9.454  20.033  0.00  0.00    +0.000 C 
ATOM      4  S   UNL     1       0.708  10.418  18.624  0.00  0.00    +0.000 S 
ATOM      5  O   UNL     1       1.974  10.943  18.173  0.00  0.00    +0.000 OA
ATOM      6  O   UNL     1      -0.217   9.764  17.711  0.00  0.00    +0.000 OA
ATOM      7  N   UNL     1      -0.100  11.583  19.434  0.00  0.00    +0.000 NA
ATOM      8  C   UNL     1      -0.210  11.291  20.695  0.00  0.00    +0.000 C 
ATOM      9  N   UNL     1      -0.963  12.058  21.567  0.00  0.00    +0.000 N 
ATOM     10  C   UNL     1      -2.362  12.334  21.145  0.00  0.00    +0.000 C 
ATOM     11  C   UNL     1      -3.203  12.732  22.367  0.00  0.00    +0.000 C 
ATOM     12  N   UNL     1      -2.607  13.879  23.055  0.00  0.00    +0.000 N 
ATOM     13  C   UNL     1      -3.443  14.903  23.505  0.00  0.00    +0.000 C 
ATOM     14  O   UNL     1      -4.668  14.821  23.374  0.00  0.00    +0.000 OA
ATOM     15  C   UNL     1      -1.184  13.682  23.400  0.00  0.00    +0.000 C 
ATOM     16  C   UNL     1      -0.362  13.272  22.162  0.00  0.00    +0.000 C 
ENDROOT
BRANCH   3  17
ATOM     17  C   UNL     1       1.552   8.164  19.790  0.00  0.00    +0.000 A 
ATOM     18  C   UNL     1       1.404   7.124  20.716  0.00  0.00    +0.000 A 
ATOM     19  C   UNL     1       1.977   5.869  20.476  0.00  0.00    +0.000 A 
ATOM     20  C   UNL     1       2.709   5.621  19.307  0.00  0.00    +0.000 A 
ATOM     21  C   UNL     1       2.897   6.684  18.409  0.00  0.00    +0.000 A 
ATOM     22  C   UNL     1       2.328   7.942  18.649  0.00  0.00    +0.000 A 
BRANCH  20  23
ATOM     23  C   UNL     1       3.218   4.217  19.016  0.00  0.00    +0.000 C 
ATOM     24  C   UNL     1       2.790   3.742  17.624  0.00  0.00    +0.000 C 
ATOM     25  C   UNL     1       4.736   4.083  19.168  0.00  0.00    +0.000 C 
ENDBRANCH  20  23
ENDBRANCH   3  17
BRANCH  13  26
ATOM     26  C   UNL     1      -2.843  16.065  24.137  0.00  0.00    +0.000 A 
ATOM     27  C   UNL     1      -2.564  16.337  25.467  0.00  0.00    +0.000 A 
ATOM     28  C   UNL     1      -1.948  17.613  25.502  0.00  0.00    +0.000 A 
ATOM     29  C   UNL     1      -1.921  18.062  24.205  0.00  0.00    +0.000 A 
ATOM     30  O   UNL     1      -2.508  17.160  23.384  0.00  0.00    +0.000 OA
ENDBRANCH  13  26
TORSDOF 3
ENDMDL
MODEL 8
REMARK VINA RESULT:      -7.4      3.690      4.556
REMARK  Name = 
REMARK  6 active torsions:
REMARK  status: ('A' for Active; 'I' for Inactive)
REMARK    1  A    between atoms: C_1  and  C_2
REMARK    2  A    between atoms: C_3  and  C_4
REMARK    3  A    between atoms: C_7  and  C_8
REMARK    4  A    between atoms: C_8  and  C_9
REMARK    5  A    between atoms: C_8  and  C_10
REMARK    6  A    between atoms: C_22  and  C_24
REMARK                            x       y       z     vdW  Elec       q    Type
REMARK                         _______ _______ _______ _____ _____    ______ ____
ROOT
ATOM      1  C   UNL     1       0.445   9.528  22.494  0.00  0.00    +0.000 C 
ATOM      2  C   UNL     1       0.458  10.057  21.112  0.00  0.00    +0.000 C 
ATOM      3  C   UNL     1       0.937   9.497  20.001  0.00  0.00    +0.000 C 
ATOM      4  S   UNL     1       0.668  10.458  18.598  0.00  0.00    +0.000 S 
ATOM      5  O   UNL     1       1.916  11.000  18.115  0.00  0.00    +0.000 OA
ATOM      6  O   UNL     1      -0.271   9.791  17.709  0.00  0.00    +0.000 OA
ATOM      7  N   UNL     1      -0.134  11.613  19.428  0.00  0.00    +0.000 NA
ATOM      8  C   UNL     1      -0.208  11.319  20.692  0.00  0.00    +0.000 C 
ATOM      9  N   UNL     1      -0.948  12.076  21.583  0.00  0.00    +0.000 N 
ATOM     10  C   UNL     1      -2.361  12.334  21.196  0.00  0.00    +0.000 C 
ATOM     11  C   UNL     1      -3.175  12.721  22.440  0.00  0.00    +0.000 C 
ATOM     12  N   UNL     1      -2.578  13.876  23.113  0.00  0.00    +0.000 N 
ATOM     13  C   UNL     1      -3.415  14.889  23.584  0.00  0.00    +0.000 C 
ATOM     14  O   UNL     1      -4.642  14.791  23.484  0.00  0.00    +0.000 OA
ATOM     15  C   UNL     1      -1.143  13.698  23.422  0.00  0.00    +0.000 C 
ATOM     16  C   UNL     1      -0.348  13.298  22.162  0.00  0.00    +0.000 C 
ENDROOT
BRANCH   3  17
ATOM     17  C   UNL     1       1.572   8.215  19.742  0.00  0.00    +0.000 A 
ATOM     18  C   UNL     1       2.309   8.018  18.568  0.00  0.00    +0.000 A 
ATOM     19  C   UNL     1       2.948   6.797  18.323  0.00  0.00    +0.000 A 
ATOM     20  C   UNL     1       2.869   5.744  19.244  0.00  0.00    +0.000 A 
ATOM     21  C   UNL     1       2.085   5.931  20.394  0.00  0.00    +0.000 A 
ATOM     22  C   UNL     1       1.440   7.151  20.638  0.00  0.00    +0.000 A 
BRANCH  20  23
ATOM     23  C   UNL     1       3.670   4.471  19.010  0.00  0.00    +0.000 C 
ATOM     24  C   UNL     1       3.341   3.844  17.651  0.00  0.00    +0.000 C 
ATOM     25  C   UNL     1       5.181   4.678  19.136  0.00  0.00    +0.000 C 
ENDBRANCH  20  23
ENDBRANCH   3  17
BRANCH  13  26
ATOM     26  C   UNL     1      -2.815  16.059  24.200  0.00  0.00    +0.000 A 
ATOM     27  C   UNL     1      -2.442  17.282  23.665  0.00  0.00    +0.000 A 
ATOM     28  C   UNL     1      -1.935  18.059  24.735  0.00  0.00    +0.000 A 
ATOM     29  C   UNL     1      -1.990  17.259  25.850  0.00  0.00    +0.000 A 
ATOM     30  O   UNL     1      -2.467  16.035  25.525  0.00  0.00    +0.000 OA
ENDBRANCH  13  26
TORSDOF 3
ENDMDL
MODEL 9
REMARK VINA RESULT:      -7.2      3.152      4.001
REMARK  Name = 
REMARK  6 active torsions:
REMARK  status: ('A' for Active; 'I' for Inactive)
REMARK    1  A    between atoms: C_1  and  C_2
REMARK    2  A    between atoms: C_3  and  C_4
REMARK    3  A    between atoms: C_7  and  C_8
REMARK    4  A    between atoms: C_8  and  C_9
REMARK    5  A    between atoms: C_8  and  C_10
REMARK    6  A    between atoms: C_22  and  C_24
REMARK                            x       y       z     vdW  Elec       q    Type
REMARK                         _______ _______ _______ _____ _____    ______ ____
ROOT
ATOM      1  C   UNL     1      -0.275  11.788  19.131  0.00  0.00    +0.000 C 
ATOM      2  C   UNL     1      -0.207  11.098  20.438  0.00  0.00    +0.000 C 
ATOM      3  C   UNL     1       0.373   9.939  20.750  0.00  0.00    +0.000 C 
ATOM      4  S   UNL     1       0.259   9.561  22.425  0.00  0.00    +0.000 S 
ATOM      5  O   UNL     1      -0.638   8.450  22.629  0.00  0.00    +0.000 OA
ATOM      6  O   UNL     1       1.579   9.600  23.037  0.00  0.00    +0.000 OA
ATOM      7  N   UNL     1      -0.518  10.953  22.781  0.00  0.00    +0.000 NA
ATOM      8  C   UNL     1      -0.697  11.678  21.718  0.00  0.00    +0.000 C 
ATOM      9  N   UNL     1      -1.218  12.959  21.778  0.00  0.00    +0.000 N 
ATOM     10  C   UNL     1      -0.550  13.885  22.730  0.00  0.00    +0.000 C 
ATOM     11  C   UNL     1      -0.869  15.339  22.347  0.00  0.00    +0.000 C 
ATOM     12  N   UNL     1      -2.316  15.558  22.301  0.00  0.00    +0.000 N 
ATOM     13  C   UNL     1      -2.838  16.730  22.851  0.00  0.00    +0.000 C 
ATOM     14  O   UNL     1      -2.091  17.594  23.320  0.00  0.00    +0.000 OA
ATOM     15  C   UNL     1      -3.030  14.588  21.443  0.00  0.00    +0.000 C 
ATOM     16  C   UNL     1      -2.686  13.138  21.838  0.00  0.00    +0.000 C 
ENDROOT
BRANCH   3  17
ATOM     17  C   UNL     1       1.135   8.980  19.966  0.00  0.00    +0.000 A 
ATOM     18  C   UNL     1       1.441   9.250  18.626  0.00  0.00    +0.000 A 
ATOM     19  C   UNL     1       2.199   8.347  17.871  0.00  0.00    +0.000 A 
ATOM     20  C   UNL     1       2.671   7.154  18.436  0.00  0.00    +0.000 A 
ATOM     21  C   UNL     1       2.316   6.866  19.764  0.00  0.00    +0.000 A 
ATOM     22  C   UNL     1       1.553   7.767  20.518  0.00  0.00    +0.000 A 
BRANCH  20  23
ATOM     23  C   UNL     1       3.591   6.248  17.630  0.00  0.00    +0.000 C 
ATOM     24  C   UNL     1       4.856   6.988  17.183  0.00  0.00    +0.000 C 
ATOM     25  C   UNL     1       3.975   4.965  18.372  0.00  0.00    +0.000 C 
ENDBRANCH  20  23
ENDBRANCH   3  17
BRANCH  13  26
ATOM     26  C   UNL     1      -4.278  16.918  22.853  0.00  0.00    +0.000 A 
ATOM     27  C   UNL     1      -5.096  17.706  22.059  0.00  0.00    +0.000 A 
ATOM     28  C   UNL     1      -6.427  17.473  22.486  0.00  0.00    +0.000 A 
ATOM     29  C   UNL     1      -6.345  16.592  23.536  0.00  0.00    +0.000 A 
ATOM     30  O   UNL     1      -5.051  16.295  23.798  0.00  0.00    +0.000 OA
ENDBRANCH  13  26
TORSDOF 3
ENDMDL
