MODEL 1
REMARK VINA RESULT:      -9.1      0.000      0.000
REMARK  Name = 
REMARK  4 active torsions:
REMARK  status: ('A' for Active; 'I' for Inactive)
REMARK    1  A    between atoms: C_2  and  C_3
REMARK    2  A    between atoms: C_6  and  N_7
REMARK    3  A    between atoms: C_9  and  C_10
REMARK    4  A    between atoms: C_17  and  C_18
REMARK                            x       y       z     vdW  Elec       q    Type
REMARK                         _______ _______ _______ _____ _____    ______ ____
ROOT
ATOM      1  N   UNL     1       6.795   6.014  16.745  0.00  0.00    +0.000 N 
ATOM      2  N   UNL     1       7.153   5.789  15.448  0.00  0.00    +0.000 NA
ATOM      3  C   UNL     1       6.390   4.828  15.012  0.00  0.00    +0.000 C 
ATOM      4  C   UNL     1       5.388   4.299  16.000  0.00  0.00    +0.000 C 
ATOM      5  C   UNL     1       5.711   5.162  17.216  0.00  0.00    +0.000 C 
ENDROOT
BRANCH   5   6
ATOM      6  C   UNL     1       4.497   5.916  17.766  0.00  0.00    +0.000 A 
ATOM      7  C   UNL     1       4.284   7.216  17.257  0.00  0.00    +0.000 A 
ATOM      8  C   UNL     1       3.286   8.036  17.767  0.00  0.00    +0.000 A 
ATOM      9  C   UNL     1       2.536   7.604  18.853  0.00  0.00    +0.000 A 
ATOM     10  C   UNL     1       2.730   6.331  19.403  0.00  0.00    +0.000 A 
ATOM     11  C   UNL     1       2.030   5.963  20.563  0.00  0.00    +0.000 A 
ATOM     12  C   UNL     1       2.162   4.691  21.111  0.00  0.00    +0.000 A 
ATOM     13  C   UNL     1       2.929   3.742  20.454  0.00  0.00    +0.000 A 
ATOM     14  C   UNL     1       3.649   4.105  19.313  0.00  0.00    +0.000 A 
ATOM     15  C   UNL     1       3.644   5.427  18.805  0.00  0.00    +0.000 A 
ENDBRANCH   5   6
BRANCH   1  19
ATOM     16  C   UNL     1       8.580   9.137  18.953  0.00  0.00    +0.000 A 
ATOM     17  C   UNL     1       8.699   7.807  19.389  0.00  0.00    +0.000 A 
ATOM     18  C   UNL     1       8.077   6.773  18.675  0.00  0.00    +0.000 A 
ATOM     19  C   UNL     1       7.348   7.037  17.508  0.00  0.00    +0.000 A 
ATOM     20  C   UNL     1       7.239   8.373  17.097  0.00  0.00    +0.000 A 
ATOM     21  C   UNL     1       7.889   9.401  17.776  0.00  0.00    +0.000 A 
BRANCH  16  23
ATOM     22  O   UNL     1       8.892  10.370  20.897  0.00  0.00    +0.000 OA
ATOM     23  C   UNL     1       9.233  10.218  19.726  0.00  0.00    +0.000 C 
ATOM     24  N   UNL     1      10.205  11.009  19.117  0.00  0.00    +0.000 N 
ATOM     25  C   UNL     1      10.988  11.933  19.937  0.00  0.00    +0.000 C 
ATOM     26  C   UNL     1      10.878  13.363  19.401  0.00  0.00    +0.000 C 
ATOM     27  O   UNL     1      11.250  13.426  18.014  0.00  0.00    +0.000 OA
ATOM     28  C   UNL     1      10.386  12.593  17.228  0.00  0.00    +0.000 C 
ATOM     29  C   UNL     1      10.468  11.132  17.676  0.00  0.00    +0.000 C 
ENDBRANCH  16  23
ENDBRANCH   1  19
BRANCH   3  30
ATOM     30  C   UNL     1       6.459   4.285  13.635  0.00  0.00    +0.000 A 
ATOM     31  C   UNL     1       5.511   3.342  13.225  0.00  0.00    +0.000 A 
ATOM     32  C   UNL     1       5.584   2.791  11.943  0.00  0.00    +0.000 A 
ATOM     33  C   UNL     1       6.601   3.177  11.071  0.00  0.00    +0.000 A 
ATOM     34  C   UNL     1       7.540   4.124  11.474  0.00  0.00    +0.000 A 
ATOM     35  C   UNL     1       7.471   4.680  12.752  0.00  0.00    +0.000 A 
ENDBRANCH   3  30
TORSDOF 4
ENDMDL
MODEL 2
REMARK VINA RESULT:      -9.0      7.547     10.951
REMARK  Name = 
REMARK  4 active torsions:
REMARK  status: ('A' for Active; 'I' for Inactive)
REMARK    1  A    between atoms: C_2  and  C_3
REMARK    2  A    between atoms: C_6  and  N_7
REMARK    3  A    between atoms: C_9  and  C_10
REMARK    4  A    between atoms: C_17  and  C_18
REMARK                            x       y       z     vdW  Elec       q    Type
REMARK                         _______ _______ _______ _____ _____    ______ ____
ROOT
ATOM      1  N   UNL     1       0.158   9.879  18.399  0.00  0.00    +0.000 N 
ATOM      2  N   UNL     1       0.646   8.782  17.752  0.00  0.00    +0.000 NA
ATOM      3  C   UNL     1       1.813   8.530  18.272  0.00  0.00    +0.000 C 
ATOM      4  C   UNL     1       2.240   9.452  19.379  0.00  0.00    +0.000 C 
ATOM      5  C   UNL     1       1.043  10.396  19.435  0.00  0.00    +0.000 C 
ENDROOT
BRANCH   5   6
ATOM      6  C   UNL     1       0.411  10.495  20.826  0.00  0.00    +0.000 A 
ATOM      7  C   UNL     1       0.084   9.272  21.454  0.00  0.00    +0.000 A 
ATOM      8  C   UNL     1      -0.599   9.241  22.662  0.00  0.00    +0.000 A 
ATOM      9  C   UNL     1      -1.043  10.431  23.227  0.00  0.00    +0.000 A 
ATOM     10  C   UNL     1      -0.759  11.663  22.626  0.00  0.00    +0.000 A 
ATOM     11  C   UNL     1      -1.308  12.839  23.164  0.00  0.00    +0.000 A 
ATOM     12  C   UNL     1      -1.011  14.086  22.622  0.00  0.00    +0.000 A 
ATOM     13  C   UNL     1      -0.091  14.179  21.590  0.00  0.00    +0.000 A 
ATOM     14  C   UNL     1       0.442  13.014  21.032  0.00  0.00    +0.000 A 
ATOM     15  C   UNL     1       0.059  11.722  21.469  0.00  0.00    +0.000 A 
ENDBRANCH   5   6
BRANCH   1  19
ATOM     16  C   UNL     1      -3.722  11.437  17.822  0.00  0.00    +0.000 A 
ATOM     17  C   UNL     1      -3.477  10.066  17.636  0.00  0.00    +0.000 A 
ATOM     18  C   UNL     1      -2.181   9.554  17.794  0.00  0.00    +0.000 A 
ATOM     19  C   UNL     1      -1.114  10.386  18.159  0.00  0.00    +0.000 A 
ATOM     20  C   UNL     1      -1.384  11.751  18.334  0.00  0.00    +0.000 A 
ATOM     21  C   UNL     1      -2.674  12.261  18.221  0.00  0.00    +0.000 A 
BRANCH  16  23
ATOM     22  O   UNL     1      -5.425  12.319  16.511  0.00  0.00    +0.000 OA
ATOM     23  C   UNL     1      -5.094  11.963  17.640  0.00  0.00    +0.000 C 
ATOM     24  N   UNL     1      -5.957  12.028  18.732  0.00  0.00    +0.000 N 
ATOM     25  C   UNL     1      -7.365  12.353  18.509  0.00  0.00    +0.000 C 
ATOM     26  C   UNL     1      -7.783  13.565  19.344  0.00  0.00    +0.000 C 
ATOM     27  O   UNL     1      -7.492  13.360  20.737  0.00  0.00    +0.000 OA
ATOM     28  C   UNL     1      -6.085  13.158  20.927  0.00  0.00    +0.000 C 
ATOM     29  C   UNL     1      -5.592  11.933  20.153  0.00  0.00    +0.000 C 
ENDBRANCH  16  23
ENDBRANCH   1  19
BRANCH   3  30
ATOM     30  C   UNL     1       2.676   7.404  17.845  0.00  0.00    +0.000 A 
ATOM     31  C   UNL     1       2.268   6.093  18.110  0.00  0.00    +0.000 A 
ATOM     32  C   UNL     1       3.088   5.020  17.750  0.00  0.00    +0.000 A 
ATOM     33  C   UNL     1       4.314   5.253  17.128  0.00  0.00    +0.000 A 
ATOM     34  C   UNL     1       4.717   6.558  16.852  0.00  0.00    +0.000 A 
ATOM     35  C   UNL     1       3.902   7.633  17.208  0.00  0.00    +0.000 A 
ENDBRANCH   3  30
TORSDOF 4
ENDMDL
MODEL 3
REMARK VINA RESULT:      -8.8      4.700      6.308
REMARK  Name = 
REMARK  4 active torsions:
REMARK  status: ('A' for Active; 'I' for Inactive)
REMARK    1  A    between atoms: C_2  and  C_3
REMARK    2  A    between atoms: C_6  and  N_7
REMARK    3  A    between atoms: C_9  and  C_10
REMARK    4  A    between atoms: C_17  and  C_18
REMARK                            x       y       z     vdW  Elec       q    Type
REMARK                         _______ _______ _______ _____ _____    ______ ____
ROOT
ATOM      1  N   UNL     1       4.136   5.948  17.331  0.00  0.00    +0.000 N 
ATOM      2  N   UNL     1       4.720   6.118  16.110  0.00  0.00    +0.000 NA
ATOM      3  C   UNL     1       5.254   4.975  15.789  0.00  0.00    +0.000 C 
ATOM      4  C   UNL     1       5.060   3.867  16.787  0.00  0.00    +0.000 C 
ATOM      5  C   UNL     1       4.268   4.599  17.867  0.00  0.00    +0.000 C 
ENDROOT
BRANCH   5   6
ATOM      6  C   UNL     1       2.943   3.917  18.216  0.00  0.00    +0.000 A 
ATOM      7  C   UNL     1       1.909   4.029  17.260  0.00  0.00    +0.000 A 
ATOM      8  C   UNL     1       0.631   3.552  17.519  0.00  0.00    +0.000 A 
ATOM      9  C   UNL     1       0.338   3.029  18.772  0.00  0.00    +0.000 A 
ATOM     10  C   UNL     1       1.328   2.919  19.756  0.00  0.00    +0.000 A 
ATOM     11  C   UNL     1       0.979   2.482  21.045  0.00  0.00    +0.000 A 
ATOM     12  C   UNL     1       1.943   2.317  22.035  0.00  0.00    +0.000 A 
ATOM     13  C   UNL     1       3.280   2.502  21.722  0.00  0.00    +0.000 A 
ATOM     14  C   UNL     1       3.636   2.959  20.451  0.00  0.00    +0.000 A 
ATOM     15  C   UNL     1       2.670   3.268  19.461  0.00  0.00    +0.000 A 
ENDBRANCH   5   6
BRANCH   1  19
ATOM     16  C   UNL     1       1.757   8.891  19.201  0.00  0.00    +0.000 A 
ATOM     17  C   UNL     1       2.245   9.099  17.900  0.00  0.00    +0.000 A 
ATOM     18  C   UNL     1       3.064   8.137  17.292  0.00  0.00    +0.000 A 
ATOM     19  C   UNL     1       3.394   6.946  17.953  0.00  0.00    +0.000 A 
ATOM     20  C   UNL     1       2.898   6.764  19.252  0.00  0.00    +0.000 A 
ATOM     21  C   UNL     1       2.050   7.694  19.847  0.00  0.00    +0.000 A 
BRANCH  16  23
ATOM     22  O   UNL     1       1.086  10.165  21.024  0.00  0.00    +0.000 OA
ATOM     23  C   UNL     1       0.903   9.922  19.832  0.00  0.00    +0.000 C 
ATOM     24  N   UNL     1      -0.058  10.582  19.070  0.00  0.00    +0.000 N 
ATOM     25  C   UNL     1      -0.753  11.735  19.641  0.00  0.00    +0.000 C 
ATOM     26  C   UNL     1      -2.269  11.530  19.603  0.00  0.00    +0.000 C 
ATOM     27  O   UNL     1      -2.719  11.236  18.269  0.00  0.00    +0.000 OA
ATOM     28  C   UNL     1      -2.099  10.036  17.787  0.00  0.00    +0.000 C 
ATOM     29  C   UNL     1      -0.575  10.173  17.755  0.00  0.00    +0.000 C 
ENDBRANCH  16  23
ENDBRANCH   1  19
BRANCH   3  30
ATOM     30  C   UNL     1       5.985   4.737  14.523  0.00  0.00    +0.000 A 
ATOM     31  C   UNL     1       5.466   3.830  13.594  0.00  0.00    +0.000 A 
ATOM     32  C   UNL     1       6.162   3.564  12.412  0.00  0.00    +0.000 A 
ATOM     33  C   UNL     1       7.376   4.200  12.157  0.00  0.00    +0.000 A 
ATOM     34  C   UNL     1       7.891   5.112  13.075  0.00  0.00    +0.000 A 
ATOM     35  C   UNL     1       7.198   5.383  14.256  0.00  0.00    +0.000 A 
ENDBRANCH   3  30
TORSDOF 4
ENDMDL
MODEL 4
REMARK VINA RESULT:      -8.7      4.712      6.189
REMARK  Name = 
REMARK  4 active torsions:
REMARK  status: ('A' for Active; 'I' for Inactive)
REMARK    1  A    between atoms: C_2  and  C_3
REMARK    2  A    between atoms: C_6  and  N_7
REMARK    3  A    between atoms: C_9  and  C_10
REMARK    4  A    between atoms: C_17  and  C_18
REMARK                            x       y       z     vdW  Elec       q    Type
REMARK                         _______ _______ _______ _____ _____    ______ ____
ROOT
ATOM      1  N   UNL     1       4.156   5.999  17.250  0.00  0.00    +0.000 N 
ATOM      2  N   UNL     1       4.759   6.127  16.033  0.00  0.00    +0.000 NA
ATOM      3  C   UNL     1       5.311   4.978  15.768  0.00  0.00    +0.000 C 
ATOM      4  C   UNL     1       5.114   3.910  16.807  0.00  0.00    +0.000 C 
ATOM      5  C   UNL     1       4.295   4.674  17.843  0.00  0.00    +0.000 C 
ENDROOT
BRANCH   5   6
ATOM      6  C   UNL     1       2.972   3.991  18.197  0.00  0.00    +0.000 A 
ATOM      7  C   UNL     1       1.926   4.124  17.258  0.00  0.00    +0.000 A 
ATOM      8  C   UNL     1       0.650   3.647  17.526  0.00  0.00    +0.000 A 
ATOM      9  C   UNL     1       0.373   3.101  18.773  0.00  0.00    +0.000 A 
ATOM     10  C   UNL     1       1.375   2.970  19.742  0.00  0.00    +0.000 A 
ATOM     11  C   UNL     1       1.043   2.511  21.026  0.00  0.00    +0.000 A 
ATOM     12  C   UNL     1       2.019   2.325  22.000  0.00  0.00    +0.000 A 
ATOM     13  C   UNL     1       3.352   2.511  21.672  0.00  0.00    +0.000 A 
ATOM     14  C   UNL     1       3.692   2.990  20.405  0.00  0.00    +0.000 A 
ATOM     15  C   UNL     1       2.715   3.320  19.434  0.00  0.00    +0.000 A 
ENDBRANCH   5   6
BRANCH   1  19
ATOM     16  C   UNL     1       1.711   8.985  18.957  0.00  0.00    +0.000 A 
ATOM     17  C   UNL     1       2.225   9.150  17.661  0.00  0.00    +0.000 A 
ATOM     18  C   UNL     1       3.066   8.175  17.106  0.00  0.00    +0.000 A 
ATOM     19  C   UNL     1       3.392   7.012  17.818  0.00  0.00    +0.000 A 
ATOM     20  C   UNL     1       2.869   6.874  19.112  0.00  0.00    +0.000 A 
ATOM     21  C   UNL     1       2.000   7.817  19.653  0.00  0.00    +0.000 A 
BRANCH  16  23
ATOM     22  O   UNL     1       0.706  11.079  18.901  0.00  0.00    +0.000 OA
ATOM     23  C   UNL     1       0.834  10.031  19.531  0.00  0.00    +0.000 C 
ATOM     24  N   UNL     1       0.184   9.797  20.741  0.00  0.00    +0.000 N 
ATOM     25  C   UNL     1      -0.834  10.742  21.197  0.00  0.00    +0.000 C 
ATOM     26  C   UNL     1      -0.501  11.268  22.596  0.00  0.00    +0.000 C 
ATOM     27  O   UNL     1      -0.315  10.186  23.525  0.00  0.00    +0.000 OA
ATOM     28  C   UNL     1       0.766   9.345  23.100  0.00  0.00    +0.000 C 
ATOM     29  C   UNL     1       0.492   8.744  21.720  0.00  0.00    +0.000 C 
ENDBRANCH  16  23
ENDBRANCH   1  19
BRANCH   3  30
ATOM     30  C   UNL     1       6.067   4.698  14.525  0.00  0.00    +0.000 A 
ATOM     31  C   UNL     1       7.255   5.394  14.277  0.00  0.00    +0.000 A 
ATOM     32  C   UNL     1       7.961   5.172  13.092  0.00  0.00    +0.000 A 
ATOM     33  C   UNL     1       7.482   4.258  12.153  0.00  0.00    +0.000 A 
ATOM     34  C   UNL     1       6.306   3.556  12.402  0.00  0.00    +0.000 A 
ATOM     35  C   UNL     1       5.598   3.773  13.585  0.00  0.00    +0.000 A 
ENDBRANCH   3  30
TORSDOF 4
ENDMDL
MODEL 5
REMARK VINA RESULT:      -8.6      6.897      9.894
REMARK  Name = 
REMARK  4 active torsions:
REMARK  status: ('A' for Active; 'I' for Inactive)
REMARK    1  A    between atoms: C_2  and  C_3
REMARK    2  A    between atoms: C_6  and  N_7
REMARK    3  A    between atoms: C_9  and  C_10
REMARK    4  A    between atoms: C_17  and  C_18
REMARK                            x       y       z     vdW  Elec       q    Type
REMARK                         _______ _______ _______ _____ _____    ______ ____
ROOT
ATOM      1  N   UNL     1      -1.005  12.373  18.434  0.00  0.00    +0.000 N 
ATOM      2  N   UNL     1      -2.269  12.743  18.789  0.00  0.00    +0.000 NA
ATOM      3  C   UNL     1      -3.027  11.700  18.610  0.00  0.00    +0.000 C 
ATOM      4  C   UNL     1      -2.324  10.466  18.117  0.00  0.00    +0.000 C 
ATOM      5  C   UNL     1      -0.895  10.986  18.001  0.00  0.00    +0.000 C 
ENDROOT
BRANCH   5   6
ATOM      6  C   UNL     1       0.121  10.150  18.783  0.00  0.00    +0.000 A 
ATOM      7  C   UNL     1       1.023   9.379  18.015  0.00  0.00    +0.000 A 
ATOM      8  C   UNL     1       1.909   8.494  18.614  0.00  0.00    +0.000 A 
ATOM      9  C   UNL     1       1.855   8.300  19.988  0.00  0.00    +0.000 A 
ATOM     10  C   UNL     1       0.961   9.027  20.785  0.00  0.00    +0.000 A 
ATOM     11  C   UNL     1       0.858   8.734  22.154  0.00  0.00    +0.000 A 
ATOM     12  C   UNL     1       0.015   9.466  22.985  0.00  0.00    +0.000 A 
ATOM     13  C   UNL     1      -0.668  10.557  22.473  0.00  0.00    +0.000 A 
ATOM     14  C   UNL     1      -0.590  10.842  21.108  0.00  0.00    +0.000 A 
ATOM     15  C   UNL     1       0.150  10.036  20.208  0.00  0.00    +0.000 A 
ENDBRANCH   5   6
BRANCH   1  19
ATOM     16  C   UNL     1       2.270  15.016  18.751  0.00  0.00    +0.000 A 
ATOM     17  C   UNL     1       2.457  13.718  18.247  0.00  0.00    +0.000 A 
ATOM     18  C   UNL     1       1.376  12.828  18.174  0.00  0.00    +0.000 A 
ATOM     19  C   UNL     1       0.091  13.216  18.577  0.00  0.00    +0.000 A 
ATOM     20  C   UNL     1      -0.068  14.516  19.082  0.00  0.00    +0.000 A 
ATOM     21  C   UNL     1       0.991  15.419  19.118  0.00  0.00    +0.000 A 
BRANCH  16  23
ATOM     22  O   UNL     1       3.712  16.586  17.826  0.00  0.00    +0.000 OA
ATOM     23  C   UNL     1       3.425  15.939  18.832  0.00  0.00    +0.000 C 
ATOM     24  N   UNL     1       4.134  16.053  20.026  0.00  0.00    +0.000 N 
ATOM     25  C   UNL     1       5.137  17.108  20.162  0.00  0.00    +0.000 C 
ATOM     26  C   UNL     1       6.498  16.520  20.542  0.00  0.00    +0.000 C 
ATOM     27  O   UNL     1       6.400  15.714  21.728  0.00  0.00    +0.000 OA
ATOM     28  C   UNL     1       5.493  14.624  21.516  0.00  0.00    +0.000 C 
ATOM     29  C   UNL     1       4.090  15.130  21.170  0.00  0.00    +0.000 C 
ENDBRANCH  16  23
ENDBRANCH   1  19
BRANCH   3  30
ATOM     30  C   UNL     1      -4.482  11.686  18.888  0.00  0.00    +0.000 A 
ATOM     31  C   UNL     1      -4.982  12.448  19.949  0.00  0.00    +0.000 A 
ATOM     32  C   UNL     1      -6.347  12.416  20.250  0.00  0.00    +0.000 A 
ATOM     33  C   UNL     1      -7.212  11.624  19.496  0.00  0.00    +0.000 A 
ATOM     34  C   UNL     1      -6.719  10.873  18.432  0.00  0.00    +0.000 A 
ATOM     35  C   UNL     1      -5.357  10.903  18.126  0.00  0.00    +0.000 A 
ENDBRANCH   3  30
TORSDOF 4
ENDMDL
MODEL 6
REMARK VINA RESULT:      -8.6      7.730     10.965
REMARK  Name = 
REMARK  4 active torsions:
REMARK  status: ('A' for Active; 'I' for Inactive)
REMARK    1  A    between atoms: C_2  and  C_3
REMARK    2  A    between atoms: C_6  and  N_7
REMARK    3  A    between atoms: C_9  and  C_10
REMARK    4  A    between atoms: C_17  and  C_18
REMARK                            x       y       z     vdW  Elec       q    Type
REMARK                         _______ _______ _______ _____ _____    ______ ____
ROOT
ATOM      1  N   UNL     1      -1.676  13.419  19.776  0.00  0.00    +0.000 N 
ATOM      2  N   UNL     1      -2.777  13.712  20.526  0.00  0.00    +0.000 NA
ATOM      3  C   UNL     1      -3.616  12.730  20.356  0.00  0.00    +0.000 C 
ATOM      4  C   UNL     1      -3.142  11.623  19.458  0.00  0.00    +0.000 C 
ATOM      5  C   UNL     1      -1.766  12.150  19.063  0.00  0.00    +0.000 C 
ENDROOT
BRANCH   5   6
ATOM      6  C   UNL     1      -0.630  11.168  19.359  0.00  0.00    +0.000 A 
ATOM      7  C   UNL     1       0.094  10.693  18.243  0.00  0.00    +0.000 A 
ATOM      8  C   UNL     1       1.066   9.711  18.378  0.00  0.00    +0.000 A 
ATOM      9  C   UNL     1       1.276   9.124  19.619  0.00  0.00    +0.000 A 
ATOM     10  C   UNL     1       0.564   9.549  20.748  0.00  0.00    +0.000 A 
ATOM     11  C   UNL     1       0.723   8.868  21.965  0.00  0.00    +0.000 A 
ATOM     12  C   UNL     1       0.068   9.291  23.118  0.00  0.00    +0.000 A 
ATOM     13  C   UNL     1      -0.685  10.453  23.086  0.00  0.00    +0.000 A 
ATOM     14  C   UNL     1      -0.869  11.125  21.875  0.00  0.00    +0.000 A 
ATOM     15  C   UNL     1      -0.328  10.647  20.656  0.00  0.00    +0.000 A 
ENDBRANCH   5   6
BRANCH   1  19
ATOM     16  C   UNL     1       1.711  15.936  19.855  0.00  0.00    +0.000 A 
ATOM     17  C   UNL     1       1.062  15.663  18.639  0.00  0.00    +0.000 A 
ATOM     18  C   UNL     1      -0.042  14.800  18.607  0.00  0.00    +0.000 A 
ATOM     19  C   UNL     1      -0.533  14.211  19.780  0.00  0.00    +0.000 A 
ATOM     20  C   UNL     1       0.135  14.495  20.980  0.00  0.00    +0.000 A 
ATOM     21  C   UNL     1       1.205  15.384  21.027  0.00  0.00    +0.000 A 
BRANCH  16  23
ATOM     22  O   UNL     1       2.670  18.050  19.938  0.00  0.00    +0.000 OA
ATOM     23  C   UNL     1       2.882  16.841  19.868  0.00  0.00    +0.000 C 
ATOM     24  N   UNL     1       4.167  16.306  19.813  0.00  0.00    +0.000 N 
ATOM     25  C   UNL     1       5.316  17.184  20.033  0.00  0.00    +0.000 C 
ATOM     26  C   UNL     1       6.288  17.115  18.853  0.00  0.00    +0.000 C 
ATOM     27  O   UNL     1       6.688  15.759  18.591  0.00  0.00    +0.000 OA
ATOM     28  C   UNL     1       5.546  14.954  18.269  0.00  0.00    +0.000 C 
ATOM     29  C   UNL     1       4.538  14.938  19.421  0.00  0.00    +0.000 C 
ENDBRANCH  16  23
ENDBRANCH   1  19
BRANCH   3  30
ATOM     30  C   UNL     1      -4.944  12.664  21.010  0.00  0.00    +0.000 A 
ATOM     31  C   UNL     1      -5.079  13.112  22.327  0.00  0.00    +0.000 A 
ATOM     32  C   UNL     1      -6.316  13.021  22.973  0.00  0.00    +0.000 A 
ATOM     33  C   UNL     1      -7.415  12.481  22.306  0.00  0.00    +0.000 A 
ATOM     34  C   UNL     1      -7.286  12.044  20.990  0.00  0.00    +0.000 A 
ATOM     35  C   UNL     1      -6.054  12.135  20.340  0.00  0.00    +0.000 A 
ENDBRANCH   3  30
TORSDOF 4
ENDMDL
MODEL 7
REMARK VINA RESULT:      -8.5      8.705     11.838
REMARK  Name = 
REMARK  4 active torsions:
REMARK  status: ('A' for Active; 'I' for Inactive)
REMARK    1  A    between atoms: C_2  and  C_3
REMARK    2  A    between atoms: C_6  and  N_7
REMARK    3  A    between atoms: C_9  and  C_10
REMARK    4  A    between atoms: C_17  and  C_18
REMARK                            x       y       z     vdW  Elec       q    Type
REMARK                         _______ _______ _______ _____ _____    ______ ____
ROOT
ATOM      1  N   UNL     1      -0.264  11.404  19.710  0.00  0.00    +0.000 N 
ATOM      2  N   UNL     1       0.085  10.086  19.777  0.00  0.00    +0.000 NA
ATOM      3  C   UNL     1       1.179   9.954  19.085  0.00  0.00    +0.000 C 
ATOM      4  C   UNL     1       1.714  11.218  18.472  0.00  0.00    +0.000 C 
ATOM      5  C   UNL     1       0.661  12.221  18.935  0.00  0.00    +0.000 C 
ENDROOT
BRANCH   5   6
ATOM      6  C   UNL     1       1.249  13.414  19.691  0.00  0.00    +0.000 A 
ATOM      7  C   UNL     1       2.301  13.130  20.590  0.00  0.00    +0.000 A 
ATOM      8  C   UNL     1       2.831  14.113  21.415  0.00  0.00    +0.000 A 
ATOM      9  C   UNL     1       2.264  15.381  21.419  0.00  0.00    +0.000 A 
ATOM     10  C   UNL     1       1.205  15.699  20.559  0.00  0.00    +0.000 A 
ATOM     11  C   UNL     1       0.585  16.956  20.658  0.00  0.00    +0.000 A 
ATOM     12  C   UNL     1      -0.438  17.324  19.791  0.00  0.00    +0.000 A 
ATOM     13  C   UNL     1      -0.795  16.474  18.757  0.00  0.00    +0.000 A 
ATOM     14  C   UNL     1      -0.202  15.212  18.664  0.00  0.00    +0.000 A 
ATOM     15  C   UNL     1       0.747  14.751  19.610  0.00  0.00    +0.000 A 
ENDBRANCH   5   6
BRANCH   1  19
ATOM     16  C   UNL     1      -3.584  12.858  21.872  0.00  0.00    +0.000 A 
ATOM     17  C   UNL     1      -3.604  12.851  20.467  0.00  0.00    +0.000 A 
ATOM     18  C   UNL     1      -2.488  12.400  19.748  0.00  0.00    +0.000 A 
ATOM     19  C   UNL     1      -1.345  11.930  20.408  0.00  0.00    +0.000 A 
ATOM     20  C   UNL     1      -1.348  11.952  21.811  0.00  0.00    +0.000 A 
ATOM     21  C   UNL     1      -2.467  12.358  22.532  0.00  0.00    +0.000 A 
BRANCH  16  23
ATOM     22  O   UNL     1      -5.644  12.534  22.895  0.00  0.00    +0.000 OA
ATOM     23  C   UNL     1      -4.767  13.349  22.615  0.00  0.00    +0.000 C 
ATOM     24  N   UNL     1      -4.845  14.692  22.976  0.00  0.00    +0.000 N 
ATOM     25  C   UNL     1      -5.909  15.125  23.881  0.00  0.00    +0.000 C 
ATOM     26  C   UNL     1      -6.732  16.253  23.253  0.00  0.00    +0.000 C 
ATOM     27  O   UNL     1      -5.890  17.345  22.849  0.00  0.00    +0.000 OA
ATOM     28  C   UNL     1      -4.933  16.904  21.877  0.00  0.00    +0.000 C 
ATOM     29  C   UNL     1      -4.038  15.799  22.442  0.00  0.00    +0.000 C 
ENDBRANCH  16  23
ENDBRANCH   1  19
BRANCH   3  30
ATOM     30  C   UNL     1       1.890   8.666  18.912  0.00  0.00    +0.000 A 
ATOM     31  C   UNL     1       1.839   7.715  19.936  0.00  0.00    +0.000 A 
ATOM     32  C   UNL     1       2.536   6.510  19.808  0.00  0.00    +0.000 A 
ATOM     33  C   UNL     1       3.285   6.255  18.660  0.00  0.00    +0.000 A 
ATOM     34  C   UNL     1       3.329   7.195  17.634  0.00  0.00    +0.000 A 
ATOM     35  C   UNL     1       2.633   8.398  17.756  0.00  0.00    +0.000 A 
ENDBRANCH   3  30
TORSDOF 4
ENDMDL
MODEL 8
REMARK VINA RESULT:      -8.5      6.363     10.675
REMARK  Name = 
REMARK  4 active torsions:
REMARK  status: ('A' for Active; 'I' for Inactive)
REMARK    1  A    between atoms: C_2  and  C_3
REMARK    2  A    between atoms: C_6  and  N_7
REMARK    3  A    between atoms: C_9  and  C_10
REMARK    4  A    between atoms: C_17  and  C_18
REMARK                            x       y       z     vdW  Elec       q    Type
REMARK                         _______ _______ _______ _____ _____    ______ ____
ROOT
ATOM      1  N   UNL     1       1.037  11.268  19.937  0.00  0.00    +0.000 N 
ATOM      2  N   UNL     1       1.322  12.095  20.984  0.00  0.00    +0.000 NA
ATOM      3  C   UNL     1       0.860  13.271  20.667  0.00  0.00    +0.000 C 
ATOM      4  C   UNL     1       0.172  13.358  19.333  0.00  0.00    +0.000 C 
ATOM      5  C   UNL     1       0.322  11.919  18.846  0.00  0.00    +0.000 C 
ENDROOT
BRANCH   5   6
ATOM      6  C   UNL     1      -1.008  11.263  18.470  0.00  0.00    +0.000 A 
ATOM      7  C   UNL     1      -0.961  10.296  17.441  0.00  0.00    +0.000 A 
ATOM      8  C   UNL     1      -2.120   9.722  16.937  0.00  0.00    +0.000 A 
ATOM      9  C   UNL     1      -3.356  10.163  17.393  0.00  0.00    +0.000 A 
ATOM     10  C   UNL     1      -3.448  11.135  18.397  0.00  0.00    +0.000 A 
ATOM     11  C   UNL     1      -4.708  11.634  18.764  0.00  0.00    +0.000 A 
ATOM     12  C   UNL     1      -4.843  12.566  19.789  0.00  0.00    +0.000 A 
ATOM     13  C   UNL     1      -3.727  12.944  20.518  0.00  0.00    +0.000 A 
ATOM     14  C   UNL     1      -2.466  12.471  20.145  0.00  0.00    +0.000 A 
ATOM     15  C   UNL     1      -2.275  11.628  19.023  0.00  0.00    +0.000 A 
ENDBRANCH   5   6
BRANCH   1  19
ATOM     16  C   UNL     1       1.752   7.109  19.919  0.00  0.00    +0.000 A 
ATOM     17  C   UNL     1       1.208   7.727  21.057  0.00  0.00    +0.000 A 
ATOM     18  C   UNL     1       1.002   9.113  21.076  0.00  0.00    +0.000 A 
ATOM     19  C   UNL     1       1.311   9.906  19.962  0.00  0.00    +0.000 A 
ATOM     20  C   UNL     1       1.858   9.266  18.840  0.00  0.00    +0.000 A 
ATOM     21  C   UNL     1       2.026   7.885  18.797  0.00  0.00    +0.000 A 
BRANCH  16  23
ATOM     22  O   UNL     1       1.175   4.947  20.543  0.00  0.00    +0.000 OA
ATOM     23  C   UNL     1       1.973   5.645  19.920  0.00  0.00    +0.000 C 
ATOM     24  N   UNL     1       3.053   5.111  19.220  0.00  0.00    +0.000 N 
ATOM     25  C   UNL     1       3.148   3.661  19.055  0.00  0.00    +0.000 C 
ATOM     26  C   UNL     1       4.486   3.140  19.586  0.00  0.00    +0.000 C 
ATOM     27  O   UNL     1       5.590   3.826  18.971  0.00  0.00    +0.000 OA
ATOM     28  C   UNL     1       5.522   5.230  19.251  0.00  0.00    +0.000 C 
ATOM     29  C   UNL     1       4.225   5.840  18.714  0.00  0.00    +0.000 C 
ENDBRANCH  16  23
ENDBRANCH   1  19
BRANCH   3  30
ATOM     30  C   UNL     1       0.965  14.458  21.547  0.00  0.00    +0.000 A 
ATOM     31  C   UNL     1      -0.155  14.865  22.279  0.00  0.00    +0.000 A 
ATOM     32  C   UNL     1      -0.086  16.006  23.085  0.00  0.00    +0.000 A 
ATOM     33  C   UNL     1       1.096  16.740  23.158  0.00  0.00    +0.000 A 
ATOM     34  C   UNL     1       2.216  16.331  22.438  0.00  0.00    +0.000 A 
ATOM     35  C   UNL     1       2.154  15.192  21.634  0.00  0.00    +0.000 A 
ENDBRANCH   3  30
TORSDOF 4
ENDMDL
MODEL 9
REMARK VINA RESULT:      -8.4      6.674     11.253
REMARK  Name = 
REMARK  4 active torsions:
REMARK  status: ('A' for Active; 'I' for Inactive)
REMARK    1  A    between atoms: C_2  and  C_3
REMARK    2  A    between atoms: C_6  and  N_7
REMARK    3  A    between atoms: C_9  and  C_10
REMARK    4  A    between atoms: C_17  and  C_18
REMARK                            x       y       z     vdW  Elec       q    Type
REMARK                         _______ _______ _______ _____ _____    ______ ____
ROOT
ATOM      1  N   UNL     1       0.398  11.465  19.772  0.00  0.00    +0.000 N 
ATOM      2  N   UNL     1       0.530  12.065  20.990  0.00  0.00    +0.000 NA
ATOM      3  C   UNL     1      -0.194  13.146  20.954  0.00  0.00    +0.000 C 
ATOM      4  C   UNL     1      -0.933  13.387  19.667  0.00  0.00    +0.000 C 
ATOM      5  C   UNL     1      -0.484  12.176  18.855  0.00  0.00    +0.000 C 
ENDROOT
BRANCH   5   6
ATOM      6  C   UNL     1      -1.646  11.343  18.310  0.00  0.00    +0.000 A 
ATOM      7  C   UNL     1      -1.329  10.410  17.298  0.00  0.00    +0.000 A 
ATOM      8  C   UNL     1      -2.319   9.685  16.649  0.00  0.00    +0.000 A 
ATOM      9  C   UNL     1      -3.654   9.939  16.939  0.00  0.00    +0.000 A 
ATOM     10  C   UNL     1      -4.013  10.872  17.920  0.00  0.00    +0.000 A 
ATOM     11  C   UNL     1      -5.368  11.181  18.119  0.00  0.00    +0.000 A 
ATOM     12  C   UNL     1      -5.766  12.068  19.115  0.00  0.00    +0.000 A 
ATOM     13  C   UNL     1      -4.819  12.588  19.982  0.00  0.00    +0.000 A 
ATOM     14  C   UNL     1      -3.466  12.305  19.778  0.00  0.00    +0.000 A 
ATOM     15  C   UNL     1      -3.014  11.516  18.692  0.00  0.00    +0.000 A 
ENDBRANCH   5   6
BRANCH   1  19
ATOM     16  C   UNL     1       2.251   7.757  18.975  0.00  0.00    +0.000 A 
ATOM     17  C   UNL     1       2.276   8.780  18.013  0.00  0.00    +0.000 A 
ATOM     18  C   UNL     1       1.631  10.000  18.263  0.00  0.00    +0.000 A 
ATOM     19  C   UNL     1       0.971  10.233  19.477  0.00  0.00    +0.000 A 
ATOM     20  C   UNL     1       0.956   9.194  20.420  0.00  0.00    +0.000 A 
ATOM     21  C   UNL     1       1.630   7.996  20.196  0.00  0.00    +0.000 A 
BRANCH  16  23
ATOM     22  O   UNL     1       3.636   6.409  17.687  0.00  0.00    +0.000 OA
ATOM     23  C   UNL     1       2.927   6.472  18.689  0.00  0.00    +0.000 C 
ATOM     24  N   UNL     1       2.752   5.394  19.555  0.00  0.00    +0.000 N 
ATOM     25  C   UNL     1       3.578   4.200  19.382  0.00  0.00    +0.000 C 
ATOM     26  C   UNL     1       2.706   2.954  19.215  0.00  0.00    +0.000 C 
ATOM     27  O   UNL     1       1.783   2.817  20.309  0.00  0.00    +0.000 OA
ATOM     28  C   UNL     1       0.916   3.957  20.375  0.00  0.00    +0.000 C 
ATOM     29  C   UNL     1       1.712   5.248  20.584  0.00  0.00    +0.000 C 
ENDBRANCH  16  23
ENDBRANCH   1  19
BRANCH   3  30
ATOM     30  C   UNL     1      -0.325  14.085  22.092  0.00  0.00    +0.000 A 
ATOM     31  C   UNL     1      -1.200  13.772  23.137  0.00  0.00    +0.000 A 
ATOM     32  C   UNL     1      -1.366  14.664  24.201  0.00  0.00    +0.000 A 
ATOM     33  C   UNL     1      -0.661  15.867  24.221  0.00  0.00    +0.000 A 
ATOM     34  C   UNL     1       0.219  16.176  23.187  0.00  0.00    +0.000 A 
ATOM     35  C   UNL     1       0.390  15.288  22.124  0.00  0.00    +0.000 A 
ENDBRANCH   3  30
TORSDOF 4
ENDMDL
