MODEL 1
REMARK VINA RESULT:      -7.7      0.000      0.000
REMARK  Name = 
REMARK  4 active torsions:
REMARK  status: ('A' for Active; 'I' for Inactive)
REMARK    1  A    between atoms: S_2  and  N_4
REMARK    2  A    between atoms: S_2  and  C_20
REMARK    3  A    between atoms: S_5  and  C_6
REMARK    4  A    between atoms: S_5  and  C_13
REMARK                            x       y       z     vdW  Elec       q    Type
REMARK                         _______ _______ _______ _____ _____    ______ ____
ROOT
ATOM      1  N   UNL     1       4.507   6.063  19.196  0.00  0.00    +0.000 NA
ATOM      2  S   UNL     1       3.237   5.804  18.250  0.00  0.00    +0.000 S 
ENDROOT
BRANCH   2   3
ATOM      3  C   UNL     1       2.444   4.657  19.420  0.00  0.00    +0.000 A 
ATOM      4  C   UNL     1       1.396   3.782  19.098  0.00  0.00    +0.000 A 
ATOM      5  C   UNL     1       0.866   2.926  20.071  0.00  0.00    +0.000 A 
ATOM      6  C   UNL     1       1.368   2.954  21.372  0.00  0.00    +0.000 A 
ATOM      7 CL   UNL     1       0.715   1.906  22.569  0.00  0.00    +0.000 Cl
ATOM      8  C   UNL     1       2.395   3.830  21.707  0.00  0.00    +0.000 A 
ATOM      9  C   UNL     1       2.933   4.675  20.734  0.00  0.00    +0.000 A 
ENDBRANCH   2   3
BRANCH   2  10
ATOM     10  C   UNL     1       2.302   7.288  18.724  0.00  0.00    +0.000 A 
ATOM     11  C   UNL     1       1.905   7.545  20.045  0.00  0.00    +0.000 A 
ATOM     12  C   UNL     1       1.259   8.745  20.373  0.00  0.00    +0.000 A 
ATOM     13  C   UNL     1       1.021   9.701  19.389  0.00  0.00    +0.000 A 
ATOM     14 CL   UNL     1       0.223  11.171  19.792  0.00  0.00    +0.000 Cl
ATOM     15  C   UNL     1       1.438   9.478  18.081  0.00  0.00    +0.000 A 
ATOM     16  C   UNL     1       2.088   8.284  17.756  0.00  0.00    +0.000 A 
ENDBRANCH   2  10
BRANCH   1  18
ATOM     17  O   UNL     1       7.084   5.926  19.100  0.00  0.00    +0.000 OA
ATOM     18  S   UNL     1       5.909   5.125  18.806  0.00  0.00    +0.000 S 
ATOM     19  O   UNL     1       5.776   3.783  19.340  0.00  0.00    +0.000 OA
BRANCH  18  20
ATOM     20  C   UNL     1       5.808   5.017  17.026  0.00  0.00    +0.000 A 
ATOM     21  C   UNL     1       5.961   3.770  16.410  0.00  0.00    +0.000 A 
ATOM     22  C   UNL     1       5.932   3.687  15.017  0.00  0.00    +0.000 A 
ATOM     23  C   UNL     1       5.737   4.838  14.251  0.00  0.00    +0.000 A 
ATOM     24  C   UNL     1       5.544   6.073  14.874  0.00  0.00    +0.000 A 
ATOM     25  C   UNL     1       5.573   6.167  16.265  0.00  0.00    +0.000 A 
ENDBRANCH  18  20
ENDBRANCH   1  18
TORSDOF 4
ENDMDL
MODEL 2
REMARK VINA RESULT:      -7.6      0.142      1.375
REMARK  Name = 
REMARK  4 active torsions:
REMARK  status: ('A' for Active; 'I' for Inactive)
REMARK    1  A    between atoms: S_2  and  N_4
REMARK    2  A    between atoms: S_2  and  C_20
REMARK    3  A    between atoms: S_5  and  C_6
REMARK    4  A    between atoms: S_5  and  C_13
REMARK                            x       y       z     vdW  Elec       q    Type
REMARK                         _______ _______ _______ _____ _____    ______ ____
ROOT
ATOM      1  N   UNL     1       4.590   6.063  19.172  0.00  0.00    +0.000 NA
ATOM      2  S   UNL     1       3.312   5.844  18.227  0.00  0.00    +0.000 S 
ENDROOT
BRANCH   2   3
ATOM      3  C   UNL     1       2.488   4.718  19.394  0.00  0.00    +0.000 A 
ATOM      4  C   UNL     1       1.404   3.886  19.076  0.00  0.00    +0.000 A 
ATOM      5  C   UNL     1       0.852   3.041  20.047  0.00  0.00    +0.000 A 
ATOM      6  C   UNL     1       1.367   3.037  21.342  0.00  0.00    +0.000 A 
ATOM      7 CL   UNL     1       0.687   2.004  22.536  0.00  0.00    +0.000 Cl
ATOM      8  C   UNL     1       2.431   3.871  21.674  0.00  0.00    +0.000 A 
ATOM      9  C   UNL     1       2.990   4.704  20.704  0.00  0.00    +0.000 A 
ENDBRANCH   2   3
BRANCH   2  10
ATOM     10  C   UNL     1       2.421   7.354  18.707  0.00  0.00    +0.000 A 
ATOM     11  C   UNL     1       2.029   8.330  17.778  0.00  0.00    +0.000 A 
ATOM     12  C   UNL     1       1.270   9.436  18.187  0.00  0.00    +0.000 A 
ATOM     13  C   UNL     1       0.886   9.564  19.519  0.00  0.00    +0.000 A 
ATOM     14 CL   UNL     1      -0.041  10.925  20.019  0.00  0.00    +0.000 Cl
ATOM     15  C   UNL     1       1.237   8.589  20.446  0.00  0.00    +0.000 A 
ATOM     16  C   UNL     1       1.988   7.484  20.036  0.00  0.00    +0.000 A 
ENDBRANCH   2  10
BRANCH   1  18
ATOM     17  O   UNL     1       7.162   5.839  19.101  0.00  0.00    +0.000 OA
ATOM     18  S   UNL     1       5.963   5.087  18.776  0.00  0.00    +0.000 S 
ATOM     19  O   UNL     1       5.778   3.738  19.278  0.00  0.00    +0.000 OA
BRANCH  18  20
ATOM     20  C   UNL     1       5.881   5.021  16.993  0.00  0.00    +0.000 A 
ATOM     21  C   UNL     1       5.635   6.198  16.279  0.00  0.00    +0.000 A 
ATOM     22  C   UNL     1       5.521   6.143  14.889  0.00  0.00    +0.000 A 
ATOM     23  C   UNL     1       5.667   4.926  14.222  0.00  0.00    +0.000 A 
ATOM     24  C   UNL     1       5.954   3.761  14.937  0.00  0.00    +0.000 A 
ATOM     25  C   UNL     1       6.067   3.805  16.327  0.00  0.00    +0.000 A 
ENDBRANCH  18  20
ENDBRANCH   1  18
TORSDOF 4
ENDMDL
MODEL 3
REMARK VINA RESULT:      -7.4      3.966      6.894
REMARK  Name = 
REMARK  4 active torsions:
REMARK  status: ('A' for Active; 'I' for Inactive)
REMARK    1  A    between atoms: S_2  and  N_4
REMARK    2  A    between atoms: S_2  and  C_20
REMARK    3  A    between atoms: S_5  and  C_6
REMARK    4  A    between atoms: S_5  and  C_13
REMARK                            x       y       z     vdW  Elec       q    Type
REMARK                         _______ _______ _______ _____ _____    ______ ____
ROOT
ATOM      1  N   UNL     1       4.436   4.574  17.336  0.00  0.00    +0.000 NA
ATOM      2  S   UNL     1       5.965   4.096  17.424  0.00  0.00    +0.000 S 
ENDROOT
BRANCH   2   3
ATOM      3  C   UNL     1       6.208   4.130  15.621  0.00  0.00    +0.000 A 
ATOM      4  C   UNL     1       5.356   3.524  14.685  0.00  0.00    +0.000 A 
ATOM      5  C   UNL     1       5.626   3.625  13.314  0.00  0.00    +0.000 A 
ATOM      6  C   UNL     1       6.755   4.313  12.875  0.00  0.00    +0.000 A 
ATOM      7 CL   UNL     1       7.090   4.433  11.193  0.00  0.00    +0.000 Cl
ATOM      8  C   UNL     1       7.616   4.903  13.794  0.00  0.00    +0.000 A 
ATOM      9  C   UNL     1       7.342   4.815  15.160  0.00  0.00    +0.000 A 
ENDBRANCH   2   3
BRANCH   2  10
ATOM     10  C   UNL     1       6.687   5.725  17.777  0.00  0.00    +0.000 A 
ATOM     11  C   UNL     1       7.793   5.897  18.623  0.00  0.00    +0.000 A 
ATOM     12  C   UNL     1       8.365   7.165  18.797  0.00  0.00    +0.000 A 
ATOM     13  C   UNL     1       7.846   8.264  18.116  0.00  0.00    +0.000 A 
ATOM     14 CL   UNL     1       8.547   9.820  18.335  0.00  0.00    +0.000 Cl
ATOM     15  C   UNL     1       6.772   8.106  17.249  0.00  0.00    +0.000 A 
ATOM     16  C   UNL     1       6.206   6.840  17.071  0.00  0.00    +0.000 A 
ENDBRANCH   2  10
BRANCH   1  18
ATOM     17  O   UNL     1       2.160   3.638  16.553  0.00  0.00    +0.000 OA
ATOM     18  S   UNL     1       3.268   3.300  17.428  0.00  0.00    +0.000 S 
ATOM     19  O   UNL     1       3.926   2.011  17.325  0.00  0.00    +0.000 OA
BRANCH  18  20
ATOM     20  C   UNL     1       2.657   3.467  19.098  0.00  0.00    +0.000 A 
ATOM     21  C   UNL     1       2.792   4.695  19.754  0.00  0.00    +0.000 A 
ATOM     22  C   UNL     1       2.361   4.816  21.075  0.00  0.00    +0.000 A 
ATOM     23  C   UNL     1       1.785   3.724  21.726  0.00  0.00    +0.000 A 
ATOM     24  C   UNL     1       1.614   2.512  21.053  0.00  0.00    +0.000 A 
ATOM     25  C   UNL     1       2.045   2.380  19.732  0.00  0.00    +0.000 A 
ENDBRANCH  18  20
ENDBRANCH   1  18
TORSDOF 4
ENDMDL
MODEL 4
REMARK VINA RESULT:      -7.4      1.709      2.735
REMARK  Name = 
REMARK  4 active torsions:
REMARK  status: ('A' for Active; 'I' for Inactive)
REMARK    1  A    between atoms: S_2  and  N_4
REMARK    2  A    between atoms: S_2  and  C_20
REMARK    3  A    between atoms: S_5  and  C_6
REMARK    4  A    between atoms: S_5  and  C_13
REMARK                            x       y       z     vdW  Elec       q    Type
REMARK                         _______ _______ _______ _____ _____    ______ ____
ROOT
ATOM      1  N   UNL     1       4.134   6.713  18.333  0.00  0.00    +0.000 NA
ATOM      2  S   UNL     1       2.605   6.568  17.871  0.00  0.00    +0.000 S 
ENDROOT
BRANCH   2   3
ATOM      3  C   UNL     1       2.186   5.395  19.198  0.00  0.00    +0.000 A 
ATOM      4  C   UNL     1       2.685   5.454  20.508  0.00  0.00    +0.000 A 
ATOM      5  C   UNL     1       2.284   4.510  21.460  0.00  0.00    +0.000 A 
ATOM      6  C   UNL     1       1.399   3.493  21.105  0.00  0.00    +0.000 A 
ATOM      7 CL   UNL     1       0.910   2.330  22.272  0.00  0.00    +0.000 Cl
ATOM      8  C   UNL     1       0.911   3.414  19.804  0.00  0.00    +0.000 A 
ATOM      9  C   UNL     1       1.299   4.363  18.857  0.00  0.00    +0.000 A 
ENDBRANCH   2   3
BRANCH   2  10
ATOM     10  C   UNL     1       1.983   8.065  18.692  0.00  0.00    +0.000 A 
ATOM     11  C   UNL     1       1.704   9.251  17.995  0.00  0.00    +0.000 A 
ATOM     12  C   UNL     1       1.146  10.352  18.660  0.00  0.00    +0.000 A 
ATOM     13  C   UNL     1       0.850  10.269  20.019  0.00  0.00    +0.000 A 
ATOM     14 CL   UNL     1       0.170  11.623  20.834  0.00  0.00    +0.000 Cl
ATOM     15  C   UNL     1       1.089   9.091  20.717  0.00  0.00    +0.000 A 
ATOM     16  C   UNL     1       1.639   7.992  20.051  0.00  0.00    +0.000 A 
ENDBRANCH   2  10
BRANCH   1  18
ATOM     17  O   UNL     1       4.959   5.868  16.036  0.00  0.00    +0.000 OA
ATOM     18  S   UNL     1       5.257   5.734  17.451  0.00  0.00    +0.000 S 
ATOM     19  O   UNL     1       6.604   5.950  17.946  0.00  0.00    +0.000 OA
BRANCH  18  20
ATOM     20  C   UNL     1       4.765   4.081  17.914  0.00  0.00    +0.000 A 
ATOM     21  C   UNL     1       4.091   3.285  16.981  0.00  0.00    +0.000 A 
ATOM     22  C   UNL     1       3.660   2.011  17.355  0.00  0.00    +0.000 A 
ATOM     23  C   UNL     1       3.917   1.534  18.641  0.00  0.00    +0.000 A 
ATOM     24  C   UNL     1       4.627   2.317  19.554  0.00  0.00    +0.000 A 
ATOM     25  C   UNL     1       5.059   3.594  19.191  0.00  0.00    +0.000 A 
ENDBRANCH  18  20
ENDBRANCH   1  18
TORSDOF 4
ENDMDL
MODEL 5
REMARK VINA RESULT:      -7.3      5.437      8.450
REMARK  Name = 
REMARK  4 active torsions:
REMARK  status: ('A' for Active; 'I' for Inactive)
REMARK    1  A    between atoms: S_2  and  N_4
REMARK    2  A    between atoms: S_2  and  C_20
REMARK    3  A    between atoms: S_5  and  C_6
REMARK    4  A    between atoms: S_5  and  C_13
REMARK                            x       y       z     vdW  Elec       q    Type
REMARK                         _______ _______ _______ _____ _____    ______ ____
ROOT
ATOM      1  N   UNL     1       1.420  11.934  19.422  0.00  0.00    +0.000 NA
ATOM      2  S   UNL     1       0.612  10.849  20.284  0.00  0.00    +0.000 S 
ENDROOT
BRANCH   2   3
ATOM      3  C   UNL     1      -0.862  10.919  19.218  0.00  0.00    +0.000 A 
ATOM      4  C   UNL     1      -1.027  10.194  18.029  0.00  0.00    +0.000 A 
ATOM      5  C   UNL     1      -2.211  10.307  17.290  0.00  0.00    +0.000 A 
ATOM      6  C   UNL     1      -3.226  11.158  17.726  0.00  0.00    +0.000 A 
ATOM      7 CL   UNL     1      -4.678  11.301  16.817  0.00  0.00    +0.000 Cl
ATOM      8  C   UNL     1      -3.067  11.895  18.895  0.00  0.00    +0.000 A 
ATOM      9  C   UNL     1      -1.892  11.773  19.639  0.00  0.00    +0.000 A 
ENDBRANCH   2   3
BRANCH   2  10
ATOM     10  C   UNL     1       1.358   9.371  19.535  0.00  0.00    +0.000 A 
ATOM     11  C   UNL     1       1.925   9.376  18.251  0.00  0.00    +0.000 A 
ATOM     12  C   UNL     1       2.564   8.232  17.751  0.00  0.00    +0.000 A 
ATOM     13  C   UNL     1       2.654   7.085  18.535  0.00  0.00    +0.000 A 
ATOM     14 CL   UNL     1       3.434   5.681  17.918  0.00  0.00    +0.000 Cl
ATOM     15  C   UNL     1       2.128   7.073  19.822  0.00  0.00    +0.000 A 
ATOM     16  C   UNL     1       1.497   8.216  20.322  0.00  0.00    +0.000 A 
ENDBRANCH   2  10
BRANCH   1  18
ATOM     17  O   UNL     1       0.444  14.319  19.253  0.00  0.00    +0.000 OA
ATOM     18  S   UNL     1       1.375  13.545  20.054  0.00  0.00    +0.000 S 
ATOM     19  O   UNL     1       1.256  13.511  21.500  0.00  0.00    +0.000 OA
BRANCH  18  20
ATOM     20  C   UNL     1       3.006  14.154  19.656  0.00  0.00    +0.000 A 
ATOM     21  C   UNL     1       3.869  14.519  20.695  0.00  0.00    +0.000 A 
ATOM     22  C   UNL     1       5.126  15.042  20.387  0.00  0.00    +0.000 A 
ATOM     23  C   UNL     1       5.520  15.180  19.055  0.00  0.00    +0.000 A 
ATOM     24  C   UNL     1       4.670  14.774  18.024  0.00  0.00    +0.000 A 
ATOM     25  C   UNL     1       3.411  14.254  18.320  0.00  0.00    +0.000 A 
ENDBRANCH  18  20
ENDBRANCH   1  18
TORSDOF 4
ENDMDL
MODEL 6
REMARK VINA RESULT:      -7.3      0.133      1.375
REMARK  Name = 
REMARK  4 active torsions:
REMARK  status: ('A' for Active; 'I' for Inactive)
REMARK    1  A    between atoms: S_2  and  N_4
REMARK    2  A    between atoms: S_2  and  C_20
REMARK    3  A    between atoms: S_5  and  C_6
REMARK    4  A    between atoms: S_5  and  C_13
REMARK                            x       y       z     vdW  Elec       q    Type
REMARK                         _______ _______ _______ _____ _____    ______ ____
ROOT
ATOM      1  N   UNL     1       4.603   6.113  19.125  0.00  0.00    +0.000 NA
ATOM      2  S   UNL     1       3.291   5.757  18.274  0.00  0.00    +0.000 S 
ENDROOT
BRANCH   2   3
ATOM      3  C   UNL     1       2.597   4.677  19.564  0.00  0.00    +0.000 A 
ATOM      4  C   UNL     1       3.038   4.632  20.895  0.00  0.00    +0.000 A 
ATOM      5  C   UNL     1       2.422   3.775  21.816  0.00  0.00    +0.000 A 
ATOM      6  C   UNL     1       1.379   2.946  21.406  0.00  0.00    +0.000 A 
ATOM      7 CL   UNL     1       0.626   1.890  22.535  0.00  0.00    +0.000 Cl
ATOM      8  C   UNL     1       0.944   2.969  20.085  0.00  0.00    +0.000 A 
ATOM      9  C   UNL     1       1.548   3.833  19.170  0.00  0.00    +0.000 A 
ENDBRANCH   2   3
BRANCH   2  10
ATOM     10  C   UNL     1       2.341   7.247  18.696  0.00  0.00    +0.000 A 
ATOM     11  C   UNL     1       1.921   7.533  20.005  0.00  0.00    +0.000 A 
ATOM     12  C   UNL     1       1.264   8.738  20.293  0.00  0.00    +0.000 A 
ATOM     13  C   UNL     1       1.038   9.668  19.282  0.00  0.00    +0.000 A 
ATOM     14 CL   UNL     1       0.227  11.143  19.638  0.00  0.00    +0.000 Cl
ATOM     15  C   UNL     1       1.477   9.416  17.988  0.00  0.00    +0.000 A 
ATOM     16  C   UNL     1       2.138   8.218  17.702  0.00  0.00    +0.000 A 
ENDBRANCH   2  10
BRANCH   1  18
ATOM     17  O   UNL     1       7.180   5.993  19.005  0.00  0.00    +0.000 OA
ATOM     18  S   UNL     1       6.007   5.185  18.720  0.00  0.00    +0.000 S 
ATOM     19  O   UNL     1       5.888   3.841  19.254  0.00  0.00    +0.000 OA
BRANCH  18  20
ATOM     20  C   UNL     1       5.891   5.079  16.941  0.00  0.00    +0.000 A 
ATOM     21  C   UNL     1       5.590   6.231  16.208  0.00  0.00    +0.000 A 
ATOM     22  C   UNL     1       5.449   6.142  14.823  0.00  0.00    +0.000 A 
ATOM     23  C   UNL     1       5.626   4.917  14.178  0.00  0.00    +0.000 A 
ATOM     24  C   UNL     1       5.968   3.779  14.911  0.00  0.00    +0.000 A 
ATOM     25  C   UNL     1       6.108   3.856  16.297  0.00  0.00    +0.000 A 
ENDBRANCH  18  20
ENDBRANCH   1  18
TORSDOF 4
ENDMDL
MODEL 7
REMARK VINA RESULT:      -7.2      3.223      4.668
REMARK  Name = 
REMARK  4 active torsions:
REMARK  status: ('A' for Active; 'I' for Inactive)
REMARK    1  A    between atoms: S_2  and  N_4
REMARK    2  A    between atoms: S_2  and  C_20
REMARK    3  A    between atoms: S_5  and  C_6
REMARK    4  A    between atoms: S_5  and  C_13
REMARK                            x       y       z     vdW  Elec       q    Type
REMARK                         _______ _______ _______ _____ _____    ______ ____
ROOT
ATOM      1  N   UNL     1       1.329   4.895  19.531  0.00  0.00    +0.000 NA
ATOM      2  S   UNL     1       2.522   5.642  20.300  0.00  0.00    +0.000 S 
ENDROOT
BRANCH   2   3
ATOM      3  C   UNL     1       3.747   5.287  19.001  0.00  0.00    +0.000 A 
ATOM      4  C   UNL     1       3.441   5.060  17.651  0.00  0.00    +0.000 A 
ATOM      5  C   UNL     1       4.463   4.812  16.727  0.00  0.00    +0.000 A 
ATOM      6  C   UNL     1       5.791   4.772  17.150  0.00  0.00    +0.000 A 
ATOM      7 CL   UNL     1       7.046   4.463  16.016  0.00  0.00    +0.000 Cl
ATOM      8  C   UNL     1       6.105   4.979  18.489  0.00  0.00    +0.000 A 
ATOM      9  C   UNL     1       5.087   5.239  19.409  0.00  0.00    +0.000 A 
ENDBRANCH   2   3
BRANCH   2  10
ATOM     10  C   UNL     1       2.109   7.328  19.764  0.00  0.00    +0.000 A 
ATOM     11  C   UNL     1       2.364   7.794  18.464  0.00  0.00    +0.000 A 
ATOM     12  C   UNL     1       1.950   9.076  18.075  0.00  0.00    +0.000 A 
ATOM     13  C   UNL     1       1.267   9.891  18.974  0.00  0.00    +0.000 A 
ATOM     14 CL   UNL     1       0.765  11.466  18.495  0.00  0.00    +0.000 Cl
ATOM     15  C   UNL     1       0.977   9.433  20.253  0.00  0.00    +0.000 A 
ATOM     16  C   UNL     1       1.384   8.152  20.639  0.00  0.00    +0.000 A 
ENDBRANCH   2  10
BRANCH   1  18
ATOM     17  O   UNL     1       0.910   3.289  21.510  0.00  0.00    +0.000 OA
ATOM     18  S   UNL     1       1.021   3.276  20.062  0.00  0.00    +0.000 S 
ATOM     19  O   UNL     1      -0.016   2.672  19.247  0.00  0.00    +0.000 OA
BRANCH  18  20
ATOM     20  C   UNL     1       2.560   2.453  19.684  0.00  0.00    +0.000 A 
ATOM     21  C   UNL     1       2.754   1.926  18.403  0.00  0.00    +0.000 A 
ATOM     22  C   UNL     1       3.934   1.239  18.117  0.00  0.00    +0.000 A 
ATOM     23  C   UNL     1       4.916   1.097  19.099  0.00  0.00    +0.000 A 
ATOM     24  C   UNL     1       4.735   1.662  20.364  0.00  0.00    +0.000 A 
ATOM     25  C   UNL     1       3.557   2.348  20.660  0.00  0.00    +0.000 A 
ENDBRANCH  18  20
ENDBRANCH   1  18
TORSDOF 4
ENDMDL
MODEL 8
REMARK VINA RESULT:      -7.2      1.744      2.542
REMARK  Name = 
REMARK  4 active torsions:
REMARK  status: ('A' for Active; 'I' for Inactive)
REMARK    1  A    between atoms: S_2  and  N_4
REMARK    2  A    between atoms: S_2  and  C_20
REMARK    3  A    between atoms: S_5  and  C_6
REMARK    4  A    between atoms: S_5  and  C_13
REMARK                            x       y       z     vdW  Elec       q    Type
REMARK                         _______ _______ _______ _____ _____    ______ ____
ROOT
ATOM      1  N   UNL     1       4.061   7.173  18.215  0.00  0.00    +0.000 NA
ATOM      2  S   UNL     1       2.544   6.973  17.735  0.00  0.00    +0.000 S 
ENDROOT
BRANCH   2   3
ATOM      3  C   UNL     1       2.170   5.739  19.019  0.00  0.00    +0.000 A 
ATOM      4  C   UNL     1       2.619   5.803  20.347  0.00  0.00    +0.000 A 
ATOM      5  C   UNL     1       2.258   4.807  21.264  0.00  0.00    +0.000 A 
ATOM      6  C   UNL     1       1.466   3.736  20.854  0.00  0.00    +0.000 A 
ATOM      7 CL   UNL     1       1.027   2.511  21.977  0.00  0.00    +0.000 Cl
ATOM      8  C   UNL     1       1.030   3.653  19.535  0.00  0.00    +0.000 A 
ATOM      9  C   UNL     1       1.377   4.652  18.624  0.00  0.00    +0.000 A 
ENDBRANCH   2   3
BRANCH   2  10
ATOM     10  C   UNL     1       1.847   8.412  18.597  0.00  0.00    +0.000 A 
ATOM     11  C   UNL     1       1.421   8.362  19.933  0.00  0.00    +0.000 A 
ATOM     12  C   UNL     1       0.968   9.521  20.579  0.00  0.00    +0.000 A 
ATOM     13  C   UNL     1       0.953  10.737  19.901  0.00  0.00    +0.000 A 
ATOM     14 CL   UNL     1       0.393  12.157  20.694  0.00  0.00    +0.000 Cl
ATOM     15  C   UNL     1       1.403  10.811  18.587  0.00  0.00    +0.000 A 
ATOM     16  C   UNL     1       1.860   9.656  17.946  0.00  0.00    +0.000 A 
ENDBRANCH   2  10
BRANCH   1  18
ATOM     17  O   UNL     1       4.930   6.426  15.901  0.00  0.00    +0.000 OA
ATOM     18  S   UNL     1       5.236   6.277  17.312  0.00  0.00    +0.000 S 
ATOM     19  O   UNL     1       6.569   6.556  17.813  0.00  0.00    +0.000 OA
BRANCH  18  20
ATOM     20  C   UNL     1       4.835   4.590  17.738  0.00  0.00    +0.000 A 
ATOM     21  C   UNL     1       4.218   3.775  16.783  0.00  0.00    +0.000 A 
ATOM     22  C   UNL     1       3.857   2.471  17.127  0.00  0.00    +0.000 A 
ATOM     23  C   UNL     1       4.128   1.985  18.408  0.00  0.00    +0.000 A 
ATOM     24  C   UNL     1       4.782   2.790  19.343  0.00  0.00    +0.000 A 
ATOM     25  C   UNL     1       5.144   4.096  19.010  0.00  0.00    +0.000 A 
ENDBRANCH  18  20
ENDBRANCH   1  18
TORSDOF 4
ENDMDL
MODEL 9
REMARK VINA RESULT:      -7.1      5.501      8.535
REMARK  Name = 
REMARK  4 active torsions:
REMARK  status: ('A' for Active; 'I' for Inactive)
REMARK    1  A    between atoms: S_2  and  N_4
REMARK    2  A    between atoms: S_2  and  C_20
REMARK    3  A    between atoms: S_5  and  C_6
REMARK    4  A    between atoms: S_5  and  C_13
REMARK                            x       y       z     vdW  Elec       q    Type
REMARK                         _______ _______ _______ _____ _____    ______ ____
ROOT
ATOM      1  N   UNL     1       1.352  12.085  19.479  0.00  0.00    +0.000 NA
ATOM      2  S   UNL     1       0.582  10.991  20.365  0.00  0.00    +0.000 S 
ENDROOT
BRANCH   2   3
ATOM      3  C   UNL     1      -0.936  11.071  19.365  0.00  0.00    +0.000 A 
ATOM      4  C   UNL     1      -2.044  11.882  19.652  0.00  0.00    +0.000 A 
ATOM      5  C   UNL     1      -3.159  11.882  18.806  0.00  0.00    +0.000 A 
ATOM      6  C   UNL     1      -3.181  11.057  17.682  0.00  0.00    +0.000 A 
ATOM      7 CL   UNL     1      -4.552  11.052  16.645  0.00  0.00    +0.000 Cl
ATOM      8  C   UNL     1      -2.096  10.235  17.396  0.00  0.00    +0.000 A 
ATOM      9  C   UNL     1      -0.977  10.245  18.232  0.00  0.00    +0.000 A 
ENDBRANCH   2   3
BRANCH   2  10
ATOM     10  C   UNL     1       1.296   9.521  19.570  0.00  0.00    +0.000 A 
ATOM     11  C   UNL     1       1.822   9.542  18.269  0.00  0.00    +0.000 A 
ATOM     12  C   UNL     1       2.437   8.403  17.732  0.00  0.00    +0.000 A 
ATOM     13  C   UNL     1       2.546   7.244  18.496  0.00  0.00    +0.000 A 
ATOM     14 CL   UNL     1       3.297   5.845  17.833  0.00  0.00    +0.000 Cl
ATOM     15  C   UNL     1       2.061   7.215  19.798  0.00  0.00    +0.000 A 
ATOM     16  C   UNL     1       1.453   8.354  20.335  0.00  0.00    +0.000 A 
ENDBRANCH   2  10
BRANCH   1  18
ATOM     17  O   UNL     1       0.258  14.424  19.488  0.00  0.00    +0.000 OA
ATOM     18  S   UNL     1       1.335  13.690  20.128  0.00  0.00    +0.000 S 
ATOM     19  O   UNL     1       1.441  13.645  21.574  0.00  0.00    +0.000 OA
BRANCH  18  20
ATOM     20  C   UNL     1       2.857  14.373  19.490  0.00  0.00    +0.000 A 
ATOM     21  C   UNL     1       3.928  14.584  20.364  0.00  0.00    +0.000 A 
ATOM     22  C   UNL     1       5.102  15.163  19.881  0.00  0.00    +0.000 A 
ATOM     23  C   UNL     1       5.206  15.512  18.533  0.00  0.00    +0.000 A 
ATOM     24  C   UNL     1       4.149  15.260  17.656  0.00  0.00    +0.000 A 
ATOM     25  C   UNL     1       2.970  14.684  18.131  0.00  0.00    +0.000 A 
ENDBRANCH  18  20
ENDBRANCH   1  18
TORSDOF 4
ENDMDL
