MODEL 1
REMARK VINA RESULT:      -8.4      0.000      0.000
REMARK  Name = 
REMARK  9 active torsions:
REMARK  status: ('A' for Active; 'I' for Inactive)
REMARK    1  A    between atoms: C_1  and  C_2
REMARK    2  A    between atoms: C_5  and  N_6
REMARK    3  A    between atoms: C_7  and  C_9
REMARK    4  A    between atoms: C_9  and  C_10
REMARK    5  A    between atoms: C_10  and  C_11
REMARK    6  A    between atoms: C_11  and  C_12
REMARK    7  A    between atoms: C_12  and  C_13
REMARK    8  A    between atoms: N_15  and  C_16
REMARK    9  A    between atoms: C_19  and  C_20
REMARK                            x       y       z     vdW  Elec       q    Type
REMARK                         _______ _______ _______ _____ _____    ______ ____
ROOT
ATOM      1  C   UNL     1       7.975   9.183  17.828  0.00  0.00    +0.000 C 
ENDROOT
BRANCH   1   2
ATOM      2  C   UNL     1       9.024   9.298  18.951  0.00  0.00    +0.000 C 
BRANCH   2   4
ATOM      3  N   UNL     1       9.614  11.410  17.850  0.00  0.00    +0.000 N 
ATOM      4  C   UNL     1       9.435  10.756  19.058  0.00  0.00    +0.000 C 
ATOM      5  O   UNL     1       9.584  11.264  20.168  0.00  0.00    +0.000 OA
ATOM      6  H   UNL     1       9.477  10.883  16.996  0.00  0.00    +0.000 HD
BRANCH   3  11
ATOM      7  C   UNL     1      11.122  16.954  17.355  0.00  0.00    +0.000 C 
ATOM      8  C   UNL     1      10.678  15.526  17.490  0.00  0.00    +0.000 A 
ATOM      9  C   UNL     1      11.599  14.524  17.189  0.00  0.00    +0.000 A 
ATOM     10  C   UNL     1      11.252  13.180  17.301  0.00  0.00    +0.000 A 
ATOM     11  C   UNL     1       9.981  12.778  17.717  0.00  0.00    +0.000 A 
ATOM     12  C   UNL     1       9.046  13.776  18.017  0.00  0.00    +0.000 A 
ATOM     13  C   UNL     1       9.394  15.137  17.903  0.00  0.00    +0.000 A 
ATOM     14 BR   UNL     1       8.066  16.430  18.329  0.00  0.00    +0.000 Br
ENDBRANCH   3  11
ENDBRANCH   2   4
ENDBRANCH   1   2
BRANCH   1  15
ATOM     15  C   UNL     1       7.645   7.755  17.453  0.00  0.00    +0.000 C 
BRANCH  15  16
ATOM     16  C   UNL     1       8.138   6.743  18.504  0.00  0.00    +0.000 C 
BRANCH  16  17
ATOM     17  C   UNL     1       6.980   5.847  18.890  0.00  0.00    +0.000 C 
ATOM     18  O   UNL     1       6.973   5.292  19.988  0.00  0.00    +0.000 OA
ATOM     19  N   UNL     1       5.999   5.703  17.922  0.00  0.00    +0.000 N 
ATOM     20  H   UNL     1       6.214   6.009  16.980  0.00  0.00    +0.000 HD
BRANCH  19  21
ATOM     21  C   UNL     1       4.821   4.935  18.112  0.00  0.00    +0.000 A 
ATOM     22  C   UNL     1       4.461   3.907  17.238  0.00  0.00    +0.000 A 
ATOM     23  C   UNL     1       3.252   3.229  17.371  0.00  0.00    +0.000 A 
ATOM     24  C   UNL     1       2.371   3.542  18.407  0.00  0.00    +0.000 A 
ATOM     25  C   UNL     1       1.060   2.814  18.469  0.00  0.00    +0.000 C 
ATOM     26  C   UNL     1       2.757   4.531  19.327  0.00  0.00    +0.000 A 
ATOM     27 BR   UNL     1       1.632   5.019  20.779  0.00  0.00    +0.000 Br
ATOM     28  C   UNL     1       3.980   5.214  19.192  0.00  0.00    +0.000 A 
ENDBRANCH  19  21
ENDBRANCH  16  17
ENDBRANCH  15  16
ENDBRANCH   1  15
TORSDOF 7
ENDMDL
MODEL 2
REMARK VINA RESULT:      -7.8      1.092     10.842
REMARK  Name = 
REMARK  9 active torsions:
REMARK  status: ('A' for Active; 'I' for Inactive)
REMARK    1  A    between atoms: C_1  and  C_2
REMARK    2  A    between atoms: C_5  and  N_6
REMARK    3  A    between atoms: C_7  and  C_9
REMARK    4  A    between atoms: C_9  and  C_10
REMARK    5  A    between atoms: C_10  and  C_11
REMARK    6  A    between atoms: C_11  and  C_12
REMARK    7  A    between atoms: C_12  and  C_13
REMARK    8  A    between atoms: N_15  and  C_16
REMARK    9  A    between atoms: C_19  and  C_20
REMARK                            x       y       z     vdW  Elec       q    Type
REMARK                         _______ _______ _______ _____ _____    ______ ____
ROOT
ATOM      1  C   UNL     1       7.779   7.828  18.102  0.00  0.00    +0.000 C 
ENDROOT
BRANCH   1   2
ATOM      2  C   UNL     1       7.524   7.182  16.726  0.00  0.00    +0.000 C 
BRANCH   2   4
ATOM      3  N   UNL     1       5.981   5.564  17.738  0.00  0.00    +0.000 N 
ATOM      4  C   UNL     1       6.151   6.533  16.763  0.00  0.00    +0.000 C 
ATOM      5  O   UNL     1       5.292   6.887  15.957  0.00  0.00    +0.000 OA
ATOM      6  H   UNL     1       6.768   5.347  18.338  0.00  0.00    +0.000 HD
BRANCH   3  11
ATOM      7  C   UNL     1       1.070   2.672  18.610  0.00  0.00    +0.000 C 
ATOM      8  C   UNL     1       2.342   3.449  18.430  0.00  0.00    +0.000 A 
ATOM      9  C   UNL     1       3.189   3.084  17.386  0.00  0.00    +0.000 A 
ATOM     10  C   UNL     1       4.380   3.770  17.161  0.00  0.00    +0.000 A 
ATOM     11  C   UNL     1       4.775   4.844  17.962  0.00  0.00    +0.000 A 
ATOM     12  C   UNL     1       3.935   5.215  19.017  0.00  0.00    +0.000 A 
ATOM     13  C   UNL     1       2.729   4.522  19.248  0.00  0.00    +0.000 A 
ATOM     14 BR   UNL     1       1.645   5.090  20.702  0.00  0.00    +0.000 Br
ENDBRANCH   3  11
ENDBRANCH   2   4
ENDBRANCH   1   2
BRANCH   1  15
ATOM     15  C   UNL     1       8.339   9.231  18.016  0.00  0.00    +0.000 C 
BRANCH  15  16
ATOM     16  C   UNL     1       9.181   9.604  19.250  0.00  0.00    +0.000 C 
BRANCH  16  17
ATOM     17  C   UNL     1       9.463  11.091  19.208  0.00  0.00    +0.000 C 
ATOM     18  O   UNL     1       9.640  11.712  20.256  0.00  0.00    +0.000 OA
ATOM     19  N   UNL     1       9.471  11.654  17.942  0.00  0.00    +0.000 N 
ATOM     20  H   UNL     1       9.086  11.109  17.179  0.00  0.00    +0.000 HD
BRANCH  19  21
ATOM     21  C   UNL     1       9.750  13.023  17.698  0.00  0.00    +0.000 A 
ATOM     22  C   UNL     1      10.951  13.440  17.118  0.00  0.00    +0.000 A 
ATOM     23  C   UNL     1      11.261  14.790  16.979  0.00  0.00    +0.000 A 
ATOM     24  C   UNL     1      10.363  15.774  17.395  0.00  0.00    +0.000 A 
ATOM     25  C   UNL     1      10.774  17.212  17.268  0.00  0.00    +0.000 C 
ATOM     26  C   UNL     1       9.127  15.360  17.920  0.00  0.00    +0.000 A 
ATOM     27 BR   UNL     1       7.831  16.623  18.501  0.00  0.00    +0.000 Br
ATOM     28  C   UNL     1       8.814  13.995  18.058  0.00  0.00    +0.000 A 
ENDBRANCH  19  21
ENDBRANCH  16  17
ENDBRANCH  15  16
ENDBRANCH   1  15
TORSDOF 7
ENDMDL
MODEL 3
REMARK VINA RESULT:      -7.7      1.509     10.923
REMARK  Name = 
REMARK  9 active torsions:
REMARK  status: ('A' for Active; 'I' for Inactive)
REMARK    1  A    between atoms: C_1  and  C_2
REMARK    2  A    between atoms: C_5  and  N_6
REMARK    3  A    between atoms: C_7  and  C_9
REMARK    4  A    between atoms: C_9  and  C_10
REMARK    5  A    between atoms: C_10  and  C_11
REMARK    6  A    between atoms: C_11  and  C_12
REMARK    7  A    between atoms: C_12  and  C_13
REMARK    8  A    between atoms: N_15  and  C_16
REMARK    9  A    between atoms: C_19  and  C_20
REMARK                            x       y       z     vdW  Elec       q    Type
REMARK                         _______ _______ _______ _____ _____    ______ ____
ROOT
ATOM      1  C   UNL     1       7.695   8.024  17.494  0.00  0.00    +0.000 C 
ENDROOT
BRANCH   1   2
ATOM      2  C   UNL     1       8.189   7.048  18.579  0.00  0.00    +0.000 C 
BRANCH   2   4
ATOM      3  N   UNL     1       5.901   6.168  18.451  0.00  0.00    +0.000 N 
ATOM      4  C   UNL     1       7.243   5.860  18.602  0.00  0.00    +0.000 C 
ATOM      5  O   UNL     1       7.698   4.726  18.749  0.00  0.00    +0.000 OA
ATOM      6  H   UNL     1       5.644   7.143  18.351  0.00  0.00    +0.000 HD
BRANCH   3  11
ATOM      7  C   UNL     1       1.606   2.324  18.318  0.00  0.00    +0.000 C 
ATOM      8  C   UNL     1       2.718   3.329  18.406  0.00  0.00    +0.000 A 
ATOM      9  C   UNL     1       3.521   3.515  17.283  0.00  0.00    +0.000 A 
ATOM     10  C   UNL     1       4.564   4.438  17.296  0.00  0.00    +0.000 A 
ATOM     11  C   UNL     1       4.849   5.212  18.424  0.00  0.00    +0.000 A 
ATOM     12  C   UNL     1       4.052   5.030  19.559  0.00  0.00    +0.000 A 
ATOM     13  C   UNL     1       2.997   4.095  19.549  0.00  0.00    +0.000 A 
ATOM     14 BR   UNL     1       1.961   3.908  21.132  0.00  0.00    +0.000 Br
ENDBRANCH   3  11
ENDBRANCH   2   4
ENDBRANCH   1   2
BRANCH   1  15
ATOM     15  C   UNL     1       7.974   9.476  17.816  0.00  0.00    +0.000 C 
BRANCH  15  16
ATOM     16  C   UNL     1       9.105   9.643  18.848  0.00  0.00    +0.000 C 
BRANCH  16  17
ATOM     17  C   UNL     1       9.662  11.046  18.729  0.00  0.00    +0.000 C 
ATOM     18  O   UNL     1      10.434  11.323  17.811  0.00  0.00    +0.000 OA
ATOM     19  N   UNL     1       9.259  11.926  19.720  0.00  0.00    +0.000 N 
ATOM     20  H   UNL     1       8.820  11.540  20.547  0.00  0.00    +0.000 HD
BRANCH  19  21
ATOM     21  C   UNL     1       9.647  13.291  19.757  0.00  0.00    +0.000 A 
ATOM     22  C   UNL     1      10.813  13.709  20.402  0.00  0.00    +0.000 A 
ATOM     23  C   UNL     1      11.131  15.059  20.525  0.00  0.00    +0.000 A 
ATOM     24  C   UNL     1      10.301  16.039  19.978  0.00  0.00    +0.000 A 
ATOM     25  C   UNL     1      10.668  17.479  20.187  0.00  0.00    +0.000 C 
ATOM     26  C   UNL     1       9.161  15.620  19.272  0.00  0.00    +0.000 A 
ATOM     27 BR   UNL     1       7.975  16.877  18.480  0.00  0.00    +0.000 Br
ATOM     28  C   UNL     1       8.842  14.255  19.148  0.00  0.00    +0.000 A 
ENDBRANCH  19  21
ENDBRANCH  16  17
ENDBRANCH  15  16
ENDBRANCH   1  15
TORSDOF 7
ENDMDL
MODEL 4
REMARK VINA RESULT:      -7.7      1.368      1.479
REMARK  Name = 
REMARK  9 active torsions:
REMARK  status: ('A' for Active; 'I' for Inactive)
REMARK    1  A    between atoms: C_1  and  C_2
REMARK    2  A    between atoms: C_5  and  N_6
REMARK    3  A    between atoms: C_7  and  C_9
REMARK    4  A    between atoms: C_9  and  C_10
REMARK    5  A    between atoms: C_10  and  C_11
REMARK    6  A    between atoms: C_11  and  C_12
REMARK    7  A    between atoms: C_12  and  C_13
REMARK    8  A    between atoms: N_15  and  C_16
REMARK    9  A    between atoms: C_19  and  C_20
REMARK                            x       y       z     vdW  Elec       q    Type
REMARK                         _______ _______ _______ _____ _____    ______ ____
ROOT
ATOM      1  C   UNL     1       8.586   7.869  18.893  0.00  0.00    +0.000 C 
ENDROOT
BRANCH   1   2
ATOM      2  C   UNL     1       8.166   9.112  18.084  0.00  0.00    +0.000 C 
BRANCH   2   4
ATOM      3  N   UNL     1       9.108  11.346  17.702  0.00  0.00    +0.000 N 
ATOM      4  C   UNL     1       8.972  10.294  18.593  0.00  0.00    +0.000 C 
ATOM      5  O   UNL     1       9.447  10.260  19.727  0.00  0.00    +0.000 OA
ATOM      6  H   UNL     1       8.683  11.254  16.787  0.00  0.00    +0.000 HD
BRANCH   3  11
ATOM      7  C   UNL     1      11.957  16.225  18.853  0.00  0.00    +0.000 C 
ATOM      8  C   UNL     1      11.171  14.976  18.575  0.00  0.00    +0.000 A 
ATOM      9  C   UNL     1      11.753  14.004  17.764  0.00  0.00    +0.000 A 
ATOM     10  C   UNL     1      11.080  12.820  17.474  0.00  0.00    +0.000 A 
ATOM     11  C   UNL     1       9.804  12.555  17.977  0.00  0.00    +0.000 A 
ATOM     12  C   UNL     1       9.207  13.527  18.788  0.00  0.00    +0.000 A 
ATOM     13  C   UNL     1       9.886  14.727  19.082  0.00  0.00    +0.000 A 
ATOM     14 BR   UNL     1       9.005  15.995  20.191  0.00  0.00    +0.000 Br
ENDBRANCH   3  11
ENDBRANCH   2   4
ENDBRANCH   1   2
BRANCH   1  15
ATOM     15  C   UNL     1       7.820   6.619  18.521  0.00  0.00    +0.000 C 
BRANCH  15  16
ATOM     16  C   UNL     1       7.107   6.749  17.162  0.00  0.00    +0.000 C 
BRANCH  16  17
ATOM     17  C   UNL     1       5.724   6.144  17.285  0.00  0.00    +0.000 C 
ATOM     18  O   UNL     1       4.758   6.715  16.780  0.00  0.00    +0.000 OA
ATOM     19  N   UNL     1       5.659   4.965  18.009  0.00  0.00    +0.000 N 
ATOM     20  H   UNL     1       6.461   4.710  18.573  0.00  0.00    +0.000 HD
BRANCH  19  21
ATOM     21  C   UNL     1       4.459   4.233  18.203  0.00  0.00    +0.000 A 
ATOM     22  C   UNL     1       3.744   3.691  17.133  0.00  0.00    +0.000 A 
ATOM     23  C   UNL     1       2.514   3.066  17.322  0.00  0.00    +0.000 A 
ATOM     24  C   UNL     1       1.969   2.939  18.600  0.00  0.00    +0.000 A 
ATOM     25  C   UNL     1       0.616   2.303  18.737  0.00  0.00    +0.000 C 
ATOM     26  C   UNL     1       2.714   3.426  19.687  0.00  0.00    +0.000 A 
ATOM     27 BR   UNL     1       2.064   3.288  21.468  0.00  0.00    +0.000 Br
ATOM     28  C   UNL     1       3.958   4.055  19.494  0.00  0.00    +0.000 A 
ENDBRANCH  19  21
ENDBRANCH  16  17
ENDBRANCH  15  16
ENDBRANCH   1  15
TORSDOF 7
ENDMDL
MODEL 5
REMARK VINA RESULT:      -7.7      1.005     10.900
REMARK  Name = 
REMARK  9 active torsions:
REMARK  status: ('A' for Active; 'I' for Inactive)
REMARK    1  A    between atoms: C_1  and  C_2
REMARK    2  A    between atoms: C_5  and  N_6
REMARK    3  A    between atoms: C_7  and  C_9
REMARK    4  A    between atoms: C_9  and  C_10
REMARK    5  A    between atoms: C_10  and  C_11
REMARK    6  A    between atoms: C_11  and  C_12
REMARK    7  A    between atoms: C_12  and  C_13
REMARK    8  A    between atoms: N_15  and  C_16
REMARK    9  A    between atoms: C_19  and  C_20
REMARK                            x       y       z     vdW  Elec       q    Type
REMARK                         _______ _______ _______ _____ _____    ______ ____
ROOT
ATOM      1  C   UNL     1       8.545   8.470  18.442  0.00  0.00    +0.000 C 
ENDROOT
BRANCH   1   2
ATOM      2  C   UNL     1       7.683   7.986  17.260  0.00  0.00    +0.000 C 
BRANCH   2   4
ATOM      3  N   UNL     1       5.559   6.757  17.254  0.00  0.00    +0.000 N 
ATOM      4  C   UNL     1       6.855   6.806  17.739  0.00  0.00    +0.000 C 
ATOM      5  O   UNL     1       7.357   5.986  18.506  0.00  0.00    +0.000 OA
ATOM      6  H   UNL     1       5.251   7.499  16.637  0.00  0.00    +0.000 HD
BRANCH   3  11
ATOM      7  C   UNL     1       1.719   2.625  18.453  0.00  0.00    +0.000 C 
ATOM      8  C   UNL     1       2.710   3.722  18.189  0.00  0.00    +0.000 A 
ATOM      9  C   UNL     1       3.529   3.608  17.068  0.00  0.00    +0.000 A 
ATOM     10  C   UNL     1       4.462   4.595  16.762  0.00  0.00    +0.000 A 
ATOM     11  C   UNL     1       4.619   5.733  17.558  0.00  0.00    +0.000 A 
ATOM     12  C   UNL     1       3.806   5.855  18.690  0.00  0.00    +0.000 A 
ATOM     13  C   UNL     1       2.861   4.857  19.001  0.00  0.00    +0.000 A 
ATOM     14 BR   UNL     1       1.796   5.100  20.557  0.00  0.00    +0.000 Br
ENDBRANCH   3  11
ENDBRANCH   2   4
ENDBRANCH   1   2
BRANCH   1  15
ATOM     15  C   UNL     1       8.693   9.975  18.505  0.00  0.00    +0.000 C 
BRANCH  15  16
ATOM     16  C   UNL     1       9.667  10.424  19.610  0.00  0.00    +0.000 C 
BRANCH  16  17
ATOM     17  C   UNL     1       9.846  11.925  19.512  0.00  0.00    +0.000 C 
ATOM     18  O   UNL     1      10.193  12.567  20.503  0.00  0.00    +0.000 OA
ATOM     19  N   UNL     1       9.566  12.472  18.271  0.00  0.00    +0.000 N 
ATOM     20  H   UNL     1       9.068  11.897  17.601  0.00  0.00    +0.000 HD
BRANCH  19  21
ATOM     21  C   UNL     1       9.709  13.852  17.975  0.00  0.00    +0.000 A 
ATOM     22  C   UNL     1      10.869  14.365  17.391  0.00  0.00    +0.000 A 
ATOM     23  C   UNL     1      11.043  15.734  17.201  0.00  0.00    +0.000 A 
ATOM     24  C   UNL     1      10.045  16.637  17.570  0.00  0.00    +0.000 A 
ATOM     25  C   UNL     1      10.310  18.103  17.391  0.00  0.00    +0.000 C 
ATOM     26  C   UNL     1       8.850  16.120  18.099  0.00  0.00    +0.000 A 
ATOM     27 BR   UNL     1       7.426  17.267  18.618  0.00  0.00    +0.000 Br
ATOM     28  C   UNL     1       8.675  14.737  18.288  0.00  0.00    +0.000 A 
ENDBRANCH  19  21
ENDBRANCH  16  17
ENDBRANCH  15  16
ENDBRANCH   1  15
TORSDOF 7
ENDMDL
MODEL 6
REMARK VINA RESULT:      -7.5      1.605      1.739
REMARK  Name = 
REMARK  9 active torsions:
REMARK  status: ('A' for Active; 'I' for Inactive)
REMARK    1  A    between atoms: C_1  and  C_2
REMARK    2  A    between atoms: C_5  and  N_6
REMARK    3  A    between atoms: C_7  and  C_9
REMARK    4  A    between atoms: C_9  and  C_10
REMARK    5  A    between atoms: C_10  and  C_11
REMARK    6  A    between atoms: C_11  and  C_12
REMARK    7  A    between atoms: C_12  and  C_13
REMARK    8  A    between atoms: N_15  and  C_16
REMARK    9  A    between atoms: C_19  and  C_20
REMARK                            x       y       z     vdW  Elec       q    Type
REMARK                         _______ _______ _______ _____ _____    ______ ____
ROOT
ATOM      1  C   UNL     1       7.929   9.202  17.818  0.00  0.00    +0.000 C 
ENDROOT
BRANCH   1   2
ATOM      2  C   UNL     1       8.983   9.396  18.925  0.00  0.00    +0.000 C 
BRANCH   2   4
ATOM      3  N   UNL     1       9.322  11.621  19.905  0.00  0.00    +0.000 N 
ATOM      4  C   UNL     1       9.532  10.807  18.804  0.00  0.00    +0.000 C 
ATOM      5  O   UNL     1      10.113  11.144  17.773  0.00  0.00    +0.000 OA
ATOM      6  H   UNL     1       8.817  11.236  20.694  0.00  0.00    +0.000 HD
BRANCH   3  11
ATOM      7  C   UNL     1      11.078  17.095  20.353  0.00  0.00    +0.000 C 
ATOM      8  C   UNL     1      10.628  15.672  20.183  0.00  0.00    +0.000 A 
ATOM      9  C   UNL     1      10.479  14.893  21.328  0.00  0.00    +0.000 A 
ATOM     10  C   UNL     1      10.057  13.569  21.240  0.00  0.00    +0.000 A 
ATOM     11  C   UNL     1       9.767  12.968  20.012  0.00  0.00    +0.000 A 
ATOM     12  C   UNL     1       9.919  13.740  18.855  0.00  0.00    +0.000 A 
ATOM     13  C   UNL     1      10.347  15.080  18.942  0.00  0.00    +0.000 A 
ATOM     14 BR   UNL     1      10.529  16.059  17.323  0.00  0.00    +0.000 Br
ENDBRANCH   3  11
ENDBRANCH   2   4
ENDBRANCH   1   2
BRANCH   1  15
ATOM     15  C   UNL     1       7.672   7.751  17.476  0.00  0.00    +0.000 C 
BRANCH  15  16
ATOM     16  C   UNL     1       8.169   6.792  18.574  0.00  0.00    +0.000 C 
BRANCH  16  17
ATOM     17  C   UNL     1       7.037   5.854  18.941  0.00  0.00    +0.000 C 
ATOM     18  O   UNL     1       7.072   5.238  20.006  0.00  0.00    +0.000 OA
ATOM     19  N   UNL     1       6.031   5.746  17.995  0.00  0.00    +0.000 N 
ATOM     20  H   UNL     1       6.214   6.108  17.066  0.00  0.00    +0.000 HD
BRANCH  19  21
ATOM     21  C   UNL     1       4.873   4.946  18.174  0.00  0.00    +0.000 A 
ATOM     22  C   UNL     1       4.603   3.845  17.358  0.00  0.00    +0.000 A 
ATOM     23  C   UNL     1       3.414   3.130  17.473  0.00  0.00    +0.000 A 
ATOM     24  C   UNL     1       2.462   3.480  18.432  0.00  0.00    +0.000 A 
ATOM     25  C   UNL     1       1.177   2.706  18.474  0.00  0.00    +0.000 C 
ATOM     26  C   UNL     1       2.758   4.546  19.298  0.00  0.00    +0.000 A 
ATOM     27 BR   UNL     1       1.533   5.089  20.646  0.00  0.00    +0.000 Br
ATOM     28  C   UNL     1       3.961   5.267  19.182  0.00  0.00    +0.000 A 
ENDBRANCH  19  21
ENDBRANCH  16  17
ENDBRANCH  15  16
ENDBRANCH   1  15
TORSDOF 7
ENDMDL
MODEL 7
REMARK VINA RESULT:      -7.5      2.363     10.813
REMARK  Name = 
REMARK  9 active torsions:
REMARK  status: ('A' for Active; 'I' for Inactive)
REMARK    1  A    between atoms: C_1  and  C_2
REMARK    2  A    between atoms: C_5  and  N_6
REMARK    3  A    between atoms: C_7  and  C_9
REMARK    4  A    between atoms: C_9  and  C_10
REMARK    5  A    between atoms: C_10  and  C_11
REMARK    6  A    between atoms: C_11  and  C_12
REMARK    7  A    between atoms: C_12  and  C_13
REMARK    8  A    between atoms: N_15  and  C_16
REMARK    9  A    between atoms: C_19  and  C_20
REMARK                            x       y       z     vdW  Elec       q    Type
REMARK                         _______ _______ _______ _____ _____    ______ ____
ROOT
ATOM      1  C   UNL     1       7.361   7.555  17.248  0.00  0.00    +0.000 C 
ENDROOT
BRANCH   1   2
ATOM      2  C   UNL     1       7.959   6.442  18.129  0.00  0.00    +0.000 C 
BRANCH   2   4
ATOM      3  N   UNL     1       5.592   5.804  18.258  0.00  0.00    +0.000 N 
ATOM      4  C   UNL     1       6.820   5.794  18.899  0.00  0.00    +0.000 C 
ATOM      5  O   UNL     1       7.037   5.314  20.010  0.00  0.00    +0.000 OA
ATOM      6  H   UNL     1       5.533   6.243  17.347  0.00  0.00    +0.000 HD
BRANCH   3  11
ATOM      7  C   UNL     1       0.778   3.505  20.446  0.00  0.00    +0.000 C 
ATOM      8  C   UNL     1       2.036   4.061  19.844  0.00  0.00    +0.000 A 
ATOM      9  C   UNL     1       2.365   5.385  20.123  0.00  0.00    +0.000 A 
ATOM     10  C   UNL     1       3.523   5.958  19.603  0.00  0.00    +0.000 A 
ATOM     11  C   UNL     1       4.399   5.238  18.787  0.00  0.00    +0.000 A 
ATOM     12  C   UNL     1       4.076   3.908  18.495  0.00  0.00    +0.000 A 
ATOM     13  C   UNL     1       2.904   3.327  19.020  0.00  0.00    +0.000 A 
ATOM     14 BR   UNL     1       2.538   1.515  18.576  0.00  0.00    +0.000 Br
ENDBRANCH   3  11
ENDBRANCH   2   4
ENDBRANCH   1   2
BRANCH   1  15
ATOM     15  C   UNL     1       7.668   8.950  17.746  0.00  0.00    +0.000 C 
BRANCH  15  16
ATOM     16  C   UNL     1       8.845   8.974  18.739  0.00  0.00    +0.000 C 
BRANCH  16  17
ATOM     17  C   UNL     1       9.226  10.417  18.999  0.00  0.00    +0.000 C 
ATOM     18  O   UNL     1       9.369  11.193  18.055  0.00  0.00    +0.000 OA
ATOM     19  N   UNL     1       9.414  10.745  20.331  0.00  0.00    +0.000 N 
ATOM     20  H   UNL     1       9.501   9.988  20.999  0.00  0.00    +0.000 HD
BRANCH  19  21
ATOM     21  C   UNL     1       9.739  12.054  20.774  0.00  0.00    +0.000 A 
ATOM     22  C   UNL     1       9.068  12.660  21.839  0.00  0.00    +0.000 A 
ATOM     23  C   UNL     1       9.321  13.982  22.199  0.00  0.00    +0.000 A 
ATOM     24  C   UNL     1      10.277  14.735  21.517  0.00  0.00    +0.000 A 
ATOM     25  C   UNL     1      10.468  16.170  21.914  0.00  0.00    +0.000 C 
ATOM     26  C   UNL     1      11.000  14.109  20.487  0.00  0.00    +0.000 A 
ATOM     27 BR   UNL     1      12.333  15.047  19.508  0.00  0.00    +0.000 Br
ATOM     28  C   UNL     1      10.745  12.773  20.126  0.00  0.00    +0.000 A 
ENDBRANCH  19  21
ENDBRANCH  16  17
ENDBRANCH  15  16
ENDBRANCH   1  15
TORSDOF 7
ENDMDL
MODEL 8
REMARK VINA RESULT:      -7.5      2.325     10.711
REMARK  Name = 
REMARK  9 active torsions:
REMARK  status: ('A' for Active; 'I' for Inactive)
REMARK    1  A    between atoms: C_1  and  C_2
REMARK    2  A    between atoms: C_5  and  N_6
REMARK    3  A    between atoms: C_7  and  C_9
REMARK    4  A    between atoms: C_9  and  C_10
REMARK    5  A    between atoms: C_10  and  C_11
REMARK    6  A    between atoms: C_11  and  C_12
REMARK    7  A    between atoms: C_12  and  C_13
REMARK    8  A    between atoms: N_15  and  C_16
REMARK    9  A    between atoms: C_19  and  C_20
REMARK                            x       y       z     vdW  Elec       q    Type
REMARK                         _______ _______ _______ _____ _____    ______ ____
ROOT
ATOM      1  C   UNL     1       8.007   5.521  18.428  0.00  0.00    +0.000 C 
ENDROOT
BRANCH   1   2
ATOM      2  C   UNL     1       7.559   5.320  16.967  0.00  0.00    +0.000 C 
BRANCH   2   4
ATOM      3  N   UNL     1       5.718   4.167  18.108  0.00  0.00    +0.000 N 
ATOM      4  C   UNL     1       6.108   4.872  16.981  0.00  0.00    +0.000 C 
ATOM      5  O   UNL     1       5.380   5.146  16.028  0.00  0.00    +0.000 OA
ATOM      6  H   UNL     1       6.412   3.989  18.824  0.00  0.00    +0.000 HD
BRANCH   3  11
ATOM      7  C   UNL     1       0.380   2.173  18.995  0.00  0.00    +0.000 C 
ATOM      8  C   UNL     1       1.763   2.727  18.804  0.00  0.00    +0.000 A 
ATOM      9  C   UNL     1       2.627   2.047  17.949  0.00  0.00    +0.000 A 
ATOM     10  C   UNL     1       3.920   2.512  17.724  0.00  0.00    +0.000 A 
ATOM     11  C   UNL     1       4.405   3.670  18.337  0.00  0.00    +0.000 A 
ATOM     12  C   UNL     1       3.547   4.358  19.203  0.00  0.00    +0.000 A 
ATOM     13  C   UNL     1       2.238   3.888  19.434  0.00  0.00    +0.000 A 
ATOM     14 BR   UNL     1       1.137   4.881  20.624  0.00  0.00    +0.000 Br
ENDBRANCH   3  11
ENDBRANCH   2   4
ENDBRANCH   1   2
BRANCH   1  15
ATOM     15  C   UNL     1       8.122   6.974  18.830  0.00  0.00    +0.000 C 
BRANCH  15  16
ATOM     16  C   UNL     1       7.664   7.932  17.713  0.00  0.00    +0.000 C 
BRANCH  16  17
ATOM     17  C   UNL     1       8.202   9.315  18.015  0.00  0.00    +0.000 C 
ATOM     18  O   UNL     1       7.934  10.254  17.266  0.00  0.00    +0.000 OA
ATOM     19  N   UNL     1       9.005   9.402  19.141  0.00  0.00    +0.000 N 
ATOM     20  H   UNL     1       9.349   8.539  19.545  0.00  0.00    +0.000 HD
BRANCH  19  21
ATOM     21  C   UNL     1       9.571  10.618  19.604  0.00  0.00    +0.000 A 
ATOM     22  C   UNL     1       9.208  11.181  20.830  0.00  0.00    +0.000 A 
ATOM     23  C   UNL     1       9.688  12.426  21.229  0.00  0.00    +0.000 A 
ATOM     24  C   UNL     1      10.573  13.140  20.420  0.00  0.00    +0.000 A 
ATOM     25  C   UNL     1      11.015  14.499  20.877  0.00  0.00    +0.000 C 
ATOM     26  C   UNL     1      10.991  12.549  19.215  0.00  0.00    +0.000 A 
ATOM     27 BR   UNL     1      12.204  13.436  18.052  0.00  0.00    +0.000 Br
ATOM     28  C   UNL     1      10.506  11.290  18.815  0.00  0.00    +0.000 A 
ENDBRANCH  19  21
ENDBRANCH  16  17
ENDBRANCH  15  16
ENDBRANCH   1  15
TORSDOF 7
ENDMDL
MODEL 9
REMARK VINA RESULT:      -7.4      1.947      2.510
REMARK  Name = 
REMARK  9 active torsions:
REMARK  status: ('A' for Active; 'I' for Inactive)
REMARK    1  A    between atoms: C_1  and  C_2
REMARK    2  A    between atoms: C_5  and  N_6
REMARK    3  A    between atoms: C_7  and  C_9
REMARK    4  A    between atoms: C_9  and  C_10
REMARK    5  A    between atoms: C_10  and  C_11
REMARK    6  A    between atoms: C_11  and  C_12
REMARK    7  A    between atoms: C_12  and  C_13
REMARK    8  A    between atoms: N_15  and  C_16
REMARK    9  A    between atoms: C_19  and  C_20
REMARK                            x       y       z     vdW  Elec       q    Type
REMARK                         _______ _______ _______ _____ _____    ______ ____
ROOT
ATOM      1  C   UNL     1       7.294   7.305  16.981  0.00  0.00    +0.000 C 
ENDROOT
BRANCH   1   2
ATOM      2  C   UNL     1       8.113   7.567  18.260  0.00  0.00    +0.000 C 
BRANCH   2   4
ATOM      3  N   UNL     1       9.369   9.431  19.245  0.00  0.00    +0.000 N 
ATOM      4  C   UNL     1       8.393   9.058  18.336  0.00  0.00    +0.000 C 
ATOM      5  O   UNL     1       7.762   9.830  17.616  0.00  0.00    +0.000 OA
ATOM      6  H   UNL     1       9.812   8.705  19.796  0.00  0.00    +0.000 HD
BRANCH   3  11
ATOM      7  C   UNL     1      11.073  14.868  20.134  0.00  0.00    +0.000 C 
ATOM      8  C   UNL     1      10.655  13.453  19.856  0.00  0.00    +0.000 A 
ATOM      9  C   UNL     1      10.086  12.722  20.896  0.00  0.00    +0.000 A 
ATOM     10  C   UNL     1       9.669  11.408  20.701  0.00  0.00    +0.000 A 
ATOM     11  C   UNL     1       9.801  10.769  19.466  0.00  0.00    +0.000 A 
ATOM     12  C   UNL     1      10.377  11.491  18.415  0.00  0.00    +0.000 A 
ATOM     13  C   UNL     1      10.800  12.821  18.610  0.00  0.00    +0.000 A 
ATOM     14 BR   UNL     1      11.572  13.732  17.131  0.00  0.00    +0.000 Br
ENDBRANCH   3  11
ENDBRANCH   2   4
ENDBRANCH   1   2
BRANCH   1  15
ATOM     15  C   UNL     1       7.313   5.858  16.539  0.00  0.00    +0.000 C 
BRANCH  15  16
ATOM     16  C   UNL     1       7.734   4.902  17.670  0.00  0.00    +0.000 C 
BRANCH  16  17
ATOM     17  C   UNL     1       6.513   4.577  18.504  0.00  0.00    +0.000 C 
ATOM     18  O   UNL     1       6.506   4.831  19.708  0.00  0.00    +0.000 OA
ATOM     19  N   UNL     1       5.474   3.971  17.816  0.00  0.00    +0.000 N 
ATOM     20  H   UNL     1       5.670   3.598  16.895  0.00  0.00    +0.000 HD
BRANCH  19  21
ATOM     21  C   UNL     1       4.236   3.624  18.418  0.00  0.00    +0.000 A 
ATOM     22  C   UNL     1       3.661   2.363  18.247  0.00  0.00    +0.000 A 
ATOM     23  C   UNL     1       2.398   2.066  18.752  0.00  0.00    +0.000 A 
ATOM     24  C   UNL     1       1.677   3.019  19.473  0.00  0.00    +0.000 A 
ATOM     25  C   UNL     1       0.299   2.660  19.948  0.00  0.00    +0.000 C 
ATOM     26  C   UNL     1       2.279   4.268  19.702  0.00  0.00    +0.000 A 
ATOM     27 BR   UNL     1       1.384   5.628  20.683  0.00  0.00    +0.000 Br
ATOM     28  C   UNL     1       3.556   4.566  19.192  0.00  0.00    +0.000 A 
ENDBRANCH  19  21
ENDBRANCH  16  17
ENDBRANCH  15  16
ENDBRANCH   1  15
TORSDOF 7
ENDMDL
