MODEL 1
REMARK VINA RESULT:      -8.3      0.000      0.000
REMARK  Name = 
REMARK  5 active torsions:
REMARK  status: ('A' for Active; 'I' for Inactive)
REMARK    1  A    between atoms: C_1  and  C_2
REMARK    2  A    between atoms: N_5  and  S_6
REMARK    3  A    between atoms: S_6  and  C_9
REMARK    4  A    between atoms: C_12  and  S_13
REMARK    5  A    between atoms: S_13  and  N_16
REMARK                            x       y       z     vdW  Elec       q    Type
REMARK                         _______ _______ _______ _____ _____    ______ ____
ROOT
ATOM      1  C   UNL     1       2.916   6.733  18.541  0.00  0.00    +0.000 A 
ATOM      2  C   UNL     1       2.498   6.850  19.875  0.00  0.00    +0.000 A 
ATOM      3  C   UNL     1       1.767   7.985  20.286  0.00  0.00    +0.000 A 
ATOM      4  C   UNL     1       1.470   8.998  19.362  0.00  0.00    +0.000 A 
ATOM      5  C   UNL     1       1.917   8.892  18.043  0.00  0.00    +0.000 A 
ATOM      6  C   UNL     1       2.653   7.775  17.635  0.00  0.00    +0.000 A 
ENDROOT
BRANCH   1   7
ATOM      7  S   UNL     1       3.942   5.355  18.007  0.00  0.00    +0.000 S 
ATOM      8  O   UNL     1       4.733   4.950  19.144  0.00  0.00    +0.000 OA
ATOM      9  O   UNL     1       4.582   5.765  16.771  0.00  0.00    +0.000 OA
BRANCH   7  14
ATOM     10  C   UNL     1       1.645   2.481  21.480  0.00  0.00    +0.000 C 
ATOM     11  C   UNL     1       1.686   2.632  19.958  0.00  0.00    +0.000 C 
ATOM     12  C   UNL     1       3.100   2.347  19.435  0.00  0.00    +0.000 C 
ATOM     13  C   UNL     1       3.250   2.681  17.954  0.00  0.00    +0.000 C 
ATOM     14  N   UNL     1       2.854   4.079  17.650  0.00  0.00    +0.000 NA
ATOM     15  C   UNL     1       1.433   4.314  18.054  0.00  0.00    +0.000 C 
ATOM     16  C   UNL     1       1.200   4.024  19.538  0.00  0.00    +0.000 C 
ENDBRANCH   7  14
ENDBRANCH   1   7
BRANCH   4  17
ATOM     17  S   UNL     1       0.311  10.311  19.760  0.00  0.00    +0.000 S 
ATOM     18  O   UNL     1       0.490  11.303  18.719  0.00  0.00    +0.000 OA
ATOM     19  O   UNL     1      -0.980   9.697  19.984  0.00  0.00    +0.000 OA
BRANCH  17  20
ATOM     20  N   UNL     1       0.861  11.000  21.238  0.00  0.00    +0.000 NA
ATOM     21  C   UNL     1       0.497  10.247  22.495  0.00  0.00    +0.000 C 
ATOM     22  C   UNL     1      -0.979  10.485  22.945  0.00  0.00    +0.000 C 
ATOM     23  N   UNL     1      -1.367  11.900  22.954  0.00  0.00    +0.000 NA
ATOM     24  C   UNL     1      -2.801  12.158  23.106  0.00  0.00    +0.000 C 
ATOM     25  C   UNL     1      -2.958  13.591  22.574  0.00  0.00    +0.000 C 
ATOM     26  C   UNL     1      -1.581  13.955  22.002  0.00  0.00    +0.000 C 
ATOM     27  C   UNL     1      -1.005  12.582  21.701  0.00  0.00    +0.000 C 
ATOM     28  C   UNL     1       0.498  12.463  21.424  0.00  0.00    +0.000 C 
ENDBRANCH  17  20
ENDBRANCH   4  17
TORSDOF 4
ENDMDL
MODEL 2
REMARK VINA RESULT:      -8.3      2.377      2.791
REMARK  Name = 
REMARK  5 active torsions:
REMARK  status: ('A' for Active; 'I' for Inactive)
REMARK    1  A    between atoms: C_1  and  C_2
REMARK    2  A    between atoms: N_5  and  S_6
REMARK    3  A    between atoms: S_6  and  C_9
REMARK    4  A    between atoms: C_12  and  S_13
REMARK    5  A    between atoms: S_13  and  N_16
REMARK                            x       y       z     vdW  Elec       q    Type
REMARK                         _______ _______ _______ _____ _____    ______ ____
ROOT
ATOM      1  C   UNL     1       3.000   6.558  18.626  0.00  0.00    +0.000 A 
ATOM      2  C   UNL     1       2.561   6.623  19.957  0.00  0.00    +0.000 A 
ATOM      3  C   UNL     1       1.829   7.745  20.400  0.00  0.00    +0.000 A 
ATOM      4  C   UNL     1       1.554   8.797  19.513  0.00  0.00    +0.000 A 
ATOM      5  C   UNL     1       2.022   8.741  18.198  0.00  0.00    +0.000 A 
ATOM      6  C   UNL     1       2.759   7.637  17.758  0.00  0.00    +0.000 A 
ENDROOT
BRANCH   1   7
ATOM      7  S   UNL     1       4.028   5.196  18.054  0.00  0.00    +0.000 S 
ATOM      8  O   UNL     1       4.845   4.783  19.170  0.00  0.00    +0.000 OA
ATOM      9  O   UNL     1       4.639   5.627  16.811  0.00  0.00    +0.000 OA
BRANCH   7  14
ATOM     10  C   UNL     1       1.492   2.539  21.535  0.00  0.00    +0.000 C 
ATOM     11  C   UNL     1       1.624   2.607  20.013  0.00  0.00    +0.000 C 
ATOM     12  C   UNL     1       3.061   2.279  19.589  0.00  0.00    +0.000 C 
ATOM     13  C   UNL     1       3.301   2.531  18.104  0.00  0.00    +0.000 C 
ATOM     14  N   UNL     1       2.945   3.914  17.703  0.00  0.00    +0.000 NA
ATOM     15  C   UNL     1       1.506   4.186  18.010  0.00  0.00    +0.000 C 
ATOM     16  C   UNL     1       1.183   3.980  19.491  0.00  0.00    +0.000 C 
ENDBRANCH   7  14
ENDBRANCH   1   7
BRANCH   4  17
ATOM     17  S   UNL     1       0.395  10.100  19.943  0.00  0.00    +0.000 S 
ATOM     18  O   UNL     1      -0.822   9.414  20.328  0.00  0.00    +0.000 OA
ATOM     19  O   UNL     1       1.067  10.991  20.866  0.00  0.00    +0.000 OA
BRANCH  17  20
ATOM     20  N   UNL     1       0.076  10.953  18.482  0.00  0.00    +0.000 NA
ATOM     21  C   UNL     1      -0.263  12.417  18.631  0.00  0.00    +0.000 C 
ATOM     22  C   UNL     1      -1.737  12.661  19.085  0.00  0.00    +0.000 C 
ATOM     23  N   UNL     1      -2.721  11.888  18.319  0.00  0.00    +0.000 NA
ATOM     24  C   UNL     1      -4.077  11.873  18.872  0.00  0.00    +0.000 C 
ATOM     25  C   UNL     1      -4.711  10.639  18.212  0.00  0.00    +0.000 C 
ATOM     26  C   UNL     1      -3.562   9.961  17.453  0.00  0.00    +0.000 C 
ATOM     27  C   UNL     1      -2.352  10.467  18.219  0.00  0.00    +0.000 C 
ATOM     28  C   UNL     1      -0.965  10.301  17.588  0.00  0.00    +0.000 C 
ENDBRANCH  17  20
ENDBRANCH   4  17
TORSDOF 4
ENDMDL
MODEL 3
REMARK VINA RESULT:      -8.2      2.965      4.017
REMARK  Name = 
REMARK  5 active torsions:
REMARK  status: ('A' for Active; 'I' for Inactive)
REMARK    1  A    between atoms: C_1  and  C_2
REMARK    2  A    between atoms: N_5  and  S_6
REMARK    3  A    between atoms: S_6  and  C_9
REMARK    4  A    between atoms: C_12  and  S_13
REMARK    5  A    between atoms: S_13  and  N_16
REMARK                            x       y       z     vdW  Elec       q    Type
REMARK                         _______ _______ _______ _____ _____    ______ ____
ROOT
ATOM      1  C   UNL     1       2.494   7.150  19.032  0.00  0.00    +0.000 A 
ATOM      2  C   UNL     1       2.229   8.036  17.977  0.00  0.00    +0.000 A 
ATOM      3  C   UNL     1       1.540   9.242  18.228  0.00  0.00    +0.000 A 
ATOM      4  C   UNL     1       1.112   9.545  19.529  0.00  0.00    +0.000 A 
ATOM      5  C   UNL     1       1.350   8.643  20.570  0.00  0.00    +0.000 A 
ATOM      6  C   UNL     1       2.020   7.442  20.323  0.00  0.00    +0.000 A 
ENDROOT
BRANCH   1   7
ATOM      7  S   UNL     1       3.271   5.555  18.731  0.00  0.00    +0.000 S 
ATOM      8  O   UNL     1       2.685   5.018  17.527  0.00  0.00    +0.000 OA
ATOM      9  O   UNL     1       3.204   4.816  19.978  0.00  0.00    +0.000 OA
BRANCH   7  14
ATOM     10  C   UNL     1       5.646   4.356  14.427  0.00  0.00    +0.000 C 
ATOM     11  C   UNL     1       5.951   5.060  15.750  0.00  0.00    +0.000 C 
ATOM     12  C   UNL     1       5.792   4.083  16.921  0.00  0.00    +0.000 C 
ATOM     13  C   UNL     1       5.883   4.779  18.275  0.00  0.00    +0.000 C 
ATOM     14  N   UNL     1       4.918   5.899  18.399  0.00  0.00    +0.000 NA
ATOM     15  C   UNL     1       5.159   6.909  17.322  0.00  0.00    +0.000 C 
ATOM     16  C   UNL     1       5.061   6.297  15.924  0.00  0.00    +0.000 C 
ENDBRANCH   7  14
ENDBRANCH   1   7
BRANCH   4  17
ATOM     17  S   UNL     1       0.492  11.178  19.950  0.00  0.00    +0.000 S 
ATOM     18  O   UNL     1      -0.951  11.046  19.952  0.00  0.00    +0.000 OA
ATOM     19  O   UNL     1       1.197  11.618  21.135  0.00  0.00    +0.000 OA
BRANCH  17  20
ATOM     20  N   UNL     1       0.922  12.203  18.636  0.00  0.00    +0.000 NA
ATOM     21  C   UNL     1       2.334  12.735  18.647  0.00  0.00    +0.000 C 
ATOM     22  C   UNL     1       2.529  13.932  19.631  0.00  0.00    +0.000 C 
ATOM     23  N   UNL     1       1.494  14.965  19.509  0.00  0.00    +0.000 NA
ATOM     24  C   UNL     1       1.475  15.966  20.578  0.00  0.00    +0.000 C 
ATOM     25  C   UNL     1       0.059  16.552  20.485  0.00  0.00    +0.000 C 
ATOM     26  C   UNL     1      -0.663  15.682  19.446  0.00  0.00    +0.000 C 
ATOM     27  C   UNL     1       0.138  14.394  19.520  0.00  0.00    +0.000 C 
ATOM     28  C   UNL     1      -0.034  13.360  18.402  0.00  0.00    +0.000 C 
ENDBRANCH  17  20
ENDBRANCH   4  17
TORSDOF 4
ENDMDL
MODEL 4
REMARK VINA RESULT:      -8.1      3.082      4.073
REMARK  Name = 
REMARK  5 active torsions:
REMARK  status: ('A' for Active; 'I' for Inactive)
REMARK    1  A    between atoms: C_1  and  C_2
REMARK    2  A    between atoms: N_5  and  S_6
REMARK    3  A    between atoms: S_6  and  C_9
REMARK    4  A    between atoms: C_12  and  S_13
REMARK    5  A    between atoms: S_13  and  N_16
REMARK                            x       y       z     vdW  Elec       q    Type
REMARK                         _______ _______ _______ _____ _____    ______ ____
ROOT
ATOM      1  C   UNL     1       2.820   6.445  18.957  0.00  0.00    +0.000 A 
ATOM      2  C   UNL     1       2.296   6.502  20.258  0.00  0.00    +0.000 A 
ATOM      3  C   UNL     1       1.616   7.661  20.691  0.00  0.00    +0.000 A 
ATOM      4  C   UNL     1       1.479   8.756  19.825  0.00  0.00    +0.000 A 
ATOM      5  C   UNL     1       2.032   8.706  18.542  0.00  0.00    +0.000 A 
ATOM      6  C   UNL     1       2.716   7.564  18.114  0.00  0.00    +0.000 A 
ENDROOT
BRANCH   1   7
ATOM      7  S   UNL     1       3.785   5.029  18.408  0.00  0.00    +0.000 S 
ATOM      8  O   UNL     1       3.169   4.540  17.197  0.00  0.00    +0.000 OA
ATOM      9  O   UNL     1       3.942   4.159  19.558  0.00  0.00    +0.000 OA
BRANCH   7  14
ATOM     10  C   UNL     1       6.151   4.150  14.023  0.00  0.00    +0.000 C 
ATOM     11  C   UNL     1       6.380   4.936  15.314  0.00  0.00    +0.000 C 
ATOM     12  C   UNL     1       6.450   3.981  16.512  0.00  0.00    +0.000 C 
ATOM     13  C   UNL     1       6.472   4.721  17.845  0.00  0.00    +0.000 C 
ATOM     14  N   UNL     1       5.326   5.652  17.990  0.00  0.00    +0.000 NA
ATOM     15  C   UNL     1       5.334   6.658  16.883  0.00  0.00    +0.000 C 
ATOM     16  C   UNL     1       5.289   5.997  15.504  0.00  0.00    +0.000 C 
ENDBRANCH   7  14
ENDBRANCH   1   7
BRANCH   4  17
ATOM     17  S   UNL     1       0.389  10.128  20.222  0.00  0.00    +0.000 S 
ATOM     18  O   UNL     1      -0.883   9.518  20.552  0.00  0.00    +0.000 OA
ATOM     19  O   UNL     1       1.079  10.967  21.179  0.00  0.00    +0.000 OA
BRANCH  17  20
ATOM     20  N   UNL     1       0.182  11.010  18.759  0.00  0.00    +0.000 NA
ATOM     21  C   UNL     1      -0.212  12.459  18.910  0.00  0.00    +0.000 C 
ATOM     22  C   UNL     1      -1.728  12.651  19.229  0.00  0.00    +0.000 C 
ATOM     23  N   UNL     1      -2.613  11.873  18.355  0.00  0.00    +0.000 NA
ATOM     24  C   UNL     1      -4.014  11.806  18.777  0.00  0.00    +0.000 C 
ATOM     25  C   UNL     1      -4.547  10.573  18.031  0.00  0.00    +0.000 C 
ATOM     26  C   UNL     1      -3.312   9.947  17.368  0.00  0.00    +0.000 C 
ATOM     27  C   UNL     1      -2.195  10.465  18.256  0.00  0.00    +0.000 C 
ATOM     28  C   UNL     1      -0.751  10.354  17.755  0.00  0.00    +0.000 C 
ENDBRANCH  17  20
ENDBRANCH   4  17
TORSDOF 4
ENDMDL
MODEL 5
REMARK VINA RESULT:      -8.1      1.615      2.027
REMARK  Name = 
REMARK  5 active torsions:
REMARK  status: ('A' for Active; 'I' for Inactive)
REMARK    1  A    between atoms: C_1  and  C_2
REMARK    2  A    between atoms: N_5  and  S_6
REMARK    3  A    between atoms: S_6  and  C_9
REMARK    4  A    between atoms: C_12  and  S_13
REMARK    5  A    between atoms: S_13  and  N_16
REMARK                            x       y       z     vdW  Elec       q    Type
REMARK                         _______ _______ _______ _____ _____    ______ ____
ROOT
ATOM      1  C   UNL     1       2.969   6.563  18.643  0.00  0.00    +0.000 A 
ATOM      2  C   UNL     1       2.638   6.538  20.006  0.00  0.00    +0.000 A 
ATOM      3  C   UNL     1       1.922   7.613  20.575  0.00  0.00    +0.000 A 
ATOM      4  C   UNL     1       1.554   8.708  19.778  0.00  0.00    +0.000 A 
ATOM      5  C   UNL     1       1.915   8.742  18.429  0.00  0.00    +0.000 A 
ATOM      6  C   UNL     1       2.636   7.685  17.865  0.00  0.00    +0.000 A 
ENDROOT
BRANCH   1   7
ATOM      7  S   UNL     1       3.974   5.264  17.909  0.00  0.00    +0.000 S 
ATOM      8  O   UNL     1       4.879   4.798  18.933  0.00  0.00    +0.000 OA
ATOM      9  O   UNL     1       4.485   5.788  16.656  0.00  0.00    +0.000 OA
BRANCH   7  14
ATOM     10  C   UNL     1       1.554   2.495  21.384  0.00  0.00    +0.000 C 
ATOM     11  C   UNL     1       1.643   2.606  19.862  0.00  0.00    +0.000 C 
ATOM     12  C   UNL     1       3.070   2.300  19.390  0.00  0.00    +0.000 C 
ATOM     13  C   UNL     1       3.267   2.593  17.906  0.00  0.00    +0.000 C 
ATOM     14  N   UNL     1       2.890   3.984  17.553  0.00  0.00    +0.000 NA
ATOM     15  C   UNL     1       1.459   4.238  17.907  0.00  0.00    +0.000 C 
ATOM     16  C   UNL     1       1.179   3.989  19.390  0.00  0.00    +0.000 C 
ENDBRANCH   7  14
ENDBRANCH   1   7
BRANCH   4  17
ATOM     17  S   UNL     1       0.408   9.954  20.379  0.00  0.00    +0.000 S 
ATOM     18  O   UNL     1      -0.756   9.215  20.825  0.00  0.00    +0.000 OA
ATOM     19  O   UNL     1       1.136  10.810  21.291  0.00  0.00    +0.000 OA
BRANCH  17  20
ATOM     20  N   UNL     1      -0.055  10.877  19.001  0.00  0.00    +0.000 NA
ATOM     21  C   UNL     1       0.644  12.204  18.829  0.00  0.00    +0.000 C 
ATOM     22  C   UNL     1       0.073  13.322  19.758  0.00  0.00    +0.000 C 
ATOM     23  N   UNL     1      -1.392  13.404  19.743  0.00  0.00    +0.000 NA
ATOM     24  C   UNL     1      -1.986  14.243  20.786  0.00  0.00    +0.000 C 
ATOM     25  C   UNL     1      -3.437  13.742  20.855  0.00  0.00    +0.000 C 
ATOM     26  C   UNL     1      -3.479  12.518  19.930  0.00  0.00    +0.000 C 
ATOM     27  C   UNL     1      -2.022  12.087  19.931  0.00  0.00    +0.000 C 
ATOM     28  C   UNL     1      -1.552  11.094  18.863  0.00  0.00    +0.000 C 
ENDBRANCH  17  20
ENDBRANCH   4  17
TORSDOF 4
ENDMDL
MODEL 6
REMARK VINA RESULT:      -8.1      0.983      8.103
REMARK  Name = 
REMARK  5 active torsions:
REMARK  status: ('A' for Active; 'I' for Inactive)
REMARK    1  A    between atoms: C_1  and  C_2
REMARK    2  A    between atoms: N_5  and  S_6
REMARK    3  A    between atoms: S_6  and  C_9
REMARK    4  A    between atoms: C_12  and  S_13
REMARK    5  A    between atoms: S_13  and  N_16
REMARK                            x       y       z     vdW  Elec       q    Type
REMARK                         _______ _______ _______ _____ _____    ______ ____
ROOT
ATOM      1  C   UNL     1       1.553   8.755  19.232  0.00  0.00    +0.000 A 
ATOM      2  C   UNL     1       1.872   7.759  20.168  0.00  0.00    +0.000 A 
ATOM      3  C   UNL     1       2.778   6.734  19.821  0.00  0.00    +0.000 A 
ATOM      4  C   UNL     1       3.347   6.708  18.538  0.00  0.00    +0.000 A 
ATOM      5  C   UNL     1       3.000   7.684  17.601  0.00  0.00    +0.000 A 
ATOM      6  C   UNL     1       2.093   8.693  17.936  0.00  0.00    +0.000 A 
ENDROOT
BRANCH   1   7
ATOM      7  S   UNL     1       0.321  10.014  19.602  0.00  0.00    +0.000 S 
ATOM      8  O   UNL     1      -0.894   9.324  19.964  0.00  0.00    +0.000 OA
ATOM      9  O   UNL     1       0.336  10.950  18.494  0.00  0.00    +0.000 OA
BRANCH   7  14
ATOM     10  C   UNL     1      -2.645  12.047  23.161  0.00  0.00    +0.000 C 
ATOM     11  C   UNL     1      -1.154  11.865  22.874  0.00  0.00    +0.000 C 
ATOM     12  C   UNL     1      -0.768  12.599  21.584  0.00  0.00    +0.000 C 
ATOM     13  C   UNL     1       0.657  12.284  21.140  0.00  0.00    +0.000 C 
ATOM     14  N   UNL     1       0.893  10.826  20.999  0.00  0.00    +0.000 NA
ATOM     15  C   UNL     1       0.629  10.132  22.298  0.00  0.00    +0.000 C 
ATOM     16  C   UNL     1      -0.793  10.376  22.805  0.00  0.00    +0.000 C 
ENDBRANCH   7  14
ENDBRANCH   1   7
BRANCH   4  17
ATOM     17  S   UNL     1       4.707   5.603  18.145  0.00  0.00    +0.000 S 
ATOM     18  O   UNL     1       5.330   6.172  16.967  0.00  0.00    +0.000 OA
ATOM     19  O   UNL     1       5.467   5.400  19.360  0.00  0.00    +0.000 OA
BRANCH  17  20
ATOM     20  N   UNL     1       3.988   4.108  17.685  0.00  0.00    +0.000 NA
ATOM     21  C   UNL     1       2.561   4.183  17.198  0.00  0.00    +0.000 C 
ATOM     22  C   UNL     1       1.524   4.314  18.358  0.00  0.00    +0.000 C 
ATOM     23  N   UNL     1       1.741   3.356  19.448  0.00  0.00    +0.000 NA
ATOM     24  C   UNL     1       0.973   3.609  20.670  0.00  0.00    +0.000 C 
ATOM     25  C   UNL     1       1.751   2.829  21.741  0.00  0.00    +0.000 C 
ATOM     26  C   UNL     1       3.016   2.331  21.028  0.00  0.00    +0.000 C 
ATOM     27  C   UNL     1       3.143   3.336  19.896  0.00  0.00    +0.000 C 
ATOM     28  C   UNL     1       4.088   3.013  18.734  0.00  0.00    +0.000 C 
ENDBRANCH  17  20
ENDBRANCH   4  17
TORSDOF 4
ENDMDL
MODEL 7
REMARK VINA RESULT:      -8.0      2.489      3.469
REMARK  Name = 
REMARK  5 active torsions:
REMARK  status: ('A' for Active; 'I' for Inactive)
REMARK    1  A    between atoms: C_1  and  C_2
REMARK    2  A    between atoms: N_5  and  S_6
REMARK    3  A    between atoms: S_6  and  C_9
REMARK    4  A    between atoms: C_12  and  S_13
REMARK    5  A    between atoms: S_13  and  N_16
REMARK                            x       y       z     vdW  Elec       q    Type
REMARK                         _______ _______ _______ _____ _____    ______ ____
ROOT
ATOM      1  C   UNL     1       2.120   7.286  19.876  0.00  0.00    +0.000 A 
ATOM      2  C   UNL     1       2.070   8.058  18.705  0.00  0.00    +0.000 A 
ATOM      3  C   UNL     1       1.459   9.330  18.728  0.00  0.00    +0.000 A 
ATOM      4  C   UNL     1       0.893   9.813  19.917  0.00  0.00    +0.000 A 
ATOM      5  C   UNL     1       0.917   9.026  21.072  0.00  0.00    +0.000 A 
ATOM      6  C   UNL     1       1.510   7.760  21.050  0.00  0.00    +0.000 A 
ENDROOT
BRANCH   1   7
ATOM      7  S   UNL     1       2.793   5.618  19.859  0.00  0.00    +0.000 S 
ATOM      8  O   UNL     1       2.215   4.916  20.981  0.00  0.00    +0.000 OA
ATOM      9  O   UNL     1       4.232   5.749  19.733  0.00  0.00    +0.000 OA
BRANCH   7  14
ATOM     10  C   UNL     1       3.944   0.941  18.308  0.00  0.00    +0.000 C 
ATOM     11  C   UNL     1       3.075   2.118  17.863  0.00  0.00    +0.000 C 
ATOM     12  C   UNL     1       3.951   3.341  17.563  0.00  0.00    +0.000 C 
ATOM     13  C   UNL     1       3.126   4.599  17.313  0.00  0.00    +0.000 C 
ATOM     14  N   UNL     1       2.192   4.890  18.428  0.00  0.00    +0.000 NA
ATOM     15  C   UNL     1       1.260   3.738  18.635  0.00  0.00    +0.000 C 
ATOM     16  C   UNL     1       2.008   2.435  18.918  0.00  0.00    +0.000 C 
ENDBRANCH   7  14
ENDBRANCH   1   7
BRANCH   4  17
ATOM     17  S   UNL     1       0.363  11.523  20.070  0.00  0.00    +0.000 S 
ATOM     18  O   UNL     1      -1.084  11.473  20.070  0.00  0.00    +0.000 OA
ATOM     19  O   UNL     1       1.084  12.103  21.183  0.00  0.00    +0.000 OA
BRANCH  17  20
ATOM     20  N   UNL     1       0.860  12.306  18.620  0.00  0.00    +0.000 NA
ATOM     21  C   UNL     1       2.309  12.726  18.557  0.00  0.00    +0.000 C 
ATOM     22  C   UNL     1       2.601  14.037  19.354  0.00  0.00    +0.000 C 
ATOM     23  N   UNL     1       1.647  15.116  19.075  0.00  0.00    +0.000 NA
ATOM     24  C   UNL     1       1.711  16.263  19.984  0.00  0.00    +0.000 C 
ATOM     25  C   UNL     1       0.342  16.935  19.799  0.00  0.00    +0.000 C 
ATOM     26  C   UNL     1      -0.451  15.978  18.898  0.00  0.00    +0.000 C 
ATOM     27  C   UNL     1       0.251  14.657  19.166  0.00  0.00    +0.000 C 
ATOM     28  C   UNL     1      -0.007  13.485  18.213  0.00  0.00    +0.000 C 
ENDBRANCH  17  20
ENDBRANCH   4  17
TORSDOF 4
ENDMDL
MODEL 8
REMARK VINA RESULT:      -8.0      1.455      1.983
REMARK  Name = 
REMARK  5 active torsions:
REMARK  status: ('A' for Active; 'I' for Inactive)
REMARK    1  A    between atoms: C_1  and  C_2
REMARK    2  A    between atoms: N_5  and  S_6
REMARK    3  A    between atoms: S_6  and  C_9
REMARK    4  A    between atoms: C_12  and  S_13
REMARK    5  A    between atoms: S_13  and  N_16
REMARK                            x       y       z     vdW  Elec       q    Type
REMARK                         _______ _______ _______ _____ _____    ______ ____
ROOT
ATOM      1  C   UNL     1       2.860   6.936  18.652  0.00  0.00    +0.000 A 
ATOM      2  C   UNL     1       2.362   7.120  19.951  0.00  0.00    +0.000 A 
ATOM      3  C   UNL     1       1.591   8.263  20.252  0.00  0.00    +0.000 A 
ATOM      4  C   UNL     1       1.336   9.218  19.256  0.00  0.00    +0.000 A 
ATOM      5  C   UNL     1       1.863   9.045  17.973  0.00  0.00    +0.000 A 
ATOM      6  C   UNL     1       2.638   7.921  17.674  0.00  0.00    +0.000 A 
ENDROOT
BRANCH   1   7
ATOM      7  S   UNL     1       3.935   5.548  18.259  0.00  0.00    +0.000 S 
ATOM      8  O   UNL     1       4.610   5.175  19.480  0.00  0.00    +0.000 OA
ATOM      9  O   UNL     1       4.695   5.928  17.083  0.00  0.00    +0.000 OA
BRANCH   7  14
ATOM     10  C   UNL     1       1.624   2.497  21.568  0.00  0.00    +0.000 C 
ATOM     11  C   UNL     1       1.701   2.703  20.055  0.00  0.00    +0.000 C 
ATOM     12  C   UNL     1       3.133   2.472  19.559  0.00  0.00    +0.000 C 
ATOM     13  C   UNL     1       3.312   2.862  18.095  0.00  0.00    +0.000 C 
ATOM     14  N   UNL     1       2.890   4.258  17.830  0.00  0.00    +0.000 NA
ATOM     15  C   UNL     1       1.454   4.444  18.204  0.00  0.00    +0.000 C 
ATOM     16  C   UNL     1       1.190   4.097  19.670  0.00  0.00    +0.000 C 
ENDBRANCH   7  14
ENDBRANCH   1   7
BRANCH   4  17
ATOM     17  S   UNL     1       0.137  10.531  19.509  0.00  0.00    +0.000 S 
ATOM     18  O   UNL     1       0.141  11.290  18.275  0.00  0.00    +0.000 OA
ATOM     19  O   UNL     1      -1.080   9.919  19.999  0.00  0.00    +0.000 OA
BRANCH  17  20
ATOM     20  N   UNL     1       0.788  11.538  20.744  0.00  0.00    +0.000 NA
ATOM     21  C   UNL     1      -0.197  12.051  21.766  0.00  0.00    +0.000 C 
ATOM     22  C   UNL     1      -1.047  13.254  21.247  0.00  0.00    +0.000 C 
ATOM     23  N   UNL     1      -0.247  14.300  20.600  0.00  0.00    +0.000 NA
ATOM     24  C   UNL     1      -1.010  15.311  19.865  0.00  0.00    +0.000 C 
ATOM     25  C   UNL     1       0.035  15.916  18.914  0.00  0.00    +0.000 C 
ATOM     26  C   UNL     1       1.286  15.046  19.095  0.00  0.00    +0.000 C 
ATOM     27  C   UNL     1       0.683  13.748  19.602  0.00  0.00    +0.000 C 
ATOM     28  C   UNL     1       1.614  12.706  20.233  0.00  0.00    +0.000 C 
ENDBRANCH  17  20
ENDBRANCH   4  17
TORSDOF 4
ENDMDL
MODEL 9
REMARK VINA RESULT:      -8.0      2.590      3.701
REMARK  Name = 
REMARK  5 active torsions:
REMARK  status: ('A' for Active; 'I' for Inactive)
REMARK    1  A    between atoms: C_1  and  C_2
REMARK    2  A    between atoms: N_5  and  S_6
REMARK    3  A    between atoms: S_6  and  C_9
REMARK    4  A    between atoms: C_12  and  S_13
REMARK    5  A    between atoms: S_13  and  N_16
REMARK                            x       y       z     vdW  Elec       q    Type
REMARK                         _______ _______ _______ _____ _____    ______ ____
ROOT
ATOM      1  C   UNL     1       3.109   6.287  18.932  0.00  0.00    +0.000 A 
ATOM      2  C   UNL     1       2.810   7.454  18.213  0.00  0.00    +0.000 A 
ATOM      3  C   UNL     1       2.005   8.454  18.799  0.00  0.00    +0.000 A 
ATOM      4  C   UNL     1       1.497   8.272  20.094  0.00  0.00    +0.000 A 
ATOM      5  C   UNL     1       1.771   7.094  20.793  0.00  0.00    +0.000 A 
ATOM      6  C   UNL     1       2.557   6.095  20.210  0.00  0.00    +0.000 A 
ENDROOT
BRANCH   1   7
ATOM      7  S   UNL     1       4.040   4.945  18.178  0.00  0.00    +0.000 S 
ATOM      8  O   UNL     1       3.303   4.520  17.011  0.00  0.00    +0.000 OA
ATOM      9  O   UNL     1       4.350   4.003  19.237  0.00  0.00    +0.000 OA
BRANCH   7  14
ATOM     10  C   UNL     1       6.244   3.933  13.736  0.00  0.00    +0.000 C 
ATOM     11  C   UNL     1       6.477   4.822  14.959  0.00  0.00    +0.000 C 
ATOM     12  C   UNL     1       6.679   3.960  16.211  0.00  0.00    +0.000 C 
ATOM     13  C   UNL     1       6.711   4.791  17.490  0.00  0.00    +0.000 C 
ATOM     14  N   UNL     1       5.508   5.646  17.636  0.00  0.00    +0.000 NA
ATOM     15  C   UNL     1       5.385   6.570  16.466  0.00  0.00    +0.000 C 
ATOM     16  C   UNL     1       5.321   5.813  15.138  0.00  0.00    +0.000 C 
ENDBRANCH   7  14
ENDBRANCH   1   7
BRANCH   4  17
ATOM     17  S   UNL     1       0.714   9.621  20.985  0.00  0.00    +0.000 S 
ATOM     18  O   UNL     1      -0.680   9.245  21.094  0.00  0.00    +0.000 OA
ATOM     19  O   UNL     1       1.507   9.877  22.169  0.00  0.00    +0.000 OA
BRANCH  17  20
ATOM     20  N   UNL     1       0.806  10.993  19.949  0.00  0.00    +0.000 NA
ATOM     21  C   UNL     1       1.108  12.310  20.620  0.00  0.00    +0.000 C 
ATOM     22  C   UNL     1      -0.137  12.938  21.324  0.00  0.00    +0.000 C 
ATOM     23  N   UNL     1      -1.340  12.949  20.484  0.00  0.00    +0.000 NA
ATOM     24  C   UNL     1      -2.589  13.275  21.178  0.00  0.00    +0.000 C 
ATOM     25  C   UNL     1      -3.668  12.719  20.237  0.00  0.00    +0.000 C 
ATOM     26  C   UNL     1      -2.894  11.963  19.148  0.00  0.00    +0.000 C 
ATOM     27  C   UNL     1      -1.597  11.637  19.868  0.00  0.00    +0.000 C 
ATOM     28  C   UNL     1      -0.396  11.174  19.037  0.00  0.00    +0.000 C 
ENDBRANCH  17  20
ENDBRANCH   4  17
TORSDOF 4
ENDMDL
