MODEL 1
REMARK VINA RESULT:      -8.7      0.000      0.000
REMARK  Name = 
REMARK  7 active torsions:
REMARK  status: ('A' for Active; 'I' for Inactive)
REMARK    1  A    between atoms: C_1  and  C_2
REMARK    2  A    between atoms: C_2  and  C_3
REMARK    3  A    between atoms: C_2  and  N_4
REMARK    4  A    between atoms: C_6  and  C_7
REMARK    5  A    between atoms: C_9  and  C_10
REMARK    6  A    between atoms: C_9  and  C_17
REMARK    7  A    between atoms: C_24  and  C_25
REMARK                            x       y       z     vdW  Elec       q    Type
REMARK                         _______ _______ _______ _____ _____    ______ ____
ROOT
ATOM      1  C   UNL     1       1.675   8.404  19.199  0.00  0.00    +0.000 C 
ATOM      2  N   UNL     1       1.107   9.283  18.403  0.00  0.00    +0.000 NA
ATOM      3  C   UNL     1       0.364  10.282  19.313  0.00  0.00    +0.000 C 
ATOM      4  C   UNL     1       0.171   9.375  20.601  0.00  0.00    +0.000 C 
ATOM      5  C   UNL     1       0.007   9.931  22.003  0.00  0.00    +0.000 C 
ATOM      6  N   UNL     1       1.364   8.550  20.531  0.00  0.00    +0.000 N 
ATOM      7  H   UNL     1       1.395   7.734  21.127  0.00  0.00    +0.000 HD
ENDROOT
BRANCH   1  10
ATOM      8  N   UNL     1       3.171   4.982  18.649  0.00  0.00    +0.000 N 
ATOM      9  C   UNL     1       2.400   6.043  19.133  0.00  0.00    +0.000 A 
ATOM     10  C   UNL     1       2.554   7.299  18.681  0.00  0.00    +0.000 A 
ATOM     11  C   UNL     1       3.560   7.565  17.674  0.00  0.00    +0.000 A 
ATOM     12  C   UNL     1       4.324   6.575  17.191  0.00  0.00    +0.000 A 
ATOM     13  C   UNL     1       4.133   5.174  17.650  0.00  0.00    +0.000 A 
ATOM     14  O   UNL     1       4.813   4.291  17.138  0.00  0.00    +0.000 OA
BRANCH   8  16
ATOM     15  C   UNL     1       2.613   3.488  20.586  0.00  0.00    +0.000 C 
ATOM     16  C   UNL     1       2.895   3.600  19.088  0.00  0.00    +0.000 C 
ATOM     17  C   UNL     1       1.767   2.968  18.263  0.00  0.00    +0.000 C 
ENDBRANCH   8  16
ENDBRANCH   1  10
BRANCH   3  18
ATOM     18  C   UNL     1       1.251  11.558  19.424  0.00  0.00    +0.000 A 
ATOM     19  C   UNL     1       1.966  12.004  18.285  0.00  0.00    +0.000 A 
ATOM     20  C   UNL     1       2.776  13.145  18.313  0.00  0.00    +0.000 A 
ATOM     21  C   UNL     1       2.884  13.869  19.489  0.00  0.00    +0.000 A 
ATOM     22  F   UNL     1       3.659  14.965  19.528  0.00  0.00    +0.000 F 
ATOM     23  C   UNL     1       2.184  13.487  20.616  0.00  0.00    +0.000 A 
ATOM     24  C   UNL     1       1.359  12.351  20.580  0.00  0.00    +0.000 A 
ENDBRANCH   3  18
BRANCH   3  25
ATOM     25  C   UNL     1      -0.993  10.640  18.676  0.00  0.00    +0.000 A 
ATOM     26  C   UNL     1      -1.418  10.055  17.473  0.00  0.00    +0.000 A 
ATOM     27  C   UNL     1      -2.638  10.417  16.903  0.00  0.00    +0.000 A 
ATOM     28  C   UNL     1      -3.409  11.363  17.549  0.00  0.00    +0.000 A 
ATOM     29  F   UNL     1      -4.571  11.736  16.996  0.00  0.00    +0.000 F 
ATOM     30  N   UNL     1      -3.057  11.947  18.709  0.00  0.00    +0.000 NA
ATOM     31  C   UNL     1      -1.864  11.576  19.235  0.00  0.00    +0.000 A 
ENDBRANCH   3  25
TORSDOF 4
ENDMDL
MODEL 2
REMARK VINA RESULT:      -8.4      0.524      1.241
REMARK  Name = 
REMARK  7 active torsions:
REMARK  status: ('A' for Active; 'I' for Inactive)
REMARK    1  A    between atoms: C_1  and  C_2
REMARK    2  A    between atoms: C_2  and  C_3
REMARK    3  A    between atoms: C_2  and  N_4
REMARK    4  A    between atoms: C_6  and  C_7
REMARK    5  A    between atoms: C_9  and  C_10
REMARK    6  A    between atoms: C_9  and  C_17
REMARK    7  A    between atoms: C_24  and  C_25
REMARK                            x       y       z     vdW  Elec       q    Type
REMARK                         _______ _______ _______ _____ _____    ______ ____
ROOT
ATOM      1  C   UNL     1       1.671   8.405  19.176  0.00  0.00    +0.000 C 
ATOM      2  N   UNL     1       1.091   9.262  18.364  0.00  0.00    +0.000 NA
ATOM      3  C   UNL     1       0.368  10.291  19.256  0.00  0.00    +0.000 C 
ATOM      4  C   UNL     1       0.197   9.425  20.575  0.00  0.00    +0.000 C 
ATOM      5  C   UNL     1       0.062  10.024  21.962  0.00  0.00    +0.000 C 
ATOM      6  N   UNL     1       1.386   8.594  20.508  0.00  0.00    +0.000 N 
ATOM      7  H   UNL     1       1.426   7.796  21.128  0.00  0.00    +0.000 HD
ENDROOT
BRANCH   1  10
ATOM      8  N   UNL     1       3.104   4.951  18.655  0.00  0.00    +0.000 N 
ATOM      9  C   UNL     1       2.346   6.029  19.123  0.00  0.00    +0.000 A 
ATOM     10  C   UNL     1       2.537   7.282  18.676  0.00  0.00    +0.000 A 
ATOM     11  C   UNL     1       3.569   7.526  17.690  0.00  0.00    +0.000 A 
ATOM     12  C   UNL     1       4.322   6.519  17.223  0.00  0.00    +0.000 A 
ATOM     13  C   UNL     1       4.091   5.123  17.677  0.00  0.00    +0.000 A 
ATOM     14  O   UNL     1       4.762   4.226  17.178  0.00  0.00    +0.000 OA
BRANCH   8  16
ATOM     15  C   UNL     1       2.641   3.439  20.602  0.00  0.00    +0.000 C 
ATOM     16  C   UNL     1       2.789   3.576  19.087  0.00  0.00    +0.000 C 
ATOM     17  C   UNL     1       1.554   3.032  18.358  0.00  0.00    +0.000 C 
ENDBRANCH   8  16
ENDBRANCH   1  10
BRANCH   3  18
ATOM     18  C   UNL     1       1.262  11.567  19.310  0.00  0.00    +0.000 A 
ATOM     19  C   UNL     1       1.339  12.306  20.516  0.00  0.00    +0.000 A 
ATOM     20  C   UNL     1       2.126  13.457  20.635  0.00  0.00    +0.000 A 
ATOM     21  C   UNL     1       2.861  13.890  19.543  0.00  0.00    +0.000 A 
ATOM     22  F   UNL     1       3.620  14.993  19.645  0.00  0.00    +0.000 F 
ATOM     23  C   UNL     1       2.838  13.185  18.356  0.00  0.00    +0.000 A 
ATOM     24  C   UNL     1       2.058  12.021  18.244  0.00  0.00    +0.000 A 
ENDBRANCH   3  18
BRANCH   3  25
ATOM     25  C   UNL     1      -1.000  10.634  18.634  0.00  0.00    +0.000 A 
ATOM     26  C   UNL     1      -1.875  11.548  19.241  0.00  0.00    +0.000 A 
ATOM     27  C   UNL     1      -3.119  11.820  18.671  0.00  0.00    +0.000 A 
ATOM     28  C   UNL     1      -3.463  11.166  17.505  0.00  0.00    +0.000 A 
ATOM     29  F   UNL     1      -4.666  11.402  16.964  0.00  0.00    +0.000 F 
ATOM     30  N   UNL     1      -2.659  10.291  16.875  0.00  0.00    +0.000 NA
ATOM     31  C   UNL     1      -1.459  10.046  17.455  0.00  0.00    +0.000 A 
ENDBRANCH   3  25
TORSDOF 4
ENDMDL
MODEL 3
REMARK VINA RESULT:      -8.3      0.904      2.101
REMARK  Name = 
REMARK  7 active torsions:
REMARK  status: ('A' for Active; 'I' for Inactive)
REMARK    1  A    between atoms: C_1  and  C_2
REMARK    2  A    between atoms: C_2  and  C_3
REMARK    3  A    between atoms: C_2  and  N_4
REMARK    4  A    between atoms: C_6  and  C_7
REMARK    5  A    between atoms: C_9  and  C_10
REMARK    6  A    between atoms: C_9  and  C_17
REMARK    7  A    between atoms: C_24  and  C_25
REMARK                            x       y       z     vdW  Elec       q    Type
REMARK                         _______ _______ _______ _____ _____    ______ ____
ROOT
ATOM      1  C   UNL     1       1.630   8.284  19.562  0.00  0.00    +0.000 C 
ATOM      2  N   UNL     1       1.149   9.080  18.632  0.00  0.00    +0.000 NA
ATOM      3  C   UNL     1       0.348  10.176  19.365  0.00  0.00    +0.000 C 
ATOM      4  C   UNL     1       0.028   9.411  20.718  0.00  0.00    +0.000 C 
ATOM      5  C   UNL     1      -0.246  10.113  22.034  0.00  0.00    +0.000 C 
ATOM      6  N   UNL     1       1.207   8.572  20.839  0.00  0.00    +0.000 N 
ATOM      7  H   UNL     1       1.171   7.823  21.517  0.00  0.00    +0.000 HD
ENDROOT
BRANCH   1  10
ATOM      8  N   UNL     1       4.296   6.166  17.931  0.00  0.00    +0.000 N 
ATOM      9  C   UNL     1       3.417   7.210  18.236  0.00  0.00    +0.000 A 
ATOM     10  C   UNL     1       2.529   7.122  19.241  0.00  0.00    +0.000 A 
ATOM     11  C   UNL     1       2.471   5.904  20.022  0.00  0.00    +0.000 A 
ATOM     12  C   UNL     1       3.293   4.879  19.755  0.00  0.00    +0.000 A 
ATOM     13  C   UNL     1       4.309   4.981  18.675  0.00  0.00    +0.000 A 
ATOM     14  O   UNL     1       5.080   4.042  18.505  0.00  0.00    +0.000 OA
BRANCH   8  16
ATOM     15  C   UNL     1       4.786   6.932  15.593  0.00  0.00    +0.000 C 
ATOM     16  C   UNL     1       5.332   6.345  16.894  0.00  0.00    +0.000 C 
ATOM     17  C   UNL     1       6.513   7.168  17.422  0.00  0.00    +0.000 C 
ENDBRANCH   8  16
ENDBRANCH   1  10
BRANCH   3  18
ATOM     18  C   UNL     1       1.247  11.448  19.419  0.00  0.00    +0.000 A 
ATOM     19  C   UNL     1       1.958  11.843  18.260  0.00  0.00    +0.000 A 
ATOM     20  C   UNL     1       2.778  12.977  18.238  0.00  0.00    +0.000 A 
ATOM     21  C   UNL     1       2.899  13.746  19.384  0.00  0.00    +0.000 A 
ATOM     22  F   UNL     1       3.682  14.836  19.375  0.00  0.00    +0.000 F 
ATOM     23  C   UNL     1       2.202  13.415  20.529  0.00  0.00    +0.000 A 
ATOM     24  C   UNL     1       1.368  12.284  20.544  0.00  0.00    +0.000 A 
ENDBRANCH   3  18
BRANCH   3  25
ATOM     25  C   UNL     1      -0.941  10.478  18.577  0.00  0.00    +0.000 A 
ATOM     26  C   UNL     1      -1.251   9.802  17.386  0.00  0.00    +0.000 A 
ATOM     27  C   UNL     1      -2.411  10.113  16.678  0.00  0.00    +0.000 A 
ATOM     28  C   UNL     1      -3.238  11.101  17.175  0.00  0.00    +0.000 A 
ATOM     29  F   UNL     1      -4.342  11.425  16.488  0.00  0.00    +0.000 F 
ATOM     30  N   UNL     1      -2.996  11.772  18.316  0.00  0.00    +0.000 NA
ATOM     31  C   UNL     1      -1.860  11.448  18.979  0.00  0.00    +0.000 A 
ENDBRANCH   3  25
TORSDOF 4
ENDMDL
MODEL 4
REMARK VINA RESULT:      -8.0      1.251      2.228
REMARK  Name = 
REMARK  7 active torsions:
REMARK  status: ('A' for Active; 'I' for Inactive)
REMARK    1  A    between atoms: C_1  and  C_2
REMARK    2  A    between atoms: C_2  and  C_3
REMARK    3  A    between atoms: C_2  and  N_4
REMARK    4  A    between atoms: C_6  and  C_7
REMARK    5  A    between atoms: C_9  and  C_10
REMARK    6  A    between atoms: C_9  and  C_17
REMARK    7  A    between atoms: C_24  and  C_25
REMARK                            x       y       z     vdW  Elec       q    Type
REMARK                         _______ _______ _______ _____ _____    ______ ____
ROOT
ATOM      1  C   UNL     1       1.446   8.729  19.223  0.00  0.00    +0.000 C 
ATOM      2  N   UNL     1       0.821   9.375  18.262  0.00  0.00    +0.000 NA
ATOM      3  C   UNL     1       0.022  10.506  18.941  0.00  0.00    +0.000 C 
ATOM      4  C   UNL     1      -0.110   9.898  20.401  0.00  0.00    +0.000 C 
ATOM      5  C   UNL     1      -0.301  10.741  21.647  0.00  0.00    +0.000 C 
ATOM      6  N   UNL     1       1.131   9.149  20.494  0.00  0.00    +0.000 N 
ATOM      7  H   UNL     1       1.215   8.489  21.256  0.00  0.00    +0.000 HD
ENDROOT
BRANCH   1  10
ATOM      8  N   UNL     1       4.207   6.660  17.691  0.00  0.00    +0.000 N 
ATOM      9  C   UNL     1       3.288   7.681  17.954  0.00  0.00    +0.000 A 
ATOM     10  C   UNL     1       2.389   7.590  18.948  0.00  0.00    +0.000 A 
ATOM     11  C   UNL     1       2.359   6.393  19.761  0.00  0.00    +0.000 A 
ATOM     12  C   UNL     1       3.218   5.389  19.535  0.00  0.00    +0.000 A 
ATOM     13  C   UNL     1       4.247   5.496  18.467  0.00  0.00    +0.000 A 
ATOM     14  O   UNL     1       5.052   4.580  18.335  0.00  0.00    +0.000 OA
BRANCH   8  16
ATOM     15  C   UNL     1       6.649   7.035  17.254  0.00  0.00    +0.000 C 
ATOM     16  C   UNL     1       5.252   6.845  16.664  0.00  0.00    +0.000 C 
ATOM     17  C   UNL     1       5.232   5.705  15.639  0.00  0.00    +0.000 C 
ENDBRANCH   8  16
ENDBRANCH   1  10
BRANCH   3  18
ATOM     18  C   UNL     1       0.831  11.824  18.750  0.00  0.00    +0.000 A 
ATOM     19  C   UNL     1       0.227  13.060  19.086  0.00  0.00    +0.000 A 
ATOM     20  C   UNL     1       0.898  14.280  18.945  0.00  0.00    +0.000 A 
ATOM     21  C   UNL     1       2.197  14.286  18.466  0.00  0.00    +0.000 A 
ATOM     22  F   UNL     1       2.851  15.450  18.326  0.00  0.00    +0.000 F 
ATOM     23  C   UNL     1       2.836  13.102  18.152  0.00  0.00    +0.000 A 
ATOM     24  C   UNL     1       2.165  11.878  18.309  0.00  0.00    +0.000 A 
ENDBRANCH   3  18
BRANCH   3  25
ATOM     25  C   UNL     1      -1.357  10.632  18.264  0.00  0.00    +0.000 A 
ATOM     26  C   UNL     1      -1.659   9.948  17.076  0.00  0.00    +0.000 A 
ATOM     27  C   UNL     1      -2.905  10.101  16.469  0.00  0.00    +0.000 A 
ATOM     28  C   UNL     1      -3.824  10.943  17.063  0.00  0.00    +0.000 A 
ATOM     29  F   UNL     1      -5.015  11.117  16.473  0.00  0.00    +0.000 F 
ATOM     30  N   UNL     1      -3.592  11.614  18.206  0.00  0.00    +0.000 NA
ATOM     31  C   UNL     1      -2.372  11.446  18.769  0.00  0.00    +0.000 A 
ENDBRANCH   3  25
TORSDOF 4
ENDMDL
MODEL 5
REMARK VINA RESULT:      -8.0      1.050      2.444
REMARK  Name = 
REMARK  7 active torsions:
REMARK  status: ('A' for Active; 'I' for Inactive)
REMARK    1  A    between atoms: C_1  and  C_2
REMARK    2  A    between atoms: C_2  and  C_3
REMARK    3  A    between atoms: C_2  and  N_4
REMARK    4  A    between atoms: C_6  and  C_7
REMARK    5  A    between atoms: C_9  and  C_10
REMARK    6  A    between atoms: C_9  and  C_17
REMARK    7  A    between atoms: C_24  and  C_25
REMARK                            x       y       z     vdW  Elec       q    Type
REMARK                         _______ _______ _______ _____ _____    ______ ____
ROOT
ATOM      1  C   UNL     1       1.643   8.304  19.484  0.00  0.00    +0.000 C 
ATOM      2  N   UNL     1       1.139   9.071  18.542  0.00  0.00    +0.000 NA
ATOM      3  C   UNL     1       0.361  10.192  19.260  0.00  0.00    +0.000 C 
ATOM      4  C   UNL     1       0.074   9.471  20.645  0.00  0.00    +0.000 C 
ATOM      5  C   UNL     1      -0.164  10.215  21.945  0.00  0.00    +0.000 C 
ATOM      6  N   UNL     1       1.254   8.633  20.762  0.00  0.00    +0.000 N 
ATOM      7  H   UNL     1       1.234   7.906  21.464  0.00  0.00    +0.000 HD
ENDROOT
BRANCH   1  10
ATOM      8  N   UNL     1       4.329   6.162  17.919  0.00  0.00    +0.000 N 
ATOM      9  C   UNL     1       3.459   7.217  18.209  0.00  0.00    +0.000 A 
ATOM     10  C   UNL     1       2.531   7.130  19.177  0.00  0.00    +0.000 A 
ATOM     11  C   UNL     1       2.419   5.900  19.933  0.00  0.00    +0.000 A 
ATOM     12  C   UNL     1       3.230   4.863  19.679  0.00  0.00    +0.000 A 
ATOM     13  C   UNL     1       4.289   4.963  18.641  0.00  0.00    +0.000 A 
ATOM     14  O   UNL     1       5.048   4.013  18.483  0.00  0.00    +0.000 OA
BRANCH   8  16
ATOM     15  C   UNL     1       4.897   6.778  15.554  0.00  0.00    +0.000 C 
ATOM     16  C   UNL     1       5.407   6.338  16.926  0.00  0.00    +0.000 C 
ATOM     17  C   UNL     1       6.493   7.288  17.445  0.00  0.00    +0.000 C 
ENDBRANCH   8  16
ENDBRANCH   1  10
BRANCH   3  18
ATOM     18  C   UNL     1       1.263  11.463  19.251  0.00  0.00    +0.000 A 
ATOM     19  C   UNL     1       1.346  12.260  20.419  0.00  0.00    +0.000 A 
ATOM     20  C   UNL     1       2.141  13.410  20.482  0.00  0.00    +0.000 A 
ATOM     21  C   UNL     1       2.878  13.784  19.370  0.00  0.00    +0.000 A 
ATOM     22  F   UNL     1       3.644  14.885  19.418  0.00  0.00    +0.000 F 
ATOM     23  C   UNL     1       2.849  13.022  18.219  0.00  0.00    +0.000 A 
ATOM     24  C   UNL     1       2.062  11.859  18.164  0.00  0.00    +0.000 A 
ENDBRANCH   3  18
BRANCH   3  25
ATOM     25  C   UNL     1      -0.949  10.473  18.497  0.00  0.00    +0.000 A 
ATOM     26  C   UNL     1      -1.881  11.415  18.957  0.00  0.00    +0.000 A 
ATOM     27  C   UNL     1      -3.071  11.630  18.262  0.00  0.00    +0.000 A 
ATOM     28  C   UNL     1      -3.305  10.892  17.119  0.00  0.00    +0.000 A 
ATOM     29  F   UNL     1      -4.457  11.073  16.459  0.00  0.00    +0.000 F 
ATOM     30  N   UNL     1      -2.442   9.985  16.627  0.00  0.00    +0.000 NA
ATOM     31  C   UNL     1      -1.298   9.797  17.327  0.00  0.00    +0.000 A 
ENDBRANCH   3  25
TORSDOF 4
ENDMDL
MODEL 6
REMARK VINA RESULT:      -8.0      1.921      4.248
REMARK  Name = 
REMARK  7 active torsions:
REMARK  status: ('A' for Active; 'I' for Inactive)
REMARK    1  A    between atoms: C_1  and  C_2
REMARK    2  A    between atoms: C_2  and  C_3
REMARK    3  A    between atoms: C_2  and  N_4
REMARK    4  A    between atoms: C_6  and  C_7
REMARK    5  A    between atoms: C_9  and  C_10
REMARK    6  A    between atoms: C_9  and  C_17
REMARK    7  A    between atoms: C_24  and  C_25
REMARK                            x       y       z     vdW  Elec       q    Type
REMARK                         _______ _______ _______ _____ _____    ______ ____
ROOT
ATOM      1  C   UNL     1       1.716   9.260  18.526  0.00  0.00    +0.000 C 
ATOM      2  N   UNL     1       0.681   9.364  19.331  0.00  0.00    +0.000 NA
ATOM      3  C   UNL     1       0.137  10.797  19.162  0.00  0.00    +0.000 C 
ATOM      4  C   UNL     1       1.445  11.516  18.622  0.00  0.00    +0.000 C 
ATOM      5  C   UNL     1       1.423  12.769  17.769  0.00  0.00    +0.000 C 
ATOM      6  N   UNL     1       2.068  10.428  17.890  0.00  0.00    +0.000 N 
ATOM      7  H   UNL     1       3.031  10.554  17.610  0.00  0.00    +0.000 HD
ENDROOT
BRANCH   1  10
ATOM      8  N   UNL     1       2.783   5.657  18.893  0.00  0.00    +0.000 N 
ATOM      9  C   UNL     1       2.123   6.880  19.050  0.00  0.00    +0.000 A 
ATOM     10  C   UNL     1       2.480   7.975  18.359  0.00  0.00    +0.000 A 
ATOM     11  C   UNL     1       3.593   7.892  17.437  0.00  0.00    +0.000 A 
ATOM     12  C   UNL     1       4.257   6.739  17.265  0.00  0.00    +0.000 A 
ATOM     13  C   UNL     1       3.842   5.510  17.990  0.00  0.00    +0.000 A 
ATOM     14  O   UNL     1       4.438   4.463  17.758  0.00  0.00    +0.000 OA
BRANCH   8  16
ATOM     15  C   UNL     1       1.747   4.738  20.985  0.00  0.00    +0.000 C 
ATOM     16  C   UNL     1       2.289   4.450  19.585  0.00  0.00    +0.000 C 
ATOM     17  C   UNL     1       1.256   3.704  18.733  0.00  0.00    +0.000 C 
ENDBRANCH   8  16
ENDBRANCH   1  10
BRANCH   3  18
ATOM     18  C   UNL     1      -1.109  10.713  18.228  0.00  0.00    +0.000 A 
ATOM     19  C   UNL     1      -2.134  11.682  18.354  0.00  0.00    +0.000 A 
ATOM     20  C   UNL     1      -3.275  11.669  17.545  0.00  0.00    +0.000 A 
ATOM     21  C   UNL     1      -3.412  10.680  16.584  0.00  0.00    +0.000 A 
ATOM     22  F   UNL     1      -4.503  10.657  15.801  0.00  0.00    +0.000 F 
ATOM     23  C   UNL     1      -2.425   9.731  16.407  0.00  0.00    +0.000 A 
ATOM     24  C   UNL     1      -1.272   9.756  17.211  0.00  0.00    +0.000 A 
ENDBRANCH   3  18
BRANCH   3  25
ATOM     25  C   UNL     1      -0.276  11.351  20.539  0.00  0.00    +0.000 A 
ATOM     26  C   UNL     1      -0.642  10.501  21.594  0.00  0.00    +0.000 A 
ATOM     27  C   UNL     1      -1.038  11.030  22.823  0.00  0.00    +0.000 A 
ATOM     28  C   UNL     1      -1.063  12.402  22.968  0.00  0.00    +0.000 A 
ATOM     29  F   UNL     1      -1.467  12.920  24.137  0.00  0.00    +0.000 F 
ATOM     30  N   UNL     1      -0.712  13.263  21.996  0.00  0.00    +0.000 NA
ATOM     31  C   UNL     1      -0.335  12.718  20.814  0.00  0.00    +0.000 A 
ENDBRANCH   3  25
TORSDOF 4
ENDMDL
MODEL 7
REMARK VINA RESULT:      -7.9      2.051      4.187
REMARK  Name = 
REMARK  7 active torsions:
REMARK  status: ('A' for Active; 'I' for Inactive)
REMARK    1  A    between atoms: C_1  and  C_2
REMARK    2  A    between atoms: C_2  and  C_3
REMARK    3  A    between atoms: C_2  and  N_4
REMARK    4  A    between atoms: C_6  and  C_7
REMARK    5  A    between atoms: C_9  and  C_10
REMARK    6  A    between atoms: C_9  and  C_17
REMARK    7  A    between atoms: C_24  and  C_25
REMARK                            x       y       z     vdW  Elec       q    Type
REMARK                         _______ _______ _______ _____ _____    ______ ____
ROOT
ATOM      1  C   UNL     1       1.501   9.394  18.638  0.00  0.00    +0.000 C 
ATOM      2  N   UNL     1       0.390   9.369  19.343  0.00  0.00    +0.000 NA
ATOM      3  C   UNL     1      -0.208  10.789  19.268  0.00  0.00    +0.000 C 
ATOM      4  C   UNL     1       1.107  11.614  18.938  0.00  0.00    +0.000 C 
ATOM      5  C   UNL     1       1.103  12.949  18.220  0.00  0.00    +0.000 C 
ATOM      6  N   UNL     1       1.851  10.636  18.164  0.00  0.00    +0.000 N 
ATOM      7  H   UNL     1       2.829  10.830  17.994  0.00  0.00    +0.000 HD
ENDROOT
BRANCH   1  10
ATOM      8  N   UNL     1       2.807   5.859  18.879  0.00  0.00    +0.000 N 
ATOM      9  C   UNL     1       2.073   7.032  19.086  0.00  0.00    +0.000 A 
ATOM     10  C   UNL     1       2.341   8.166  18.417  0.00  0.00    +0.000 A 
ATOM     11  C   UNL     1       3.432   8.180  17.466  0.00  0.00    +0.000 A 
ATOM     12  C   UNL     1       4.164   7.077  17.246  0.00  0.00    +0.000 A 
ATOM     13  C   UNL     1       3.849   5.805  17.947  0.00  0.00    +0.000 A 
ATOM     14  O   UNL     1       4.505   4.806  17.671  0.00  0.00    +0.000 OA
BRANCH   8  16
ATOM     15  C   UNL     1       1.888   4.820  20.970  0.00  0.00    +0.000 C 
ATOM     16  C   UNL     1       2.410   4.605  19.550  0.00  0.00    +0.000 C 
ATOM     17  C   UNL     1       1.404   3.816  18.703  0.00  0.00    +0.000 C 
ENDBRANCH   8  16
ENDBRANCH   1  10
BRANCH   3  18
ATOM     18  C   UNL     1      -1.353  10.754  18.213  0.00  0.00    +0.000 A 
ATOM     19  C   UNL     1      -1.361   9.731  17.233  0.00  0.00    +0.000 A 
ATOM     20  C   UNL     1      -2.362   9.639  16.260  0.00  0.00    +0.000 A 
ATOM     21  C   UNL     1      -3.386  10.572  16.251  0.00  0.00    +0.000 A 
ATOM     22  F   UNL     1      -4.352  10.493  15.322  0.00  0.00    +0.000 F 
ATOM     23  C   UNL     1      -3.434  11.571  17.204  0.00  0.00    +0.000 A 
ATOM     24  C   UNL     1      -2.436  11.652  18.189  0.00  0.00    +0.000 A 
ENDBRANCH   3  18
BRANCH   3  25
ATOM     25  C   UNL     1      -0.776  11.175  20.648  0.00  0.00    +0.000 A 
ATOM     26  C   UNL     1      -0.530  10.396  21.789  0.00  0.00    +0.000 A 
ATOM     27  C   UNL     1      -1.079  10.754  23.020  0.00  0.00    +0.000 A 
ATOM     28  C   UNL     1      -1.869  11.884  23.082  0.00  0.00    +0.000 A 
ATOM     29  F   UNL     1      -2.422  12.221  24.256  0.00  0.00    +0.000 F 
ATOM     30  N   UNL     1      -2.128  12.673  22.024  0.00  0.00    +0.000 NA
ATOM     31  C   UNL     1      -1.583  12.297  20.842  0.00  0.00    +0.000 A 
ENDBRANCH   3  25
TORSDOF 4
ENDMDL
MODEL 8
REMARK VINA RESULT:      -7.8      2.047      4.605
REMARK  Name = 
REMARK  7 active torsions:
REMARK  status: ('A' for Active; 'I' for Inactive)
REMARK    1  A    between atoms: C_1  and  C_2
REMARK    2  A    between atoms: C_2  and  C_3
REMARK    3  A    between atoms: C_2  and  N_4
REMARK    4  A    between atoms: C_6  and  C_7
REMARK    5  A    between atoms: C_9  and  C_10
REMARK    6  A    between atoms: C_9  and  C_17
REMARK    7  A    between atoms: C_24  and  C_25
REMARK                            x       y       z     vdW  Elec       q    Type
REMARK                         _______ _______ _______ _____ _____    ______ ____
ROOT
ATOM      1  C   UNL     1       1.409   9.005  19.388  0.00  0.00    +0.000 C 
ATOM      2  N   UNL     1       0.374   9.395  20.100  0.00  0.00    +0.000 NA
ATOM      3  C   UNL     1       0.061  10.841  19.663  0.00  0.00    +0.000 C 
ATOM      4  C   UNL     1       1.482  11.259  19.092  0.00  0.00    +0.000 C 
ATOM      5  C   UNL     1       1.682  12.335  18.042  0.00  0.00    +0.000 C 
ATOM      6  N   UNL     1       1.957   9.982  18.590  0.00  0.00    +0.000 N 
ATOM      7  H   UNL     1       2.938   9.917  18.351  0.00  0.00    +0.000 HD
ENDROOT
BRANCH   1  10
ATOM      8  N   UNL     1       3.448   5.913  18.655  0.00  0.00    +0.000 N 
ATOM      9  C   UNL     1       2.871   7.185  18.580  0.00  0.00    +0.000 A 
ATOM     10  C   UNL     1       1.974   7.614  19.483  0.00  0.00    +0.000 A 
ATOM     11  C   UNL     1       1.579   6.728  20.558  0.00  0.00    +0.000 A 
ATOM     12  C   UNL     1       2.104   5.498  20.659  0.00  0.00    +0.000 A 
ATOM     13  C   UNL     1       3.130   5.028  19.693  0.00  0.00    +0.000 A 
ATOM     14  O   UNL     1       3.627   3.919  19.859  0.00  0.00    +0.000 OA
BRANCH   8  16
ATOM     15  C   UNL     1       4.123   4.341  16.820  0.00  0.00    +0.000 C 
ATOM     16  C   UNL     1       4.512   5.521  17.711  0.00  0.00    +0.000 C 
ATOM     17  C   UNL     1       4.982   6.716  16.874  0.00  0.00    +0.000 C 
ENDBRANCH   8  16
ENDBRANCH   1  10
BRANCH   3  18
ATOM     18  C   UNL     1      -1.149  10.777  18.683  0.00  0.00    +0.000 A 
ATOM     19  C   UNL     1      -2.261  11.626  18.901  0.00  0.00    +0.000 A 
ATOM     20  C   UNL     1      -3.377  11.624  18.057  0.00  0.00    +0.000 A 
ATOM     21  C   UNL     1      -3.399  10.769  16.967  0.00  0.00    +0.000 A 
ATOM     22  F   UNL     1      -4.465  10.758  16.150  0.00  0.00    +0.000 F 
ATOM     23  C   UNL     1      -2.325   9.944  16.699  0.00  0.00    +0.000 A 
ATOM     24  C   UNL     1      -1.199   9.959  17.540  0.00  0.00    +0.000 A 
ENDBRANCH   3  18
BRANCH   3  25
ATOM     25  C   UNL     1      -0.310  11.679  20.901  0.00  0.00    +0.000 A 
ATOM     26  C   UNL     1      -0.980  11.114  21.998  0.00  0.00    +0.000 A 
ATOM     27  C   UNL     1      -1.328  11.901  23.095  0.00  0.00    +0.000 A 
ATOM     28  C   UNL     1      -1.003  13.242  23.070  0.00  0.00    +0.000 A 
ATOM     29  F   UNL     1      -1.357  14.012  24.109  0.00  0.00    +0.000 F 
ATOM     30  N   UNL     1      -0.351  13.833  22.052  0.00  0.00    +0.000 NA
ATOM     31  C   UNL     1      -0.030  13.042  21.000  0.00  0.00    +0.000 A 
ENDBRANCH   3  25
TORSDOF 4
ENDMDL
MODEL 9
REMARK VINA RESULT:      -7.8      1.129      2.139
REMARK  Name = 
REMARK  7 active torsions:
REMARK  status: ('A' for Active; 'I' for Inactive)
REMARK    1  A    between atoms: C_1  and  C_2
REMARK    2  A    between atoms: C_2  and  C_3
REMARK    3  A    between atoms: C_2  and  N_4
REMARK    4  A    between atoms: C_6  and  C_7
REMARK    5  A    between atoms: C_9  and  C_10
REMARK    6  A    between atoms: C_9  and  C_17
REMARK    7  A    between atoms: C_24  and  C_25
REMARK                            x       y       z     vdW  Elec       q    Type
REMARK                         _______ _______ _______ _____ _____    ______ ____
ROOT
ATOM      1  C   UNL     1       1.267   8.333  20.039  0.00  0.00    +0.000 C 
ATOM      2  N   UNL     1       0.867   9.057  19.016  0.00  0.00    +0.000 NA
ATOM      3  C   UNL     1       0.168  10.300  19.605  0.00  0.00    +0.000 C 
ATOM      4  C   UNL     1      -0.230   9.729  21.032  0.00  0.00    +0.000 C 
ATOM      5  C   UNL     1      -0.446  10.600  22.254  0.00  0.00    +0.000 C 
ATOM      6  N   UNL     1       0.865   8.805  21.267  0.00  0.00    +0.000 N 
ATOM      7  H   UNL     1       0.756   8.145  22.026  0.00  0.00    +0.000 HD
ENDROOT
BRANCH   1  10
ATOM      8  N   UNL     1       3.760   5.820  18.729  0.00  0.00    +0.000 N 
ATOM      9  C   UNL     1       2.979   6.967  18.896  0.00  0.00    +0.000 A 
ATOM     10  C   UNL     1       2.057   7.065  19.868  0.00  0.00    +0.000 A 
ATOM     11  C   UNL     1       1.854   5.943  20.760  0.00  0.00    +0.000 A 
ATOM     12  C   UNL     1       2.579   4.822  20.626  0.00  0.00    +0.000 A 
ATOM     13  C   UNL     1       3.632   4.718  19.583  0.00  0.00    +0.000 A 
ATOM     14  O   UNL     1       4.312   3.699  19.536  0.00  0.00    +0.000 OA
BRANCH   8  16
ATOM     15  C   UNL     1       4.606   4.767  16.614  0.00  0.00    +0.000 C 
ATOM     16  C   UNL     1       4.839   5.794  17.722  0.00  0.00    +0.000 C 
ATOM     17  C   UNL     1       5.091   7.190  17.139  0.00  0.00    +0.000 C 
ENDBRANCH   8  16
ENDBRANCH   1  10
BRANCH   3  18
ATOM     18  C   UNL     1       1.180  11.482  19.529  0.00  0.00    +0.000 A 
ATOM     19  C   UNL     1       1.863  11.730  18.313  0.00  0.00    +0.000 A 
ATOM     20  C   UNL     1       2.781  12.778  18.174  0.00  0.00    +0.000 A 
ATOM     21  C   UNL     1       3.030  13.606  19.256  0.00  0.00    +0.000 A 
ATOM     22  F   UNL     1       3.908  14.615  19.135  0.00  0.00    +0.000 F 
ATOM     23  C   UNL     1       2.367  13.419  20.453  0.00  0.00    +0.000 A 
ATOM     24  C   UNL     1       1.435  12.376  20.584  0.00  0.00    +0.000 A 
ENDBRANCH   3  18
BRANCH   3  25
ATOM     25  C   UNL     1      -1.084  10.625  18.766  0.00  0.00    +0.000 A 
ATOM     26  C   UNL     1      -2.027  11.574  19.190  0.00  0.00    +0.000 A 
ATOM     27  C   UNL     1      -3.165  11.830  18.426  0.00  0.00    +0.000 A 
ATOM     28  C   UNL     1      -3.338  11.125  17.252  0.00  0.00    +0.000 A 
ATOM     29  F   UNL     1      -4.441  11.346  16.523  0.00  0.00    +0.000 F 
ATOM     30  N   UNL     1      -2.461  10.214  16.792  0.00  0.00    +0.000 NA
ATOM     31  C   UNL     1      -1.368   9.986  17.559  0.00  0.00    +0.000 A 
ENDBRANCH   3  25
TORSDOF 4
ENDMDL
