MODEL 1
REMARK VINA RESULT:      -6.7      0.000      0.000
REMARK  Name = 
REMARK  11 active torsions:
REMARK  status: ('A' for Active; 'I' for Inactive)
REMARK    1  A    between atoms: C_1  and  C_2
REMARK    2  A    between atoms: C_2  and  C_3
REMARK    3  A    between atoms: C_3  and  N_4
REMARK    4  A    between atoms: N_4  and  C_5
REMARK    5  A    between atoms: N_4  and  C_8
REMARK    6  A    between atoms: C_5  and  C_6
REMARK    7  A    between atoms: C_6  and  C_7
REMARK    8  A    between atoms: C_8  and  C_9
REMARK    9  A    between atoms: C_9  and  C_10
REMARK   10  A    between atoms: C_14  and  O_15
REMARK   11  A    between atoms: C_18  and  O_19
REMARK                            x       y       z     vdW  Elec       q    Type
REMARK                         _______ _______ _______ _____ _____    ______ ____
ROOT
ATOM      1  C   UNL     1       2.853   5.515  18.726  0.00  0.00    +0.000 A 
ATOM      2  C   UNL     1       2.275   6.082  19.884  0.00  0.00    +0.000 A 
ATOM      3 CL   UNL     1       1.860   7.762  19.953  0.00  0.00    +0.000 Cl
ATOM      4  C   UNL     1       2.005   5.326  21.025  0.00  0.00    +0.000 A 
ATOM      5  C   UNL     1       2.300   3.963  21.050  0.00  0.00    +0.000 A 
ATOM      6  C   UNL     1       2.853   3.334  19.911  0.00  0.00    +0.000 A 
ATOM      7  N   UNL     1       3.194   1.990  19.803  0.00  0.00    +0.000 NA
ATOM      8  C   UNL     1       3.676   1.769  18.613  0.00  0.00    +0.000 A 
ATOM      9  S   UNL     1       3.745   3.074  17.542  0.00  0.00    +0.000 S 
ATOM     10  C   UNL     1       3.105   4.115  18.777  0.00  0.00    +0.000 A 
ENDROOT
BRANCH   5  11
ATOM     11  O   UNL     1       2.047   3.229  22.184  0.00  0.00    +0.000 OA
ATOM     12  H   UNL     1       1.432   3.713  22.758  0.00  0.00    +0.000 HD
ENDBRANCH   5  11
BRANCH   8  13
ATOM     13  O   UNL     1       4.093   0.556  18.304  0.00  0.00    +0.000 OA
ATOM     14  H   UNL     1       4.133   0.147  19.186  0.00  0.00    +0.000 HD
ENDBRANCH   8  13
BRANCH   1  15
ATOM     15  C   UNL     1       3.181   6.339  17.496  0.00  0.00    +0.000 C 
BRANCH  15  16
ATOM     16  C   UNL     1       4.417   7.230  17.719  0.00  0.00    +0.000 C 
BRANCH  16  17
ATOM     17  N   UNL     1       5.632   6.837  16.958  0.00  0.00    +0.000 NA
BRANCH  17  18
ATOM     18  C   UNL     1       6.576   6.112  17.843  0.00  0.00    +0.000 C 
BRANCH  18  20
ATOM     19  C   UNL     1       7.951   8.268  17.731  0.00  0.00    +0.000 C 
ATOM     20  C   UNL     1       7.852   6.852  18.278  0.00  0.00    +0.000 C 
ENDBRANCH  18  20
ENDBRANCH  17  18
BRANCH  17  21
ATOM     21  C   UNL     1       5.255   6.003  15.793  0.00  0.00    +0.000 C 
BRANCH  21  22
ATOM     22  C   UNL     1       6.280   4.938  15.362  0.00  0.00    +0.000 C 
ATOM     23  C   UNL     1       5.855   4.153  14.130  0.00  0.00    +0.000 C 
ENDBRANCH  21  22
ENDBRANCH  17  21
ENDBRANCH  16  17
ENDBRANCH  15  16
ENDBRANCH   1  15
TORSDOF 9
ENDMDL
MODEL 2
REMARK VINA RESULT:      -6.5      0.599      2.166
REMARK  Name = 
REMARK  11 active torsions:
REMARK  status: ('A' for Active; 'I' for Inactive)
REMARK    1  A    between atoms: C_1  and  C_2
REMARK    2  A    between atoms: C_2  and  C_3
REMARK    3  A    between atoms: C_3  and  N_4
REMARK    4  A    between atoms: N_4  and  C_5
REMARK    5  A    between atoms: N_4  and  C_8
REMARK    6  A    between atoms: C_5  and  C_6
REMARK    7  A    between atoms: C_6  and  C_7
REMARK    8  A    between atoms: C_8  and  C_9
REMARK    9  A    between atoms: C_9  and  C_10
REMARK   10  A    between atoms: C_14  and  O_15
REMARK   11  A    between atoms: C_18  and  O_19
REMARK                            x       y       z     vdW  Elec       q    Type
REMARK                         _______ _______ _______ _____ _____    ______ ____
ROOT
ATOM      1  C   UNL     1       2.676   5.569  18.804  0.00  0.00    +0.000 A 
ATOM      2  C   UNL     1       2.155   6.092  20.008  0.00  0.00    +0.000 A 
ATOM      3 CL   UNL     1       1.704   7.760  20.145  0.00  0.00    +0.000 Cl
ATOM      4  C   UNL     1       1.973   5.302  21.143  0.00  0.00    +0.000 A 
ATOM      5  C   UNL     1       2.303   3.948  21.115  0.00  0.00    +0.000 A 
ATOM      6  C   UNL     1       2.801   3.361  19.929  0.00  0.00    +0.000 A 
ATOM      7  N   UNL     1       3.168   2.030  19.767  0.00  0.00    +0.000 NA
ATOM      8  C   UNL     1       3.582   1.850  18.545  0.00  0.00    +0.000 A 
ATOM      9  S   UNL     1       3.555   3.181  17.506  0.00  0.00    +0.000 S 
ATOM     10  C   UNL     1       2.965   4.175  18.803  0.00  0.00    +0.000 A 
ENDROOT
BRANCH   5  11
ATOM     11  O   UNL     1       2.136   3.180  22.243  0.00  0.00    +0.000 OA
ATOM     12  H   UNL     1       2.496   2.292  22.092  0.00  0.00    +0.000 HD
ENDBRANCH   5  11
BRANCH   8  13
ATOM     13  O   UNL     1       4.009   0.656  18.181  0.00  0.00    +0.000 OA
ATOM     14  H   UNL     1       3.306   0.390  17.562  0.00  0.00    +0.000 HD
ENDBRANCH   8  13
BRANCH   1  15
ATOM     15  C   UNL     1       2.908   6.431  17.577  0.00  0.00    +0.000 C 
BRANCH  15  16
ATOM     16  C   UNL     1       4.249   7.185  17.656  0.00  0.00    +0.000 C 
BRANCH  16  17
ATOM     17  N   UNL     1       5.414   6.478  17.060  0.00  0.00    +0.000 NA
BRANCH  17  18
ATOM     18  C   UNL     1       5.238   6.353  15.593  0.00  0.00    +0.000 C 
BRANCH  18  20
ATOM     19  C   UNL     1       7.024   4.708  14.784  0.00  0.00    +0.000 C 
ATOM     20  C   UNL     1       5.539   4.987  14.955  0.00  0.00    +0.000 C 
ENDBRANCH  18  20
ENDBRANCH  17  18
BRANCH  17  21
ATOM     21  C   UNL     1       6.667   7.201  17.381  0.00  0.00    +0.000 C 
BRANCH  21  22
ATOM     22  C   UNL     1       7.752   6.387  18.108  0.00  0.00    +0.000 C 
ATOM     23  C   UNL     1       7.236   5.646  19.332  0.00  0.00    +0.000 C 
ENDBRANCH  21  22
ENDBRANCH  17  21
ENDBRANCH  16  17
ENDBRANCH  15  16
ENDBRANCH   1  15
TORSDOF 9
ENDMDL
MODEL 3
REMARK VINA RESULT:      -6.4      1.996      3.500
REMARK  Name = 
REMARK  11 active torsions:
REMARK  status: ('A' for Active; 'I' for Inactive)
REMARK    1  A    between atoms: C_1  and  C_2
REMARK    2  A    between atoms: C_2  and  C_3
REMARK    3  A    between atoms: C_3  and  N_4
REMARK    4  A    between atoms: N_4  and  C_5
REMARK    5  A    between atoms: N_4  and  C_8
REMARK    6  A    between atoms: C_5  and  C_6
REMARK    7  A    between atoms: C_6  and  C_7
REMARK    8  A    between atoms: C_8  and  C_9
REMARK    9  A    between atoms: C_9  and  C_10
REMARK   10  A    between atoms: C_14  and  O_15
REMARK   11  A    between atoms: C_18  and  O_19
REMARK                            x       y       z     vdW  Elec       q    Type
REMARK                         _______ _______ _______ _____ _____    ______ ____
ROOT
ATOM      1  C   UNL     1       3.421   5.092  18.074  0.00  0.00    +0.000 A 
ATOM      2  C   UNL     1       3.301   6.497  17.987  0.00  0.00    +0.000 A 
ATOM      3 CL   UNL     1       3.887   7.368  16.609  0.00  0.00    +0.000 Cl
ATOM      4  C   UNL     1       2.706   7.255  18.996  0.00  0.00    +0.000 A 
ATOM      5  C   UNL     1       2.201   6.632  20.136  0.00  0.00    +0.000 A 
ATOM      6  C   UNL     1       2.266   5.225  20.266  0.00  0.00    +0.000 A 
ATOM      7  N   UNL     1       1.803   4.481  21.346  0.00  0.00    +0.000 NA
ATOM      8  C   UNL     1       2.032   3.219  21.120  0.00  0.00    +0.000 A 
ATOM      9  S   UNL     1       2.766   2.806  19.656  0.00  0.00    +0.000 S 
ATOM     10  C   UNL     1       2.860   4.489  19.235  0.00  0.00    +0.000 A 
ENDROOT
BRANCH   5  11
ATOM     11  O   UNL     1       1.631   7.387  21.133  0.00  0.00    +0.000 OA
ATOM     12  H   UNL     1       1.121   6.815  21.728  0.00  0.00    +0.000 HD
ENDBRANCH   5  11
BRANCH   8  13
ATOM     13  O   UNL     1       1.697   2.331  22.037  0.00  0.00    +0.000 OA
ATOM     14  H   UNL     1       2.450   1.717  21.982  0.00  0.00    +0.000 HD
ENDBRANCH   8  13
BRANCH   1  15
ATOM     15  C   UNL     1       4.098   4.267  16.996  0.00  0.00    +0.000 C 
BRANCH  15  16
ATOM     16  C   UNL     1       5.481   3.762  17.449  0.00  0.00    +0.000 C 
BRANCH  16  17
ATOM     17  N   UNL     1       6.625   4.193  16.604  0.00  0.00    +0.000 NA
BRANCH  17  18
ATOM     18  C   UNL     1       6.138   4.990  15.452  0.00  0.00    +0.000 C 
BRANCH  18  20
ATOM     19  C   UNL     1       6.117   3.714  13.234  0.00  0.00    +0.000 C 
ATOM     20  C   UNL     1       6.815   4.758  14.091  0.00  0.00    +0.000 C 
ENDBRANCH  18  20
ENDBRANCH  17  18
BRANCH  17  21
ATOM     21  C   UNL     1       7.591   4.972  17.413  0.00  0.00    +0.000 C 
BRANCH  21  22
ATOM     22  C   UNL     1       7.033   6.225  18.114  0.00  0.00    +0.000 C 
ATOM     23  C   UNL     1       7.643   7.523  17.608  0.00  0.00    +0.000 C 
ENDBRANCH  21  22
ENDBRANCH  17  21
ENDBRANCH  16  17
ENDBRANCH  15  16
ENDBRANCH   1  15
TORSDOF 9
ENDMDL
MODEL 4
REMARK VINA RESULT:      -6.4      2.026      2.710
REMARK  Name = 
REMARK  11 active torsions:
REMARK  status: ('A' for Active; 'I' for Inactive)
REMARK    1  A    between atoms: C_1  and  C_2
REMARK    2  A    between atoms: C_2  and  C_3
REMARK    3  A    between atoms: C_3  and  N_4
REMARK    4  A    between atoms: N_4  and  C_5
REMARK    5  A    between atoms: N_4  and  C_8
REMARK    6  A    between atoms: C_5  and  C_6
REMARK    7  A    between atoms: C_6  and  C_7
REMARK    8  A    between atoms: C_8  and  C_9
REMARK    9  A    between atoms: C_9  and  C_10
REMARK   10  A    between atoms: C_14  and  O_15
REMARK   11  A    between atoms: C_18  and  O_19
REMARK                            x       y       z     vdW  Elec       q    Type
REMARK                         _______ _______ _______ _____ _____    ______ ____
ROOT
ATOM      1  C   UNL     1       3.365   4.974  18.047  0.00  0.00    +0.000 A 
ATOM      2  C   UNL     1       3.282   6.381  17.968  0.00  0.00    +0.000 A 
ATOM      3 CL   UNL     1       3.831   7.240  16.567  0.00  0.00    +0.000 Cl
ATOM      4  C   UNL     1       2.754   7.152  19.004  0.00  0.00    +0.000 A 
ATOM      5  C   UNL     1       2.281   6.540  20.164  0.00  0.00    +0.000 A 
ATOM      6  C   UNL     1       2.312   5.132  20.288  0.00  0.00    +0.000 A 
ATOM      7  N   UNL     1       1.876   4.398  21.386  0.00  0.00    +0.000 NA
ATOM      8  C   UNL     1       2.059   3.130  21.147  0.00  0.00    +0.000 A 
ATOM      9  S   UNL     1       2.715   2.702  19.651  0.00  0.00    +0.000 S 
ATOM     10  C   UNL     1       2.838   4.383  19.229  0.00  0.00    +0.000 A 
ENDROOT
BRANCH   5  11
ATOM     11  O   UNL     1       1.778   7.308  21.187  0.00  0.00    +0.000 OA
ATOM     12  H   UNL     1       1.845   8.248  20.955  0.00  0.00    +0.000 HD
ENDBRANCH   5  11
BRANCH   8  13
ATOM     13  O   UNL     1       1.738   2.250  22.076  0.00  0.00    +0.000 OA
ATOM     14  H   UNL     1       0.934   2.656  22.444  0.00  0.00    +0.000 HD
ENDBRANCH   8  13
BRANCH   1  15
ATOM     15  C   UNL     1       3.970   4.133  16.938  0.00  0.00    +0.000 C 
BRANCH  15  16
ATOM     16  C   UNL     1       5.509   4.141  16.992  0.00  0.00    +0.000 C 
BRANCH  16  17
ATOM     17  N   UNL     1       6.178   5.001  15.980  0.00  0.00    +0.000 NA
BRANCH  17  18
ATOM     18  C   UNL     1       7.296   5.749  16.605  0.00  0.00    +0.000 C 
BRANCH  18  20
ATOM     19  C   UNL     1       7.819   5.878  19.107  0.00  0.00    +0.000 C 
ATOM     20  C   UNL     1       7.020   6.449  17.946  0.00  0.00    +0.000 C 
ENDBRANCH  18  20
ENDBRANCH  17  18
BRANCH  17  21
ATOM     21  C   UNL     1       6.663   4.175  14.850  0.00  0.00    +0.000 C 
BRANCH  21  22
ATOM     22  C   UNL     1       5.674   3.964  13.690  0.00  0.00    +0.000 C 
ATOM     23  C   UNL     1       6.342   3.514  12.399  0.00  0.00    +0.000 C 
ENDBRANCH  21  22
ENDBRANCH  17  21
ENDBRANCH  16  17
ENDBRANCH  15  16
ENDBRANCH   1  15
TORSDOF 9
ENDMDL
MODEL 5
REMARK VINA RESULT:      -6.3      3.176      5.662
REMARK  Name = 
REMARK  11 active torsions:
REMARK  status: ('A' for Active; 'I' for Inactive)
REMARK    1  A    between atoms: C_1  and  C_2
REMARK    2  A    between atoms: C_2  and  C_3
REMARK    3  A    between atoms: C_3  and  N_4
REMARK    4  A    between atoms: N_4  and  C_5
REMARK    5  A    between atoms: N_4  and  C_8
REMARK    6  A    between atoms: C_5  and  C_6
REMARK    7  A    between atoms: C_6  and  C_7
REMARK    8  A    between atoms: C_8  and  C_9
REMARK    9  A    between atoms: C_9  and  C_10
REMARK   10  A    between atoms: C_14  and  O_15
REMARK   11  A    between atoms: C_18  and  O_19
REMARK                            x       y       z     vdW  Elec       q    Type
REMARK                         _______ _______ _______ _____ _____    ______ ____
ROOT
ATOM      1  C   UNL     1       5.221   3.841  17.566  0.00  0.00    +0.000 A 
ATOM      2  C   UNL     1       5.477   4.362  18.853  0.00  0.00    +0.000 A 
ATOM      3 CL   UNL     1       4.648   3.761  20.251  0.00  0.00    +0.000 Cl
ATOM      4  C   UNL     1       6.407   5.379  19.070  0.00  0.00    +0.000 A 
ATOM      5  C   UNL     1       7.125   5.914  18.002  0.00  0.00    +0.000 A 
ATOM      6  C   UNL     1       6.932   5.412  16.694  0.00  0.00    +0.000 A 
ATOM      7  N   UNL     1       7.578   5.854  15.544  0.00  0.00    +0.000 NA
ATOM      8  C   UNL     1       7.150   5.164  14.526  0.00  0.00    +0.000 A 
ATOM      9  S   UNL     1       6.006   3.958  14.822  0.00  0.00    +0.000 S 
ATOM     10  C   UNL     1       6.000   4.385  16.507  0.00  0.00    +0.000 A 
ENDROOT
BRANCH   5  11
ATOM     11  O   UNL     1       8.027   6.927  18.221  0.00  0.00    +0.000 OA
ATOM     12  H   UNL     1       8.604   7.026  17.448  0.00  0.00    +0.000 HD
ENDBRANCH   5  11
BRANCH   8  13
ATOM     13  O   UNL     1       7.614   5.442  13.322  0.00  0.00    +0.000 OA
ATOM     14  H   UNL     1       6.794   5.413  12.798  0.00  0.00    +0.000 HD
ENDBRANCH   8  13
BRANCH   1  15
ATOM     15  C   UNL     1       4.186   2.759  17.320  0.00  0.00    +0.000 C 
BRANCH  15  16
ATOM     16  C   UNL     1       2.775   3.350  17.144  0.00  0.00    +0.000 C 
BRANCH  16  17
ATOM     17  N   UNL     1       2.237   4.079  18.323  0.00  0.00    +0.000 NA
BRANCH  17  18
ATOM     18  C   UNL     1       1.849   5.457  17.937  0.00  0.00    +0.000 C 
BRANCH  18  20
ATOM     19  C   UNL     1       3.555   7.337  17.613  0.00  0.00    +0.000 C 
ATOM     20  C   UNL     1       2.625   6.619  18.579  0.00  0.00    +0.000 C 
ENDBRANCH  18  20
ENDBRANCH  17  18
BRANCH  17  21
ATOM     21  C   UNL     1       1.082   3.345  18.891  0.00  0.00    +0.000 C 
BRANCH  21  22
ATOM     22  C   UNL     1       0.734   3.658  20.357  0.00  0.00    +0.000 C 
ATOM     23  C   UNL     1       1.419   2.734  21.352  0.00  0.00    +0.000 C 
ENDBRANCH  21  22
ENDBRANCH  17  21
ENDBRANCH  16  17
ENDBRANCH  15  16
ENDBRANCH   1  15
TORSDOF 9
ENDMDL
MODEL 6
REMARK VINA RESULT:      -6.3      0.829      2.663
REMARK  Name = 
REMARK  11 active torsions:
REMARK  status: ('A' for Active; 'I' for Inactive)
REMARK    1  A    between atoms: C_1  and  C_2
REMARK    2  A    between atoms: C_2  and  C_3
REMARK    3  A    between atoms: C_3  and  N_4
REMARK    4  A    between atoms: N_4  and  C_5
REMARK    5  A    between atoms: N_4  and  C_8
REMARK    6  A    between atoms: C_5  and  C_6
REMARK    7  A    between atoms: C_6  and  C_7
REMARK    8  A    between atoms: C_8  and  C_9
REMARK    9  A    between atoms: C_9  and  C_10
REMARK   10  A    between atoms: C_14  and  O_15
REMARK   11  A    between atoms: C_18  and  O_19
REMARK                            x       y       z     vdW  Elec       q    Type
REMARK                         _______ _______ _______ _____ _____    ______ ____
ROOT
ATOM      1  C   UNL     1       3.316   5.449  18.850  0.00  0.00    +0.000 A 
ATOM      2  C   UNL     1       2.349   6.009  19.713  0.00  0.00    +0.000 A 
ATOM      3 CL   UNL     1       2.147   7.725  19.848  0.00  0.00    +0.000 Cl
ATOM      4  C   UNL     1       1.506   5.219  20.496  0.00  0.00    +0.000 A 
ATOM      5  C   UNL     1       1.597   3.829  20.441  0.00  0.00    +0.000 A 
ATOM      6  C   UNL     1       2.526   3.211  19.574  0.00  0.00    +0.000 A 
ATOM      7  N   UNL     1       2.720   1.842  19.423  0.00  0.00    +0.000 NA
ATOM      8  C   UNL     1       3.657   1.640  18.541  0.00  0.00    +0.000 A 
ATOM      9  S   UNL     1       4.354   2.997  17.816  0.00  0.00    +0.000 S 
ATOM     10  C   UNL     1       3.352   4.027  18.793  0.00  0.00    +0.000 A 
ENDROOT
BRANCH   5  11
ATOM     11  O   UNL     1       0.775   3.058  21.228  0.00  0.00    +0.000 OA
ATOM     12  H   UNL     1       0.202   3.629  21.763  0.00  0.00    +0.000 HD
ENDBRANCH   5  11
BRANCH   8  13
ATOM     13  O   UNL     1       4.023   0.403  18.265  0.00  0.00    +0.000 OA
ATOM     14  H   UNL     1       3.915   0.392  17.297  0.00  0.00    +0.000 HD
ENDBRANCH   8  13
BRANCH   1  15
ATOM     15  C   UNL     1       4.258   6.303  18.023  0.00  0.00    +0.000 C 
BRANCH  15  16
ATOM     16  C   UNL     1       5.729   6.081  18.422  0.00  0.00    +0.000 C 
BRANCH  16  17
ATOM     17  N   UNL     1       6.719   6.248  17.326  0.00  0.00    +0.000 NA
BRANCH  17  18
ATOM     18  C   UNL     1       6.133   5.807  16.037  0.00  0.00    +0.000 C 
BRANCH  18  20
ATOM     19  C   UNL     1       5.996   4.099  14.136  0.00  0.00    +0.000 C 
ATOM     20  C   UNL     1       6.778   4.597  15.341  0.00  0.00    +0.000 C 
ENDBRANCH  18  20
ENDBRANCH  17  18
BRANCH  17  21
ATOM     21  C   UNL     1       7.159   7.661  17.249  0.00  0.00    +0.000 C 
BRANCH  21  22
ATOM     22  C   UNL     1       8.223   8.097  18.273  0.00  0.00    +0.000 C 
ATOM     23  C   UNL     1       8.541   9.583  18.219  0.00  0.00    +0.000 C 
ENDBRANCH  21  22
ENDBRANCH  17  21
ENDBRANCH  16  17
ENDBRANCH  15  16
ENDBRANCH   1  15
TORSDOF 9
ENDMDL
MODEL 7
REMARK VINA RESULT:      -6.2      0.807      1.029
REMARK  Name = 
REMARK  11 active torsions:
REMARK  status: ('A' for Active; 'I' for Inactive)
REMARK    1  A    between atoms: C_1  and  C_2
REMARK    2  A    between atoms: C_2  and  C_3
REMARK    3  A    between atoms: C_3  and  N_4
REMARK    4  A    between atoms: N_4  and  C_5
REMARK    5  A    between atoms: N_4  and  C_8
REMARK    6  A    between atoms: C_5  and  C_6
REMARK    7  A    between atoms: C_6  and  C_7
REMARK    8  A    between atoms: C_8  and  C_9
REMARK    9  A    between atoms: C_9  and  C_10
REMARK   10  A    between atoms: C_14  and  O_15
REMARK   11  A    between atoms: C_18  and  O_19
REMARK                            x       y       z     vdW  Elec       q    Type
REMARK                         _______ _______ _______ _____ _____    ______ ____
ROOT
ATOM      1  C   UNL     1       3.118   5.593  18.672  0.00  0.00    +0.000 A 
ATOM      2  C   UNL     1       2.249   6.139  19.642  0.00  0.00    +0.000 A 
ATOM      3 CL   UNL     1       1.984   7.848  19.754  0.00  0.00    +0.000 Cl
ATOM      4  C   UNL     1       1.558   5.340  20.553  0.00  0.00    +0.000 A 
ATOM      5  C   UNL     1       1.707   3.955  20.525  0.00  0.00    +0.000 A 
ATOM      6  C   UNL     1       2.542   3.349  19.558  0.00  0.00    +0.000 A 
ATOM      7  N   UNL     1       2.779   1.985  19.422  0.00  0.00    +0.000 NA
ATOM      8  C   UNL     1       3.599   1.795  18.427  0.00  0.00    +0.000 A 
ATOM      9  S   UNL     1       4.126   3.155  17.577  0.00  0.00    +0.000 S 
ATOM     10  C   UNL     1       3.215   4.173  18.651  0.00  0.00    +0.000 A 
ENDROOT
BRANCH   5  11
ATOM     11  O   UNL     1       1.036   3.176  21.437  0.00  0.00    +0.000 OA
ATOM     12  H   UNL     1       0.720   2.366  21.007  0.00  0.00    +0.000 HD
ENDBRANCH   5  11
BRANCH   8  13
ATOM     13  O   UNL     1       3.985   0.567  18.139  0.00  0.00    +0.000 OA
ATOM     14  H   UNL     1       3.250   0.272  17.571  0.00  0.00    +0.000 HD
ENDBRANCH   8  13
BRANCH   1  15
ATOM     15  C   UNL     1       3.898   6.460  17.701  0.00  0.00    +0.000 C 
BRANCH  15  16
ATOM     16  C   UNL     1       5.407   6.449  18.013  0.00  0.00    +0.000 C 
BRANCH  16  17
ATOM     17  N   UNL     1       6.296   6.804  16.876  0.00  0.00    +0.000 NA
BRANCH  17  18
ATOM     18  C   UNL     1       6.934   8.120  17.118  0.00  0.00    +0.000 C 
BRANCH  18  20
ATOM     19  C   UNL     1       8.630   9.566  18.375  0.00  0.00    +0.000 C 
ATOM     20  C   UNL     1       8.143   8.159  18.067  0.00  0.00    +0.000 C 
ENDBRANCH  18  20
ENDBRANCH  17  18
BRANCH  17  21
ATOM     21  C   UNL     1       7.319   5.750  16.681  0.00  0.00    +0.000 C 
BRANCH  21  22
ATOM     22  C   UNL     1       6.928   4.589  15.748  0.00  0.00    +0.000 C 
ATOM     23  C   UNL     1       5.952   4.994  14.655  0.00  0.00    +0.000 C 
ENDBRANCH  21  22
ENDBRANCH  17  21
ENDBRANCH  16  17
ENDBRANCH  15  16
ENDBRANCH   1  15
TORSDOF 9
ENDMDL
MODEL 8
REMARK VINA RESULT:      -6.2      2.609      3.455
REMARK  Name = 
REMARK  11 active torsions:
REMARK  status: ('A' for Active; 'I' for Inactive)
REMARK    1  A    between atoms: C_1  and  C_2
REMARK    2  A    between atoms: C_2  and  C_3
REMARK    3  A    between atoms: C_3  and  N_4
REMARK    4  A    between atoms: N_4  and  C_5
REMARK    5  A    between atoms: N_4  and  C_8
REMARK    6  A    between atoms: C_5  and  C_6
REMARK    7  A    between atoms: C_6  and  C_7
REMARK    8  A    between atoms: C_8  and  C_9
REMARK    9  A    between atoms: C_9  and  C_10
REMARK   10  A    between atoms: C_14  and  O_15
REMARK   11  A    between atoms: C_18  and  O_19
REMARK                            x       y       z     vdW  Elec       q    Type
REMARK                         _______ _______ _______ _____ _____    ______ ____
ROOT
ATOM      1  C   UNL     1       3.312   3.724  18.355  0.00  0.00    +0.000 A 
ATOM      2  C   UNL     1       3.264   2.480  19.024  0.00  0.00    +0.000 A 
ATOM      3 CL   UNL     1       3.878   1.037  18.287  0.00  0.00    +0.000 Cl
ATOM      4  C   UNL     1       2.727   2.346  20.304  0.00  0.00    +0.000 A 
ATOM      5  C   UNL     1       2.219   3.460  20.972  0.00  0.00    +0.000 A 
ATOM      6  C   UNL     1       2.266   4.736  20.365  0.00  0.00    +0.000 A 
ATOM      7  N   UNL     1       1.796   5.922  20.917  0.00  0.00    +0.000 NA
ATOM      8  C   UNL     1       2.005   6.894  20.075  0.00  0.00    +0.000 A 
ATOM      9  S   UNL     1       2.770   6.515  18.618  0.00  0.00    +0.000 S 
ATOM     10  C   UNL     1       2.818   4.842  19.084  0.00  0.00    +0.000 A 
ENDROOT
BRANCH   5  11
ATOM     11  O   UNL     1       1.677   3.317  22.227  0.00  0.00    +0.000 OA
ATOM     12  H   UNL     1       1.366   4.177  22.550  0.00  0.00    +0.000 HD
ENDBRANCH   5  11
BRANCH   8  13
ATOM     13  O   UNL     1       1.605   8.112  20.388  0.00  0.00    +0.000 OA
ATOM     14  H   UNL     1       0.695   7.935  20.686  0.00  0.00    +0.000 HD
ENDBRANCH   8  13
BRANCH   1  15
ATOM     15  C   UNL     1       3.862   3.869  16.949  0.00  0.00    +0.000 C 
BRANCH  15  16
ATOM     16  C   UNL     1       5.372   4.174  16.958  0.00  0.00    +0.000 C 
BRANCH  16  17
ATOM     17  N   UNL     1       5.780   5.393  16.212  0.00  0.00    +0.000 NA
BRANCH  17  18
ATOM     18  C   UNL     1       7.189   5.736  16.525  0.00  0.00    +0.000 C 
BRANCH  18  20
ATOM     19  C   UNL     1       7.854   6.178  18.956  0.00  0.00    +0.000 C 
ATOM     20  C   UNL     1       7.437   6.782  17.625  0.00  0.00    +0.000 C 
ENDBRANCH  18  20
ENDBRANCH  17  18
BRANCH  17  21
ATOM     21  C   UNL     1       5.600   5.183  14.756  0.00  0.00    +0.000 C 
BRANCH  21  22
ATOM     22  C   UNL     1       6.571   4.192  14.089  0.00  0.00    +0.000 C 
ATOM     23  C   UNL     1       6.033   3.594  12.798  0.00  0.00    +0.000 C 
ENDBRANCH  21  22
ENDBRANCH  17  21
ENDBRANCH  16  17
ENDBRANCH  15  16
ENDBRANCH   1  15
TORSDOF 9
ENDMDL
MODEL 9
REMARK VINA RESULT:      -6.2      3.279      5.916
REMARK  Name = 
REMARK  11 active torsions:
REMARK  status: ('A' for Active; 'I' for Inactive)
REMARK    1  A    between atoms: C_1  and  C_2
REMARK    2  A    between atoms: C_2  and  C_3
REMARK    3  A    between atoms: C_3  and  N_4
REMARK    4  A    between atoms: N_4  and  C_5
REMARK    5  A    between atoms: N_4  and  C_8
REMARK    6  A    between atoms: C_5  and  C_6
REMARK    7  A    between atoms: C_6  and  C_7
REMARK    8  A    between atoms: C_8  and  C_9
REMARK    9  A    between atoms: C_9  and  C_10
REMARK   10  A    between atoms: C_14  and  O_15
REMARK   11  A    between atoms: C_18  and  O_19
REMARK                            x       y       z     vdW  Elec       q    Type
REMARK                         _______ _______ _______ _____ _____    ______ ____
ROOT
ATOM      1  C   UNL     1       5.185   4.161  17.275  0.00  0.00    +0.000 A 
ATOM      2  C   UNL     1       5.532   5.006  18.352  0.00  0.00    +0.000 A 
ATOM      3 CL   UNL     1       4.814   4.812  19.917  0.00  0.00    +0.000 Cl
ATOM      4  C   UNL     1       6.467   6.032  18.219  0.00  0.00    +0.000 A 
ATOM      5  C   UNL     1       7.099   6.252  16.995  0.00  0.00    +0.000 A 
ATOM      6  C   UNL     1       6.813   5.419  15.889  0.00  0.00    +0.000 A 
ATOM      7  N   UNL     1       7.368   5.528  14.618  0.00  0.00    +0.000 NA
ATOM      8  C   UNL     1       6.870   4.595  13.857  0.00  0.00    +0.000 A 
ATOM      9  S   UNL     1       5.761   3.527  14.551  0.00  0.00    +0.000 S 
ATOM     10  C   UNL     1       5.878   4.391  16.054  0.00  0.00    +0.000 A 
ENDROOT
BRANCH   5  11
ATOM     11  O   UNL     1       8.006   7.276  16.867  0.00  0.00    +0.000 OA
ATOM     12  H   UNL     1       8.711   7.015  16.253  0.00  0.00    +0.000 HD
ENDBRANCH   5  11
BRANCH   8  13
ATOM     13  O   UNL     1       7.241   4.533  12.592  0.00  0.00    +0.000 OA
ATOM     14  H   UNL     1       7.953   3.871  12.642  0.00  0.00    +0.000 HD
ENDBRANCH   8  13
BRANCH   1  15
ATOM     15  C   UNL     1       4.144   3.066  17.406  0.00  0.00    +0.000 C 
BRANCH  15  16
ATOM     16  C   UNL     1       2.741   3.561  17.005  0.00  0.00    +0.000 C 
BRANCH  16  17
ATOM     17  N   UNL     1       1.732   3.569  18.097  0.00  0.00    +0.000 NA
BRANCH  17  18
ATOM     18  C   UNL     1       2.074   2.547  19.116  0.00  0.00    +0.000 C 
BRANCH  18  20
ATOM     19  C   UNL     1       2.356   2.742  21.651  0.00  0.00    +0.000 C 
ATOM     20  C   UNL     1       1.384   2.652  20.486  0.00  0.00    +0.000 C 
ENDBRANCH  18  20
ENDBRANCH  17  18
BRANCH  17  21
ATOM     21  C   UNL     1       1.653   4.917  18.708  0.00  0.00    +0.000 C 
BRANCH  21  22
ATOM     22  C   UNL     1       2.125   6.089  17.828  0.00  0.00    +0.000 C 
ATOM     23  C   UNL     1       2.534   7.318  18.625  0.00  0.00    +0.000 C 
ENDBRANCH  21  22
ENDBRANCH  17  21
ENDBRANCH  16  17
ENDBRANCH  15  16
ENDBRANCH   1  15
TORSDOF 9
ENDMDL
