MODEL 1
REMARK VINA RESULT:      -7.4      0.000      0.000
REMARK  Name = 
REMARK  4 active torsions:
REMARK  status: ('A' for Active; 'I' for Inactive)
REMARK    1  A    between atoms: C_2  and  C_5
REMARK    2  A    between atoms: N_3  and  O_4
REMARK    3  A    between atoms: C_8  and  N_9
REMARK    4  A    between atoms: C_10  and  C_12
REMARK                            x       y       z     vdW  Elec       q    Type
REMARK                         _______ _______ _______ _____ _____    ______ ____
ROOT
ATOM      1  C   UNL     1       5.268   5.215  16.102  0.00  0.00    +0.000 A 
ATOM      2  C   UNL     1       5.394   6.591  16.285  0.00  0.00    +0.000 A 
ATOM      3  C   UNL     1       4.523   7.264  17.146  0.00  0.00    +0.000 A 
ATOM      4  C   UNL     1       3.533   6.573  17.851  0.00  0.00    +0.000 A 
ATOM      5  C   UNL     1       3.445   5.183  17.702  0.00  0.00    +0.000 A 
ATOM      6  C   UNL     1       4.299   4.505  16.819  0.00  0.00    +0.000 A 
ENDROOT
BRANCH   1   8
ATOM      7  O   UNL     1       7.417   4.576  15.332  0.00  0.00    +0.000 OA
ATOM      8  C   UNL     1       6.200   4.533  15.171  0.00  0.00    +0.000 C 
ATOM      9  N   UNL     1       5.621   3.897  14.095  0.00  0.00    +0.000 N 
ATOM     10  H   UNL     1       4.712   4.176  13.740  0.00  0.00    +0.000 HD
BRANCH   9  11
ATOM     11  O   UNL     1       6.537   3.401  13.136  0.00  0.00    +0.000 OA
ATOM     12  H   UNL     1       6.715   4.199  12.588  0.00  0.00    +0.000 HD
ENDBRANCH   9  11
ENDBRANCH   1   8
BRANCH   4  13
ATOM     13  N   UNL     1       2.632   7.204  18.739  0.00  0.00    +0.000 N 
ATOM     14  C   UNL     1       1.992   8.411  18.508  0.00  0.00    +0.000 C 
ATOM     15  O   UNL     1       2.024   9.045  17.458  0.00  0.00    +0.000 OA
ATOM     16  H   UNL     1       2.440   6.709  19.598  0.00  0.00    +0.000 HD
BRANCH  14  17
ATOM     17  C   UNL     1       1.202   8.988  19.634  0.00  0.00    +0.000 A 
ATOM     18  C   UNL     1       1.327   8.362  20.888  0.00  0.00    +0.000 A 
ATOM     19  C   UNL     1       0.617   8.827  21.993  0.00  0.00    +0.000 A 
ATOM     20  C   UNL     1      -0.218   9.926  21.849  0.00  0.00    +0.000 A 
ATOM     21  F   UNL     1      -0.910  10.371  22.905  0.00  0.00    +0.000 F 
ATOM     22  C   UNL     1      -0.344  10.573  20.623  0.00  0.00    +0.000 A 
ATOM     23  C   UNL     1       0.370  10.109  19.509  0.00  0.00    +0.000 A 
ENDBRANCH  14  17
ENDBRANCH   4  13
TORSDOF 4
ENDMDL
MODEL 2
REMARK VINA RESULT:      -7.3      0.277      1.115
REMARK  Name = 
REMARK  4 active torsions:
REMARK  status: ('A' for Active; 'I' for Inactive)
REMARK    1  A    between atoms: C_2  and  C_5
REMARK    2  A    between atoms: N_3  and  O_4
REMARK    3  A    between atoms: C_8  and  N_9
REMARK    4  A    between atoms: C_10  and  C_12
REMARK                            x       y       z     vdW  Elec       q    Type
REMARK                         _______ _______ _______ _____ _____    ______ ____
ROOT
ATOM      1  C   UNL     1       5.435   5.111  15.942  0.00  0.00    +0.000 A 
ATOM      2  C   UNL     1       5.584   6.472  16.204  0.00  0.00    +0.000 A 
ATOM      3  C   UNL     1       4.724   7.110  17.101  0.00  0.00    +0.000 A 
ATOM      4  C   UNL     1       3.720   6.397  17.764  0.00  0.00    +0.000 A 
ATOM      5  C   UNL     1       3.608   5.020  17.535  0.00  0.00    +0.000 A 
ATOM      6  C   UNL     1       4.452   4.379  16.616  0.00  0.00    +0.000 A 
ENDROOT
BRANCH   1   8
ATOM      7  O   UNL     1       7.558   4.722  14.963  0.00  0.00    +0.000 OA
ATOM      8  C   UNL     1       6.357   4.467  14.975  0.00  0.00    +0.000 C 
ATOM      9  N   UNL     1       5.776   3.612  14.065  0.00  0.00    +0.000 N 
ATOM     10  H   UNL     1       4.798   3.695  13.807  0.00  0.00    +0.000 HD
BRANCH   9  11
ATOM     11  O   UNL     1       6.647   3.144  13.051  0.00  0.00    +0.000 OA
ATOM     12  H   UNL     1       6.026   2.968  12.309  0.00  0.00    +0.000 HD
ENDBRANCH   9  11
ENDBRANCH   1   8
BRANCH   4  13
ATOM     13  N   UNL     1       2.827   6.992  18.685  0.00  0.00    +0.000 N 
ATOM     14  C   UNL     1       2.141   8.178  18.484  0.00  0.00    +0.000 C 
ATOM     15  O   UNL     1       2.117   8.820  17.438  0.00  0.00    +0.000 OA
ATOM     16  H   UNL     1       2.680   6.485  19.546  0.00  0.00    +0.000 HD
BRANCH  14  17
ATOM     17  C   UNL     1       1.369   8.722  19.639  0.00  0.00    +0.000 A 
ATOM     18  C   UNL     1       0.566   9.851  19.394  0.00  0.00    +0.000 A 
ATOM     19  C   UNL     1      -0.179  10.433  20.418  0.00  0.00    +0.000 A 
ATOM     20  C   UNL     1      -0.129   9.883  21.690  0.00  0.00    +0.000 A 
ATOM     21  F   UNL     1      -0.836  10.443  22.680  0.00  0.00    +0.000 F 
ATOM     22  C   UNL     1       0.644   8.755  21.952  0.00  0.00    +0.000 A 
ATOM     23  C   UNL     1       1.394   8.166  20.925  0.00  0.00    +0.000 A 
ENDBRANCH  14  17
ENDBRANCH   4  13
TORSDOF 4
ENDMDL
MODEL 3
REMARK VINA RESULT:      -7.2      0.259      1.107
REMARK  Name = 
REMARK  4 active torsions:
REMARK  status: ('A' for Active; 'I' for Inactive)
REMARK    1  A    between atoms: C_2  and  C_5
REMARK    2  A    between atoms: N_3  and  O_4
REMARK    3  A    between atoms: C_8  and  N_9
REMARK    4  A    between atoms: C_10  and  C_12
REMARK                            x       y       z     vdW  Elec       q    Type
REMARK                         _______ _______ _______ _____ _____    ______ ____
ROOT
ATOM      1  C   UNL     1       5.403   5.328  15.992  0.00  0.00    +0.000 A 
ATOM      2  C   UNL     1       4.436   4.532  16.604  0.00  0.00    +0.000 A 
ATOM      3  C   UNL     1       3.541   5.097  17.517  0.00  0.00    +0.000 A 
ATOM      4  C   UNL     1       3.585   6.462  17.814  0.00  0.00    +0.000 A 
ATOM      5  C   UNL     1       4.526   7.266  17.158  0.00  0.00    +0.000 A 
ATOM      6  C   UNL     1       5.443   6.700  16.260  0.00  0.00    +0.000 A 
ENDROOT
BRANCH   1   8
ATOM      7  O   UNL     1       7.486   5.124  14.880  0.00  0.00    +0.000 OA
ATOM      8  C   UNL     1       6.346   4.695  15.038  0.00  0.00    +0.000 C 
ATOM      9  N   UNL     1       5.848   3.638  14.308  0.00  0.00    +0.000 N 
ATOM     10  H   UNL     1       4.854   3.534  14.134  0.00  0.00    +0.000 HD
BRANCH   9  11
ATOM     11  O   UNL     1       6.709   3.163  13.289  0.00  0.00    +0.000 OA
ATOM     12  H   UNL     1       6.224   3.419  12.472  0.00  0.00    +0.000 HD
ENDBRANCH   9  11
ENDBRANCH   1   8
BRANCH   4  13
ATOM     13  N   UNL     1       2.700   7.085  18.724  0.00  0.00    +0.000 N 
ATOM     14  C   UNL     1       2.033   8.279  18.503  0.00  0.00    +0.000 C 
ATOM     15  O   UNL     1       2.022   8.905  17.448  0.00  0.00    +0.000 OA
ATOM     16  H   UNL     1       2.543   6.594  19.592  0.00  0.00    +0.000 HD
BRANCH  14  17
ATOM     17  C   UNL     1       1.268   8.853  19.649  0.00  0.00    +0.000 A 
ATOM     18  C   UNL     1       1.472   8.265  20.910  0.00  0.00    +0.000 A 
ATOM     19  C   UNL     1       0.790   8.728  22.033  0.00  0.00    +0.000 A 
ATOM     20  C   UNL     1      -0.095   9.788  21.899  0.00  0.00    +0.000 A 
ATOM     21  F   UNL     1      -0.760  10.233  22.974  0.00  0.00    +0.000 F 
ATOM     22  C   UNL     1      -0.299  10.399  20.665  0.00  0.00    +0.000 A 
ATOM     23  C   UNL     1       0.386   9.936  19.533  0.00  0.00    +0.000 A 
ENDBRANCH  14  17
ENDBRANCH   4  13
TORSDOF 4
ENDMDL
MODEL 4
REMARK VINA RESULT:      -7.2      0.245      1.541
REMARK  Name = 
REMARK  4 active torsions:
REMARK  status: ('A' for Active; 'I' for Inactive)
REMARK    1  A    between atoms: C_2  and  C_5
REMARK    2  A    between atoms: N_3  and  O_4
REMARK    3  A    between atoms: C_8  and  N_9
REMARK    4  A    between atoms: C_10  and  C_12
REMARK                            x       y       z     vdW  Elec       q    Type
REMARK                         _______ _______ _______ _____ _____    ______ ____
ROOT
ATOM      1  C   UNL     1       5.304   5.242  16.221  0.00  0.00    +0.000 A 
ATOM      2  C   UNL     1       4.252   4.504  16.762  0.00  0.00    +0.000 A 
ATOM      3  C   UNL     1       3.385   5.094  17.685  0.00  0.00    +0.000 A 
ATOM      4  C   UNL     1       3.542   6.431  18.064  0.00  0.00    +0.000 A 
ATOM      5  C   UNL     1       4.570   7.181  17.480  0.00  0.00    +0.000 A 
ATOM      6  C   UNL     1       5.459   6.587  16.572  0.00  0.00    +0.000 A 
ENDROOT
BRANCH   1   8
ATOM      7  O   UNL     1       7.434   4.648  15.370  0.00  0.00    +0.000 OA
ATOM      8  C   UNL     1       6.213   4.582  15.254  0.00  0.00    +0.000 C 
ATOM      9  N   UNL     1       5.608   3.940  14.196  0.00  0.00    +0.000 N 
ATOM     10  H   UNL     1       4.682   4.203  13.875  0.00  0.00    +0.000 HD
BRANCH   9  11
ATOM     11  O   UNL     1       6.497   3.466  13.202  0.00  0.00    +0.000 OA
ATOM     12  H   UNL     1       6.314   4.077  12.451  0.00  0.00    +0.000 HD
ENDBRANCH   9  11
ENDBRANCH   1   8
BRANCH   4  13
ATOM     13  N   UNL     1       2.691   7.078  18.989  0.00  0.00    +0.000 N 
ATOM     14  C   UNL     1       1.956   8.225  18.734  0.00  0.00    +0.000 C 
ATOM     15  O   UNL     1       1.848   8.775  17.643  0.00  0.00    +0.000 OA
ATOM     16  H   UNL     1       2.613   6.643  19.896  0.00  0.00    +0.000 HD
BRANCH  14  17
ATOM     17  C   UNL     1       1.241   8.845  19.888  0.00  0.00    +0.000 A 
ATOM     18  C   UNL     1       0.425   9.956  19.609  0.00  0.00    +0.000 A 
ATOM     19  C   UNL     1      -0.270  10.606  20.627  0.00  0.00    +0.000 A 
ATOM     20  C   UNL     1      -0.155  10.141  21.930  0.00  0.00    +0.000 A 
ATOM     21  F   UNL     1      -0.814  10.766  22.914  0.00  0.00    +0.000 F 
ATOM     22  C   UNL     1       0.632   9.032  22.227  0.00  0.00    +0.000 A 
ATOM     23  C   UNL     1       1.332   8.375  21.205  0.00  0.00    +0.000 A 
ENDBRANCH  14  17
ENDBRANCH   4  13
TORSDOF 4
ENDMDL
MODEL 5
REMARK VINA RESULT:      -7.0      6.353      7.789
REMARK  Name = 
REMARK  4 active torsions:
REMARK  status: ('A' for Active; 'I' for Inactive)
REMARK    1  A    between atoms: C_2  and  C_5
REMARK    2  A    between atoms: N_3  and  O_4
REMARK    3  A    between atoms: C_8  and  N_9
REMARK    4  A    between atoms: C_10  and  C_12
REMARK                            x       y       z     vdW  Elec       q    Type
REMARK                         _______ _______ _______ _____ _____    ______ ____
ROOT
ATOM      1  C   UNL     1       6.151   5.767  18.047  0.00  0.00    +0.000 A 
ATOM      2  C   UNL     1       7.366   5.894  18.718  0.00  0.00    +0.000 A 
ATOM      3  C   UNL     1       8.131   7.053  18.563  0.00  0.00    +0.000 A 
ATOM      4  C   UNL     1       7.687   8.105  17.757  0.00  0.00    +0.000 A 
ATOM      5  C   UNL     1       6.442   7.992  17.126  0.00  0.00    +0.000 A 
ATOM      6  C   UNL     1       5.681   6.821  17.256  0.00  0.00    +0.000 A 
ENDROOT
BRANCH   1   8
ATOM      7  O   UNL     1       4.356   4.296  17.563  0.00  0.00    +0.000 OA
ATOM      8  C   UNL     1       5.368   4.519  18.222  0.00  0.00    +0.000 C 
ATOM      9  N   UNL     1       5.815   3.658  19.199  0.00  0.00    +0.000 N 
ATOM     10  H   UNL     1       6.369   3.986  19.984  0.00  0.00    +0.000 HD
BRANCH   9  11
ATOM     11  O   UNL     1       4.958   2.561  19.461  0.00  0.00    +0.000 OA
ATOM     12  H   UNL     1       4.893   2.133  18.578  0.00  0.00    +0.000 HD
ENDBRANCH   9  11
ENDBRANCH   1   8
BRANCH   4  13
ATOM     13  N   UNL     1       8.419   9.300  17.571  0.00  0.00    +0.000 N 
ATOM     14  C   UNL     1       8.954  10.078  18.585  0.00  0.00    +0.000 C 
ATOM     15  O   UNL     1       8.971   9.784  19.776  0.00  0.00    +0.000 OA
ATOM     16  H   UNL     1       8.567   9.582  16.613  0.00  0.00    +0.000 HD
BRANCH  14  17
ATOM     17  C   UNL     1       9.555  11.387  18.194  0.00  0.00    +0.000 A 
ATOM     18  C   UNL     1      10.919  11.383  17.847  0.00  0.00    +0.000 A 
ATOM     19  C   UNL     1      11.566  12.562  17.481  0.00  0.00    +0.000 A 
ATOM     20  C   UNL     1      10.848  13.749  17.454  0.00  0.00    +0.000 A 
ATOM     21  F   UNL     1      11.466  14.886  17.111  0.00  0.00    +0.000 F 
ATOM     22  C   UNL     1       9.493  13.773  17.775  0.00  0.00    +0.000 A 
ATOM     23  C   UNL     1       8.839  12.590  18.143  0.00  0.00    +0.000 A 
ENDBRANCH  14  17
ENDBRANCH   4  13
TORSDOF 4
ENDMDL
MODEL 6
REMARK VINA RESULT:      -7.0      6.200      7.643
REMARK  Name = 
REMARK  4 active torsions:
REMARK  status: ('A' for Active; 'I' for Inactive)
REMARK    1  A    between atoms: C_2  and  C_5
REMARK    2  A    between atoms: N_3  and  O_4
REMARK    3  A    between atoms: C_8  and  N_9
REMARK    4  A    between atoms: C_10  and  C_12
REMARK                            x       y       z     vdW  Elec       q    Type
REMARK                         _______ _______ _______ _____ _____    ______ ____
ROOT
ATOM      1  C   UNL     1       6.296   5.536  18.255  0.00  0.00    +0.000 A 
ATOM      2  C   UNL     1       5.767   6.483  17.380  0.00  0.00    +0.000 A 
ATOM      3  C   UNL     1       6.450   7.680  17.149  0.00  0.00    +0.000 A 
ATOM      4  C   UNL     1       7.677   7.937  17.768  0.00  0.00    +0.000 A 
ATOM      5  C   UNL     1       8.228   6.960  18.606  0.00  0.00    +0.000 A 
ATOM      6  C   UNL     1       7.534   5.768  18.863  0.00  0.00    +0.000 A 
ENDROOT
BRANCH   1   8
ATOM      7  O   UNL     1       5.440   3.789  19.609  0.00  0.00    +0.000 OA
ATOM      8  C   UNL     1       5.539   4.282  18.488  0.00  0.00    +0.000 C 
ATOM      9  N   UNL     1       5.003   3.682  17.371  0.00  0.00    +0.000 N 
ATOM     10  H   UNL     1       5.392   3.838  16.446  0.00  0.00    +0.000 HD
BRANCH   9  11
ATOM     11  O   UNL     1       4.434   2.406  17.597  0.00  0.00    +0.000 OA
ATOM     12  H   UNL     1       3.516   2.525  17.262  0.00  0.00    +0.000 HD
ENDBRANCH   9  11
ENDBRANCH   1   8
BRANCH   4  13
ATOM     13  N   UNL     1       8.412   9.127  17.564  0.00  0.00    +0.000 N 
ATOM     14  C   UNL     1       8.933   9.930  18.567  0.00  0.00    +0.000 C 
ATOM     15  O   UNL     1       8.931   9.664  19.765  0.00  0.00    +0.000 OA
ATOM     16  H   UNL     1       8.575   9.386  16.602  0.00  0.00    +0.000 HD
BRANCH  14  17
ATOM     17  C   UNL     1       9.541  11.228  18.153  0.00  0.00    +0.000 A 
ATOM     18  C   UNL     1       8.681  12.340  18.081  0.00  0.00    +0.000 A 
ATOM     19  C   UNL     1       9.161  13.589  17.691  0.00  0.00    +0.000 A 
ATOM     20  C   UNL     1      10.505  13.732  17.378  0.00  0.00    +0.000 A 
ATOM     21  F   UNL     1      10.970  14.927  16.995  0.00  0.00    +0.000 F 
ATOM     22  C   UNL     1      11.377  12.650  17.460  0.00  0.00    +0.000 A 
ATOM     23  C   UNL     1      10.900  11.392  17.852  0.00  0.00    +0.000 A 
ENDBRANCH  14  17
ENDBRANCH   4  13
TORSDOF 4
ENDMDL
MODEL 7
REMARK VINA RESULT:      -7.0      6.249      7.698
REMARK  Name = 
REMARK  4 active torsions:
REMARK  status: ('A' for Active; 'I' for Inactive)
REMARK    1  A    between atoms: C_2  and  C_5
REMARK    2  A    between atoms: N_3  and  O_4
REMARK    3  A    between atoms: C_8  and  N_9
REMARK    4  A    between atoms: C_10  and  C_12
REMARK                            x       y       z     vdW  Elec       q    Type
REMARK                         _______ _______ _______ _____ _____    ______ ____
ROOT
ATOM      1  C   UNL     1       6.140   5.610  18.062  0.00  0.00    +0.000 A 
ATOM      2  C   UNL     1       5.581   6.608  17.264  0.00  0.00    +0.000 A 
ATOM      3  C   UNL     1       6.264   7.811  17.071  0.00  0.00    +0.000 A 
ATOM      4  C   UNL     1       7.518   8.027  17.650  0.00  0.00    +0.000 A 
ATOM      5  C   UNL     1       8.096   7.002  18.408  0.00  0.00    +0.000 A 
ATOM      6  C   UNL     1       7.404   5.801  18.628  0.00  0.00    +0.000 A 
ENDROOT
BRANCH   1   8
ATOM      7  O   UNL     1       4.468   4.024  17.506  0.00  0.00    +0.000 OA
ATOM      8  C   UNL     1       5.383   4.349  18.258  0.00  0.00    +0.000 C 
ATOM      9  N   UNL     1       5.734   3.599  19.358  0.00  0.00    +0.000 N 
ATOM     10  H   UNL     1       6.176   4.020  20.169  0.00  0.00    +0.000 HD
BRANCH   9  11
ATOM     11  O   UNL     1       4.889   2.493  19.617  0.00  0.00    +0.000 OA
ATOM     12  H   UNL     1       4.265   2.860  20.284  0.00  0.00    +0.000 HD
ENDBRANCH   9  11
ENDBRANCH   1   8
BRANCH   4  13
ATOM     13  N   UNL     1       8.254   9.223  17.481  0.00  0.00    +0.000 N 
ATOM     14  C   UNL     1       8.874   9.933  18.497  0.00  0.00    +0.000 C 
ATOM     15  O   UNL     1       8.972   9.567  19.664  0.00  0.00    +0.000 OA
ATOM     16  H   UNL     1       8.336   9.559  16.533  0.00  0.00    +0.000 HD
BRANCH  14  17
ATOM     17  C   UNL     1       9.466  11.255  18.139  0.00  0.00    +0.000 A 
ATOM     18  C   UNL     1      10.860  11.299  17.954  0.00  0.00    +0.000 A 
ATOM     19  C   UNL     1      11.500  12.494  17.631  0.00  0.00    +0.000 A 
ATOM     20  C   UNL     1      10.745  13.649  17.485  0.00  0.00    +0.000 A 
ATOM     21  F   UNL     1      11.355  14.802  17.183  0.00  0.00    +0.000 F 
ATOM     22  C   UNL     1       9.362  13.626  17.645  0.00  0.00    +0.000 A 
ATOM     23  C   UNL     1       8.715  12.426  17.969  0.00  0.00    +0.000 A 
ENDBRANCH  14  17
ENDBRANCH   4  13
TORSDOF 4
ENDMDL
MODEL 8
REMARK VINA RESULT:      -6.9      0.985      1.045
REMARK  Name = 
REMARK  4 active torsions:
REMARK  status: ('A' for Active; 'I' for Inactive)
REMARK    1  A    between atoms: C_2  and  C_5
REMARK    2  A    between atoms: N_3  and  O_4
REMARK    3  A    between atoms: C_8  and  N_9
REMARK    4  A    between atoms: C_10  and  C_12
REMARK                            x       y       z     vdW  Elec       q    Type
REMARK                         _______ _______ _______ _____ _____    ______ ____
ROOT
ATOM      1  C   UNL     1       4.815   5.503  16.568  0.00  0.00    +0.000 A 
ATOM      2  C   UNL     1       5.011   6.859  16.826  0.00  0.00    +0.000 A 
ATOM      3  C   UNL     1       4.166   7.530  17.714  0.00  0.00    +0.000 A 
ATOM      4  C   UNL     1       3.133   6.856  18.371  0.00  0.00    +0.000 A 
ATOM      5  C   UNL     1       2.974   5.482  18.147  0.00  0.00    +0.000 A 
ATOM      6  C   UNL     1       3.802   4.809  17.236  0.00  0.00    +0.000 A 
ENDROOT
BRANCH   1   8
ATOM      7  O   UNL     1       5.732   3.601  15.492  0.00  0.00    +0.000 OA
ATOM      8  C   UNL     1       5.721   4.823  15.610  0.00  0.00    +0.000 C 
ATOM      9  N   UNL     1       6.578   5.639  14.906  0.00  0.00    +0.000 N 
ATOM     10  H   UNL     1       6.856   6.549  15.260  0.00  0.00    +0.000 HD
BRANCH   9  11
ATOM     11  O   UNL     1       7.544   4.955  14.128  0.00  0.00    +0.000 OA
ATOM     12  H   UNL     1       7.006   4.626  13.372  0.00  0.00    +0.000 HD
ENDBRANCH   9  11
ENDBRANCH   1   8
BRANCH   4  13
ATOM     13  N   UNL     1       2.255   7.485  19.283  0.00  0.00    +0.000 N 
ATOM     14  C   UNL     1       1.575   8.671  19.054  0.00  0.00    +0.000 C 
ATOM     15  O   UNL     1       1.546   9.281  17.989  0.00  0.00    +0.000 OA
ATOM     16  H   UNL     1       2.112   7.005  20.160  0.00  0.00    +0.000 HD
BRANCH  14  17
ATOM     17  C   UNL     1       0.820   9.255  20.200  0.00  0.00    +0.000 A 
ATOM     18  C   UNL     1       1.035   8.678  21.465  0.00  0.00    +0.000 A 
ATOM     19  C   UNL     1       0.363   9.152  22.590  0.00  0.00    +0.000 A 
ATOM     20  C   UNL     1      -0.524  10.211  22.454  0.00  0.00    +0.000 A 
ATOM     21  F   UNL     1      -1.179  10.665  23.529  0.00  0.00    +0.000 F 
ATOM     22  C   UNL     1      -0.738  10.809  21.216  0.00  0.00    +0.000 A 
ATOM     23  C   UNL     1      -0.064  10.337  20.082  0.00  0.00    +0.000 A 
ENDBRANCH  14  17
ENDBRANCH   4  13
TORSDOF 4
ENDMDL
MODEL 9
REMARK VINA RESULT:      -6.9      1.076      1.632
REMARK  Name = 
REMARK  4 active torsions:
REMARK  status: ('A' for Active; 'I' for Inactive)
REMARK    1  A    between atoms: C_2  and  C_5
REMARK    2  A    between atoms: N_3  and  O_4
REMARK    3  A    between atoms: C_8  and  N_9
REMARK    4  A    between atoms: C_10  and  C_12
REMARK                            x       y       z     vdW  Elec       q    Type
REMARK                         _______ _______ _______ _____ _____    ______ ____
ROOT
ATOM      1  C   UNL     1       4.721   5.558  16.764  0.00  0.00    +0.000 A 
ATOM      2  C   UNL     1       4.727   6.950  16.838  0.00  0.00    +0.000 A 
ATOM      3  C   UNL     1       3.872   7.606  17.728  0.00  0.00    +0.000 A 
ATOM      4  C   UNL     1       3.019   6.884  18.568  0.00  0.00    +0.000 A 
ATOM      5  C   UNL     1       3.054   5.485  18.524  0.00  0.00    +0.000 A 
ATOM      6  C   UNL     1       3.891   4.821  17.615  0.00  0.00    +0.000 A 
ENDROOT
BRANCH   1   8
ATOM      7  O   UNL     1       5.670   3.671  15.689  0.00  0.00    +0.000 OA
ATOM      8  C   UNL     1       5.631   4.894  15.799  0.00  0.00    +0.000 C 
ATOM      9  N   UNL     1       6.460   5.725  15.079  0.00  0.00    +0.000 N 
ATOM     10  H   UNL     1       6.721   6.643  15.424  0.00  0.00    +0.000 HD
BRANCH   9  11
ATOM     11  O   UNL     1       7.432   5.059  14.294  0.00  0.00    +0.000 OA
ATOM     12  H   UNL     1       8.266   5.497  14.579  0.00  0.00    +0.000 HD
ENDBRANCH   9  11
ENDBRANCH   1   8
BRANCH   4  13
ATOM     13  N   UNL     1       2.140   7.497  19.490  0.00  0.00    +0.000 N 
ATOM     14  C   UNL     1       1.523   8.726  19.315  0.00  0.00    +0.000 C 
ATOM     15  O   UNL     1       1.558   9.401  18.290  0.00  0.00    +0.000 OA
ATOM     16  H   UNL     1       1.946   6.972  20.330  0.00  0.00    +0.000 HD
BRANCH  14  17
ATOM     17  C   UNL     1       0.756   9.274  20.471  0.00  0.00    +0.000 A 
ATOM     18  C   UNL     1      -0.054  10.397  20.224  0.00  0.00    +0.000 A 
ATOM     19  C   UNL     1      -0.795  10.983  21.248  0.00  0.00    +0.000 A 
ATOM     20  C   UNL     1      -0.733  10.442  22.525  0.00  0.00    +0.000 A 
ATOM     21  F   UNL     1      -1.436  11.005  23.515  0.00  0.00    +0.000 F 
ATOM     22  C   UNL     1       0.047   9.319  22.789  0.00  0.00    +0.000 A 
ATOM     23  C   UNL     1       0.793   8.726  21.761  0.00  0.00    +0.000 A 
ENDBRANCH  14  17
ENDBRANCH   4  13
TORSDOF 4
ENDMDL
