MODEL 1
REMARK VINA RESULT:      -9.1      0.000      0.000
REMARK  Name = 
REMARK  10 active torsions:
REMARK  status: ('A' for Active; 'I' for Inactive)
REMARK    1  A    between atoms: C_1  and  C_2
REMARK    2  A    between atoms: C_2  and  N_3
REMARK    3  A    between atoms: C_5  and  C_6
REMARK    4  A    between atoms: C_9  and  N_10
REMARK    5  A    between atoms: C_11  and  C_12
REMARK    6  A    between atoms: C_15  and  C_16
REMARK    7  A    between atoms: N_18  and  CA_19
REMARK    8  A    between atoms: CA_19  and  C_20
REMARK    9  A    between atoms: CA_19  and  C_22
REMARK   10  A    between atoms: C_20  and  O_21
REMARK                            x       y       z     vdW  Elec       q    Type
REMARK                         _______ _______ _______ _____ _____    ______ ____
ROOT
ATOM      1  C   UNL     1       2.334   7.188  18.721  0.00  0.00    +0.000 A 
ATOM      2  C   UNL     1       2.041   8.230  17.827  0.00  0.00    +0.000 A 
ATOM      3  C   UNL     1       1.490   9.446  18.261  0.00  0.00    +0.000 A 
ATOM      4  C   UNL     1       1.165   9.650  19.607  0.00  0.00    +0.000 A 
ATOM      5  C   UNL     1       1.401   8.613  20.499  0.00  0.00    +0.000 A 
ATOM      6  F   UNL     1       1.074   8.725  21.796  0.00  0.00    +0.000 F 
ATOM      7  C   UNL     1       1.990   7.418  20.072  0.00  0.00    +0.000 A 
ENDROOT
BRANCH   1  12
ATOM      8  C   UNL     1       4.598   4.762  16.845  0.00  0.00    +0.000 A 
ATOM      9  C   UNL     1       4.126   3.564  17.347  0.00  0.00    +0.000 A 
ATOM     10  N   UNL     1       3.147   3.471  18.275  0.00  0.00    +0.000 NA
ATOM     11  C   UNL     1       2.576   4.617  18.718  0.00  0.00    +0.000 A 
ATOM     12  C   UNL     1       2.966   5.902  18.294  0.00  0.00    +0.000 A 
ATOM     13  C   UNL     1       4.019   5.927  17.356  0.00  0.00    +0.000 A 
BRANCH   8  16
ATOM     14  N   UNL     1       6.630   4.501  13.884  0.00  0.00    +0.000 N 
ATOM     15  C   UNL     1       5.441   4.314  14.528  0.00  0.00    +0.000 A 
ATOM     16  C   UNL     1       5.598   4.829  15.798  0.00  0.00    +0.000 A 
ATOM     17  C   UNL     1       6.923   5.326  15.801  0.00  0.00    +0.000 A 
ATOM     18  N   UNL     1       7.550   5.128  14.637  0.00  0.00    +0.000 NA
BRANCH  14  20
ATOM     19  C   UNL     1       5.980   3.028  12.019  0.00  0.00    +0.000 C 
ATOM     20  C   UNL     1       6.954   4.072  12.537  0.00  0.00    +0.000 C 
ENDBRANCH  14  20
ENDBRANCH   8  16
BRANCH  11  21
ATOM     21  N   UNL     1       1.564   4.390  19.648  0.00  0.00    +0.000 N 
ATOM     22  H   UNL     1       1.105   5.284  19.809  0.00  0.00    +0.000 HD
ATOM     23  H   UNL     1       1.932   3.996  20.507  0.00  0.00    +0.000 HD
ENDBRANCH  11  21
ENDBRANCH   1  12
BRANCH   4  24
ATOM     24  C   UNL     1       0.592  10.963  20.002  0.00  0.00    +0.000 C 
ATOM     25  O   UNL     1       1.250  11.986  19.825  0.00  0.00    +0.000 OA
ATOM     26  N   UNL     1      -0.667  10.991  20.551  0.00  0.00    +0.000 N 
ATOM     27  H   UNL     1      -1.180  10.122  20.645  0.00  0.00    +0.000 HD
BRANCH  26  28
ATOM     28  CA  UNL     1      -1.334  12.217  21.014  0.00  0.00    +0.000 C 
BRANCH  28  29
ATOM     29  C   UNL     1      -2.746  12.371  20.458  0.00  0.00    +0.000 A 
ATOM     30  C   UNL     1      -3.780  12.843  21.292  0.00  0.00    +0.000 A 
ATOM     31  C   UNL     1      -5.105  12.902  20.848  0.00  0.00    +0.000 A 
ATOM     32  C   UNL     1      -5.426  12.485  19.559  0.00  0.00    +0.000 A 
ATOM     33  C   UNL     1      -4.416  12.032  18.723  0.00  0.00    +0.000 A 
ATOM     34  F   UNL     1      -4.722  11.622  17.485  0.00  0.00    +0.000 F 
ATOM     35  C   UNL     1      -3.092  11.975  19.156  0.00  0.00    +0.000 A 
ENDBRANCH  28  29
BRANCH  28  36
ATOM     36  C   UNL     1      -1.142  12.464  22.537  0.00  0.00    +0.000 C 
BRANCH  36  37
ATOM     37  O   UNL     1      -0.610  11.363  23.269  0.00  0.00    +0.000 OA
ATOM     38  H   UNL     1      -0.475  11.661  24.197  0.00  0.00    +0.000 HD
ENDBRANCH  36  37
ENDBRANCH  28  36
ENDBRANCH  26  28
ENDBRANCH   4  24
TORSDOF 9
ENDMDL
MODEL 2
REMARK VINA RESULT:      -9.0      1.157      1.578
REMARK  Name = 
REMARK  10 active torsions:
REMARK  status: ('A' for Active; 'I' for Inactive)
REMARK    1  A    between atoms: C_1  and  C_2
REMARK    2  A    between atoms: C_2  and  N_3
REMARK    3  A    between atoms: C_5  and  C_6
REMARK    4  A    between atoms: C_9  and  N_10
REMARK    5  A    between atoms: C_11  and  C_12
REMARK    6  A    between atoms: C_15  and  C_16
REMARK    7  A    between atoms: N_18  and  CA_19
REMARK    8  A    between atoms: CA_19  and  C_20
REMARK    9  A    between atoms: CA_19  and  C_22
REMARK   10  A    between atoms: C_20  and  O_21
REMARK                            x       y       z     vdW  Elec       q    Type
REMARK                         _______ _______ _______ _____ _____    ______ ____
ROOT
ATOM      1  C   UNL     1       2.443   7.431  19.012  0.00  0.00    +0.000 A 
ATOM      2  C   UNL     1       2.142   8.323  17.970  0.00  0.00    +0.000 A 
ATOM      3  C   UNL     1       1.379   9.482  18.184  0.00  0.00    +0.000 A 
ATOM      4  C   UNL     1       0.846   9.771  19.446  0.00  0.00    +0.000 A 
ATOM      5  C   UNL     1       1.090   8.875  20.477  0.00  0.00    +0.000 A 
ATOM      6  F   UNL     1       0.574   9.068  21.701  0.00  0.00    +0.000 F 
ATOM      7  C   UNL     1       1.886   7.743  20.273  0.00  0.00    +0.000 A 
ENDROOT
BRANCH   1  12
ATOM      8  C   UNL     1       4.912   5.003  17.419  0.00  0.00    +0.000 A 
ATOM      9  C   UNL     1       4.823   3.955  18.316  0.00  0.00    +0.000 A 
ATOM     10  N   UNL     1       4.048   3.977  19.424  0.00  0.00    +0.000 NA
ATOM     11  C   UNL     1       3.292   5.078  19.653  0.00  0.00    +0.000 A 
ATOM     12  C   UNL     1       3.293   6.215  18.822  0.00  0.00    +0.000 A 
ATOM     13  C   UNL     1       4.154   6.141  17.708  0.00  0.00    +0.000 A 
BRANCH   8  16
ATOM     14  N   UNL     1       6.371   4.317  14.199  0.00  0.00    +0.000 N 
ATOM     15  C   UNL     1       5.332   4.210  15.079  0.00  0.00    +0.000 A 
ATOM     16  C   UNL     1       5.696   4.923  16.202  0.00  0.00    +0.000 A 
ATOM     17  C   UNL     1       6.971   5.442  15.877  0.00  0.00    +0.000 A 
ATOM     18  N   UNL     1       7.382   5.074  14.659  0.00  0.00    +0.000 NA
BRANCH  14  20
ATOM     19  C   UNL     1       5.095   3.495  12.258  0.00  0.00    +0.000 C 
ATOM     20  C   UNL     1       6.460   3.687  12.896  0.00  0.00    +0.000 C 
ENDBRANCH  14  20
ENDBRANCH   8  16
BRANCH  11  21
ATOM     21  N   UNL     1       2.517   4.969  20.805  0.00  0.00    +0.000 N 
ATOM     22  H   UNL     1       3.080   4.474  21.493  0.00  0.00    +0.000 HD
ATOM     23  H   UNL     1       1.642   4.493  20.620  0.00  0.00    +0.000 HD
ENDBRANCH  11  21
ENDBRANCH   1  12
BRANCH   4  24
ATOM     24  C   UNL     1       0.055  11.018  19.607  0.00  0.00    +0.000 C 
ATOM     25  O   UNL     1       0.640  12.089  19.757  0.00  0.00    +0.000 OA
ATOM     26  N   UNL     1      -1.316  10.934  19.578  0.00  0.00    +0.000 N 
ATOM     27  H   UNL     1      -1.748  10.032  19.419  0.00  0.00    +0.000 HD
BRANCH  26  28
ATOM     28  CA  UNL     1      -2.214  12.085  19.759  0.00  0.00    +0.000 C 
BRANCH  28  29
ATOM     29  C   UNL     1      -3.513  11.955  18.969  0.00  0.00    +0.000 A 
ATOM     30  C   UNL     1      -3.478  11.491  17.638  0.00  0.00    +0.000 A 
ATOM     31  C   UNL     1      -4.634  11.454  16.850  0.00  0.00    +0.000 A 
ATOM     32  C   UNL     1      -5.849  11.884  17.376  0.00  0.00    +0.000 A 
ATOM     33  C   UNL     1      -5.898  12.330  18.689  0.00  0.00    +0.000 A 
ATOM     34  F   UNL     1      -7.064  12.752  19.196  0.00  0.00    +0.000 F 
ATOM     35  C   UNL     1      -4.753  12.366  19.483  0.00  0.00    +0.000 A 
ENDBRANCH  28  29
BRANCH  28  36
ATOM     36  C   UNL     1      -2.330  12.524  21.247  0.00  0.00    +0.000 C 
BRANCH  36  37
ATOM     37  O   UNL     1      -1.343  13.451  21.686  0.00  0.00    +0.000 OA
ATOM     38  H   UNL     1      -1.148  13.253  22.630  0.00  0.00    +0.000 HD
ENDBRANCH  36  37
ENDBRANCH  28  36
ENDBRANCH  26  28
ENDBRANCH   4  24
TORSDOF 9
ENDMDL
MODEL 3
REMARK VINA RESULT:      -9.0      2.909      4.006
REMARK  Name = 
REMARK  10 active torsions:
REMARK  status: ('A' for Active; 'I' for Inactive)
REMARK    1  A    between atoms: C_1  and  C_2
REMARK    2  A    between atoms: C_2  and  N_3
REMARK    3  A    between atoms: C_5  and  C_6
REMARK    4  A    between atoms: C_9  and  N_10
REMARK    5  A    between atoms: C_11  and  C_12
REMARK    6  A    between atoms: C_15  and  C_16
REMARK    7  A    between atoms: N_18  and  CA_19
REMARK    8  A    between atoms: CA_19  and  C_20
REMARK    9  A    between atoms: CA_19  and  C_22
REMARK   10  A    between atoms: C_20  and  O_21
REMARK                            x       y       z     vdW  Elec       q    Type
REMARK                         _______ _______ _______ _____ _____    ______ ____
ROOT
ATOM      1  C   UNL     1       2.406   7.127  18.579  0.00  0.00    +0.000 A 
ATOM      2  C   UNL     1       2.127   8.129  17.636  0.00  0.00    +0.000 A 
ATOM      3  C   UNL     1       1.595   9.373  18.012  0.00  0.00    +0.000 A 
ATOM      4  C   UNL     1       1.277   9.646  19.348  0.00  0.00    +0.000 A 
ATOM      5  C   UNL     1       1.499   8.650  20.288  0.00  0.00    +0.000 A 
ATOM      6  F   UNL     1       1.177   8.829  21.579  0.00  0.00    +0.000 F 
ATOM      7  C   UNL     1       2.069   7.427  19.919  0.00  0.00    +0.000 A 
ENDROOT
BRANCH   1  12
ATOM      8  C   UNL     1       4.620   4.578  16.810  0.00  0.00    +0.000 A 
ATOM      9  C   UNL     1       4.138   3.414  17.378  0.00  0.00    +0.000 A 
ATOM     10  N   UNL     1       3.167   3.381  18.319  0.00  0.00    +0.000 NA
ATOM     11  C   UNL     1       2.615   4.556  18.707  0.00  0.00    +0.000 A 
ATOM     12  C   UNL     1       3.017   5.812  18.213  0.00  0.00    +0.000 A 
ATOM     13  C   UNL     1       4.061   5.775  17.266  0.00  0.00    +0.000 A 
BRANCH   8  16
ATOM     14  N   UNL     1       6.563   4.261  13.795  0.00  0.00    +0.000 N 
ATOM     15  C   UNL     1       5.363   4.210  14.445  0.00  0.00    +0.000 A 
ATOM     16  C   UNL     1       5.611   4.577  15.752  0.00  0.00    +0.000 A 
ATOM     17  C   UNL     1       6.997   4.854  15.770  0.00  0.00    +0.000 A 
ATOM     18  N   UNL     1       7.577   4.662  14.580  0.00  0.00    +0.000 NA
BRANCH  14  20
ATOM     19  C   UNL     1       5.820   2.866  11.905  0.00  0.00    +0.000 C 
ATOM     20  C   UNL     1       6.804   3.908  12.409  0.00  0.00    +0.000 C 
ENDBRANCH  14  20
ENDBRANCH   8  16
BRANCH  11  21
ATOM     21  N   UNL     1       1.609   4.391  19.657  0.00  0.00    +0.000 N 
ATOM     22  H   UNL     1       0.907   3.783  19.241  0.00  0.00    +0.000 HD
ATOM     23  H   UNL     1       1.217   5.281  19.940  0.00  0.00    +0.000 HD
ENDBRANCH  11  21
ENDBRANCH   1  12
BRANCH   4  24
ATOM     24  C   UNL     1       0.725  10.985  19.680  0.00  0.00    +0.000 C 
ATOM     25  O   UNL     1      -0.128  11.085  20.560  0.00  0.00    +0.000 OA
ATOM     26  N   UNL     1       1.193  12.078  18.991  0.00  0.00    +0.000 N 
ATOM     27  H   UNL     1       1.920  11.945  18.299  0.00  0.00    +0.000 HD
BRANCH  26  28
ATOM     28  CA  UNL     1       0.707  13.450  19.200  0.00  0.00    +0.000 C 
BRANCH  28  29
ATOM     29  C   UNL     1       1.742  14.509  18.830  0.00  0.00    +0.000 A 
ATOM     30  C   UNL     1       1.411  15.876  18.931  0.00  0.00    +0.000 A 
ATOM     31  C   UNL     1       2.297  16.872  18.507  0.00  0.00    +0.000 A 
ATOM     32  C   UNL     1       3.532  16.522  17.967  0.00  0.00    +0.000 A 
ATOM     33  C   UNL     1       3.875  15.181  17.876  0.00  0.00    +0.000 A 
ATOM     34  F   UNL     1       5.058  14.840  17.350  0.00  0.00    +0.000 F 
ATOM     35  C   UNL     1       3.001  14.182  18.301  0.00  0.00    +0.000 A 
ENDBRANCH  28  29
BRANCH  28  36
ATOM     36  C   UNL     1      -0.740  13.659  18.670  0.00  0.00    +0.000 C 
BRANCH  36  37
ATOM     37  O   UNL     1      -1.063  12.937  17.485  0.00  0.00    +0.000 OA
ATOM     38  H   UNL     1      -0.965  11.978  17.686  0.00  0.00    +0.000 HD
ENDBRANCH  36  37
ENDBRANCH  28  36
ENDBRANCH  26  28
ENDBRANCH   4  24
TORSDOF 9
ENDMDL
MODEL 4
REMARK VINA RESULT:      -8.8      2.359      3.135
REMARK  Name = 
REMARK  10 active torsions:
REMARK  status: ('A' for Active; 'I' for Inactive)
REMARK    1  A    between atoms: C_1  and  C_2
REMARK    2  A    between atoms: C_2  and  N_3
REMARK    3  A    between atoms: C_5  and  C_6
REMARK    4  A    between atoms: C_9  and  N_10
REMARK    5  A    between atoms: C_11  and  C_12
REMARK    6  A    between atoms: C_15  and  C_16
REMARK    7  A    between atoms: N_18  and  CA_19
REMARK    8  A    between atoms: CA_19  and  C_20
REMARK    9  A    between atoms: CA_19  and  C_22
REMARK   10  A    between atoms: C_20  and  O_21
REMARK                            x       y       z     vdW  Elec       q    Type
REMARK                         _______ _______ _______ _____ _____    ______ ____
ROOT
ATOM      1  C   UNL     1       2.304   7.018  18.843  0.00  0.00    +0.000 A 
ATOM      2  C   UNL     1       2.005   8.132  18.043  0.00  0.00    +0.000 A 
ATOM      3  C   UNL     1       1.503   9.323  18.590  0.00  0.00    +0.000 A 
ATOM      4  C   UNL     1       1.236   9.430  19.960  0.00  0.00    +0.000 A 
ATOM      5  C   UNL     1       1.478   8.323  20.760  0.00  0.00    +0.000 A 
ATOM      6  F   UNL     1       1.205   8.342  22.074  0.00  0.00    +0.000 F 
ATOM      7  C   UNL     1       2.019   7.150  20.220  0.00  0.00    +0.000 A 
ENDROOT
BRANCH   1  12
ATOM      8  C   UNL     1       4.523   4.693  16.792  0.00  0.00    +0.000 A 
ATOM      9  C   UNL     1       3.961   3.476  17.128  0.00  0.00    +0.000 A 
ATOM     10  N   UNL     1       2.933   3.335  17.995  0.00  0.00    +0.000 NA
ATOM     11  C   UNL     1       2.404   4.454  18.545  0.00  0.00    +0.000 A 
ATOM     12  C   UNL     1       2.885   5.753  18.294  0.00  0.00    +0.000 A 
ATOM     13  C   UNL     1       3.984   5.824  17.412  0.00  0.00    +0.000 A 
BRANCH   8  16
ATOM     14  N   UNL     1       6.704   4.612  13.928  0.00  0.00    +0.000 N 
ATOM     15  C   UNL     1       5.482   4.396  14.496  0.00  0.00    +0.000 A 
ATOM     16  C   UNL     1       5.577   4.820  15.805  0.00  0.00    +0.000 A 
ATOM     17  C   UNL     1       6.903   5.300  15.910  0.00  0.00    +0.000 A 
ATOM     18  N   UNL     1       7.589   5.175  14.769  0.00  0.00    +0.000 NA
BRANCH  14  20
ATOM     19  C   UNL     1       6.317   3.084  12.035  0.00  0.00    +0.000 C 
ATOM     20  C   UNL     1       7.094   4.274  12.573  0.00  0.00    +0.000 C 
ENDBRANCH  14  20
ENDBRANCH   8  16
BRANCH  11  21
ATOM     21  N   UNL     1       1.336   4.182  19.397  0.00  0.00    +0.000 N 
ATOM     22  H   UNL     1       0.488   4.440  18.898  0.00  0.00    +0.000 HD
ATOM     23  H   UNL     1       1.425   4.683  20.274  0.00  0.00    +0.000 HD
ENDBRANCH  11  21
ENDBRANCH   1  12
BRANCH   4  24
ATOM     24  C   UNL     1       0.713  10.722  20.476  0.00  0.00    +0.000 C 
ATOM     25  O   UNL     1       0.977  11.063  21.628  0.00  0.00    +0.000 OA
ATOM     26  N   UNL     1      -0.050  11.502  19.642  0.00  0.00    +0.000 N 
ATOM     27  H   UNL     1      -0.211  11.190  18.692  0.00  0.00    +0.000 HD
BRANCH  26  28
ATOM     28  CA  UNL     1      -0.654  12.783  20.040  0.00  0.00    +0.000 C 
BRANCH  28  29
ATOM     29  C   UNL     1       0.128  13.991  19.532  0.00  0.00    +0.000 A 
ATOM     30  C   UNL     1      -0.512  15.242  19.420  0.00  0.00    +0.000 A 
ATOM     31  C   UNL     1       0.142  16.347  18.865  0.00  0.00    +0.000 A 
ATOM     32  C   UNL     1       1.450  16.223  18.406  0.00  0.00    +0.000 A 
ATOM     33  C   UNL     1       2.096  15.001  18.523  0.00  0.00    +0.000 A 
ATOM     34  F   UNL     1       3.352  14.875  18.075  0.00  0.00    +0.000 F 
ATOM     35  C   UNL     1       1.454  13.896  19.079  0.00  0.00    +0.000 A 
ENDBRANCH  28  29
BRANCH  28  36
ATOM     36  C   UNL     1      -2.197  12.803  19.842  0.00  0.00    +0.000 C 
BRANCH  36  37
ATOM     37  O   UNL     1      -2.656  12.300  18.591  0.00  0.00    +0.000 OA
ATOM     38  H   UNL     1      -3.216  12.997  18.179  0.00  0.00    +0.000 HD
ENDBRANCH  36  37
ENDBRANCH  28  36
ENDBRANCH  26  28
ENDBRANCH   4  24
TORSDOF 9
ENDMDL
MODEL 5
REMARK VINA RESULT:      -8.8      2.827      3.848
REMARK  Name = 
REMARK  10 active torsions:
REMARK  status: ('A' for Active; 'I' for Inactive)
REMARK    1  A    between atoms: C_1  and  C_2
REMARK    2  A    between atoms: C_2  and  N_3
REMARK    3  A    between atoms: C_5  and  C_6
REMARK    4  A    between atoms: C_9  and  N_10
REMARK    5  A    between atoms: C_11  and  C_12
REMARK    6  A    between atoms: C_15  and  C_16
REMARK    7  A    between atoms: N_18  and  CA_19
REMARK    8  A    between atoms: CA_19  and  C_20
REMARK    9  A    between atoms: CA_19  and  C_22
REMARK   10  A    between atoms: C_20  and  O_21
REMARK                            x       y       z     vdW  Elec       q    Type
REMARK                         _______ _______ _______ _____ _____    ______ ____
ROOT
ATOM      1  C   UNL     1       2.403   7.038  18.694  0.00  0.00    +0.000 A 
ATOM      2  C   UNL     1       2.069   8.058  17.788  0.00  0.00    +0.000 A 
ATOM      3  C   UNL     1       1.496   9.267  18.212  0.00  0.00    +0.000 A 
ATOM      4  C   UNL     1       1.190   9.485  19.560  0.00  0.00    +0.000 A 
ATOM      5  C   UNL     1       1.466   8.469  20.464  0.00  0.00    +0.000 A 
ATOM      6  F   UNL     1       1.159   8.594  21.765  0.00  0.00    +0.000 F 
ATOM      7  C   UNL     1       2.077   7.281  20.047  0.00  0.00    +0.000 A 
ENDROOT
BRANCH   1  12
ATOM      8  C   UNL     1       4.674   4.633  16.799  0.00  0.00    +0.000 A 
ATOM      9  C   UNL     1       4.256   3.435  17.346  0.00  0.00    +0.000 A 
ATOM     10  N   UNL     1       3.312   3.336  18.309  0.00  0.00    +0.000 NA
ATOM     11  C   UNL     1       2.721   4.475  18.743  0.00  0.00    +0.000 A 
ATOM     12  C   UNL     1       3.058   5.760  18.275  0.00  0.00    +0.000 A 
ATOM     13  C   UNL     1       4.078   5.793  17.302  0.00  0.00    +0.000 A 
BRANCH   8  16
ATOM     14  N   UNL     1       6.620   4.347  13.783  0.00  0.00    +0.000 N 
ATOM     15  C   UNL     1       5.461   4.135  14.472  0.00  0.00    +0.000 A 
ATOM     16  C   UNL     1       5.637   4.703  15.718  0.00  0.00    +0.000 A 
ATOM     17  C   UNL     1       6.937   5.255  15.658  0.00  0.00    +0.000 A 
ATOM     18  N   UNL     1       7.535   5.040  14.481  0.00  0.00    +0.000 NA
BRANCH  14  20
ATOM     19  C   UNL     1       5.833   2.970  11.898  0.00  0.00    +0.000 C 
ATOM     20  C   UNL     1       6.918   3.883  12.442  0.00  0.00    +0.000 C 
ENDBRANCH  14  20
ENDBRANCH   8  16
BRANCH  11  21
ATOM     21  N   UNL     1       1.748   4.242  19.713  0.00  0.00    +0.000 N 
ATOM     22  H   UNL     1       1.240   3.409  19.425  0.00  0.00    +0.000 HD
ATOM     23  H   UNL     1       1.134   5.041  19.821  0.00  0.00    +0.000 HD
ENDBRANCH  11  21
ENDBRANCH   1  12
BRANCH   4  24
ATOM     24  C   UNL     1       0.592  10.790  19.944  0.00  0.00    +0.000 C 
ATOM     25  O   UNL     1      -0.290  10.821  20.801  0.00  0.00    +0.000 OA
ATOM     26  N   UNL     1       1.051  11.929  19.329  0.00  0.00    +0.000 N 
ATOM     27  H   UNL     1       1.802  11.852  18.654  0.00  0.00    +0.000 HD
BRANCH  26  28
ATOM     28  CA  UNL     1       0.521  13.276  19.593  0.00  0.00    +0.000 C 
BRANCH  28  29
ATOM     29  C   UNL     1       1.567  14.372  19.406  0.00  0.00    +0.000 A 
ATOM     30  C   UNL     1       2.918  14.111  19.714  0.00  0.00    +0.000 A 
ATOM     31  C   UNL     1       3.886  15.118  19.650  0.00  0.00    +0.000 A 
ATOM     32  C   UNL     1       3.524  16.410  19.282  0.00  0.00    +0.000 A 
ATOM     33  C   UNL     1       2.200  16.677  18.962  0.00  0.00    +0.000 A 
ATOM     34  F   UNL     1       1.845  17.921  18.615  0.00  0.00    +0.000 F 
ATOM     35  C   UNL     1       1.229  15.678  19.018  0.00  0.00    +0.000 A 
ENDBRANCH  28  29
BRANCH  28  36
ATOM     36  C   UNL     1      -0.873  13.508  18.944  0.00  0.00    +0.000 C 
BRANCH  36  37
ATOM     37  O   UNL     1      -1.017  13.006  17.619  0.00  0.00    +0.000 OA
ATOM     38  H   UNL     1      -0.885  13.760  17.000  0.00  0.00    +0.000 HD
ENDBRANCH  36  37
ENDBRANCH  28  36
ENDBRANCH  26  28
ENDBRANCH   4  24
TORSDOF 9
ENDMDL
MODEL 6
REMARK VINA RESULT:      -8.7      1.421      1.758
REMARK  Name = 
REMARK  10 active torsions:
REMARK  status: ('A' for Active; 'I' for Inactive)
REMARK    1  A    between atoms: C_1  and  C_2
REMARK    2  A    between atoms: C_2  and  N_3
REMARK    3  A    between atoms: C_5  and  C_6
REMARK    4  A    between atoms: C_9  and  N_10
REMARK    5  A    between atoms: C_11  and  C_12
REMARK    6  A    between atoms: C_15  and  C_16
REMARK    7  A    between atoms: N_18  and  CA_19
REMARK    8  A    between atoms: CA_19  and  C_20
REMARK    9  A    between atoms: CA_19  and  C_22
REMARK   10  A    between atoms: C_20  and  O_21
REMARK                            x       y       z     vdW  Elec       q    Type
REMARK                         _______ _______ _______ _____ _____    ______ ____
ROOT
ATOM      1  C   UNL     1       2.254   7.364  19.484  0.00  0.00    +0.000 A 
ATOM      2  C   UNL     1       1.676   7.756  20.702  0.00  0.00    +0.000 A 
ATOM      3  C   UNL     1       0.955   8.955  20.828  0.00  0.00    +0.000 A 
ATOM      4  C   UNL     1       0.824   9.833  19.746  0.00  0.00    +0.000 A 
ATOM      5  C   UNL     1       1.430   9.486  18.547  0.00  0.00    +0.000 A 
ATOM      6  F   UNL     1       1.380  10.302  17.483  0.00  0.00    +0.000 F 
ATOM      7  C   UNL     1       2.112   8.272  18.411  0.00  0.00    +0.000 A 
ENDROOT
BRANCH   1  12
ATOM      8  C   UNL     1       4.743   4.814  18.129  0.00  0.00    +0.000 A 
ATOM      9  C   UNL     1       4.332   3.693  18.824  0.00  0.00    +0.000 A 
ATOM     10  N   UNL     1       3.327   3.694  19.729  0.00  0.00    +0.000 NA
ATOM     11  C   UNL     1       2.665   4.856  19.946  0.00  0.00    +0.000 A 
ATOM     12  C   UNL     1       2.985   6.071  19.309  0.00  0.00    +0.000 A 
ATOM     13  C   UNL     1       4.069   6.006  18.409  0.00  0.00    +0.000 A 
BRANCH   8  16
ATOM     14  N   UNL     1       6.755   4.687  15.146  0.00  0.00    +0.000 N 
ATOM     15  C   UNL     1       5.547   4.865  15.756  0.00  0.00    +0.000 A 
ATOM     16  C   UNL     1       5.776   4.768  17.113  0.00  0.00    +0.000 A 
ATOM     17  C   UNL     1       7.170   4.553  17.207  0.00  0.00    +0.000 A 
ATOM     18  N   UNL     1       7.767   4.505  16.011  0.00  0.00    +0.000 NA
BRANCH  14  20
ATOM     19  C   UNL     1       6.170   3.593  13.017  0.00  0.00    +0.000 C 
ATOM     20  C   UNL     1       6.999   4.657  13.716  0.00  0.00    +0.000 C 
ENDBRANCH  14  20
ENDBRANCH   8  16
BRANCH  11  21
ATOM     21  N   UNL     1       1.636   4.725  20.875  0.00  0.00    +0.000 N 
ATOM     22  H   UNL     1       1.823   3.875  21.404  0.00  0.00    +0.000 HD
ATOM     23  H   UNL     1       0.730   4.694  20.422  0.00  0.00    +0.000 HD
ENDBRANCH  11  21
ENDBRANCH   1  12
BRANCH   4  24
ATOM     24  C   UNL     1       0.041  11.080  19.944  0.00  0.00    +0.000 C 
ATOM     25  O   UNL     1       0.633  12.151  20.070  0.00  0.00    +0.000 OA
ATOM     26  N   UNL     1      -1.330  10.997  19.973  0.00  0.00    +0.000 N 
ATOM     27  H   UNL     1      -1.769  10.096  19.832  0.00  0.00    +0.000 HD
BRANCH  26  28
ATOM     28  CA  UNL     1      -2.218  12.149  20.195  0.00  0.00    +0.000 C 
BRANCH  28  29
ATOM     29  C   UNL     1      -3.434  12.147  19.272  0.00  0.00    +0.000 A 
ATOM     30  C   UNL     1      -4.663  12.661  19.734  0.00  0.00    +0.000 A 
ATOM     31  C   UNL     1      -5.822  12.585  18.954  0.00  0.00    +0.000 A 
ATOM     32  C   UNL     1      -5.778  11.988  17.698  0.00  0.00    +0.000 A 
ATOM     33  C   UNL     1      -4.572  11.490  17.227  0.00  0.00    +0.000 A 
ATOM     34  F   UNL     1      -4.527  10.908  16.022  0.00  0.00    +0.000 F 
ATOM     35  C   UNL     1      -3.410  11.567  17.994  0.00  0.00    +0.000 A 
ENDBRANCH  28  29
BRANCH  28  36
ATOM     36  C   UNL     1      -2.474  12.426  21.703  0.00  0.00    +0.000 C 
BRANCH  36  37
ATOM     37  O   UNL     1      -2.083  13.718  22.159  0.00  0.00    +0.000 OA
ATOM     38  H   UNL     1      -1.736  14.214  21.383  0.00  0.00    +0.000 HD
ENDBRANCH  36  37
ENDBRANCH  28  36
ENDBRANCH  26  28
ENDBRANCH   4  24
TORSDOF 9
ENDMDL
MODEL 7
REMARK VINA RESULT:      -8.7      2.201      2.371
REMARK  Name = 
REMARK  10 active torsions:
REMARK  status: ('A' for Active; 'I' for Inactive)
REMARK    1  A    between atoms: C_1  and  C_2
REMARK    2  A    between atoms: C_2  and  N_3
REMARK    3  A    between atoms: C_5  and  C_6
REMARK    4  A    between atoms: C_9  and  N_10
REMARK    5  A    between atoms: C_11  and  C_12
REMARK    6  A    between atoms: C_15  and  C_16
REMARK    7  A    between atoms: N_18  and  CA_19
REMARK    8  A    between atoms: CA_19  and  C_20
REMARK    9  A    between atoms: CA_19  and  C_22
REMARK   10  A    between atoms: C_20  and  O_21
REMARK                            x       y       z     vdW  Elec       q    Type
REMARK                         _______ _______ _______ _____ _____    ______ ____
ROOT
ATOM      1  C   UNL     1       2.342   7.419  18.795  0.00  0.00    +0.000 A 
ATOM      2  C   UNL     1       2.066   8.355  17.786  0.00  0.00    +0.000 A 
ATOM      3  C   UNL     1       1.388   9.555  18.053  0.00  0.00    +0.000 A 
ATOM      4  C   UNL     1       0.918   9.845  19.339  0.00  0.00    +0.000 A 
ATOM      5  C   UNL     1       1.137   8.909  20.340  0.00  0.00    +0.000 A 
ATOM      6  F   UNL     1       0.676   9.104  21.585  0.00  0.00    +0.000 F 
ATOM      7  C   UNL     1       1.850   7.733  20.082  0.00  0.00    +0.000 A 
ENDROOT
BRANCH   1  12
ATOM      8  C   UNL     1       4.754   4.953  17.172  0.00  0.00    +0.000 A 
ATOM      9  C   UNL     1       4.487   3.829  17.931  0.00  0.00    +0.000 A 
ATOM     10  N   UNL     1       3.605   3.805  18.956  0.00  0.00    +0.000 NA
ATOM     11  C   UNL     1       2.923   4.942  19.238  0.00  0.00    +0.000 A 
ATOM     12  C   UNL     1       3.104   6.156  18.548  0.00  0.00    +0.000 A 
ATOM     13  C   UNL     1       4.067   6.120  17.518  0.00  0.00    +0.000 A 
BRANCH   8  16
ATOM     14  N   UNL     1       6.514   4.422  14.076  0.00  0.00    +0.000 N 
ATOM     15  C   UNL     1       5.396   4.278  14.845  0.00  0.00    +0.000 A 
ATOM     16  C   UNL     1       5.651   4.931  16.034  0.00  0.00    +0.000 A 
ATOM     17  C   UNL     1       6.952   5.456  15.859  0.00  0.00    +0.000 A 
ATOM     18  N   UNL     1       7.477   5.149  14.668  0.00  0.00    +0.000 NA
BRANCH  14  20
ATOM     19  C   UNL     1       5.447   3.294  12.162  0.00  0.00    +0.000 C 
ATOM     20  C   UNL     1       6.727   3.858  12.757  0.00  0.00    +0.000 C 
ENDBRANCH  14  20
ENDBRANCH   8  16
BRANCH  11  21
ATOM     21  N   UNL     1       2.027   4.784  20.292  0.00  0.00    +0.000 N 
ATOM     22  H   UNL     1       1.377   5.566  20.246  0.00  0.00    +0.000 HD
ATOM     23  H   UNL     1       2.507   4.746  21.184  0.00  0.00    +0.000 HD
ENDBRANCH  11  21
ENDBRANCH   1  12
BRANCH   4  24
ATOM     24  C   UNL     1       0.215  11.136  19.557  0.00  0.00    +0.000 C 
ATOM     25  O   UNL     1      -0.753  11.422  18.856  0.00  0.00    +0.000 OA
ATOM     26  N   UNL     1       0.672  11.972  20.547  0.00  0.00    +0.000 N 
ATOM     27  H   UNL     1       1.453  11.675  21.118  0.00  0.00    +0.000 HD
BRANCH  26  28
ATOM     28  CA  UNL     1       0.088  13.290  20.842  0.00  0.00    +0.000 C 
BRANCH  28  29
ATOM     29  C   UNL     1      -1.011  13.229  21.899  0.00  0.00    +0.000 A 
ATOM     30  C   UNL     1      -1.391  11.985  22.443  0.00  0.00    +0.000 A 
ATOM     31  C   UNL     1      -2.461  11.878  23.337  0.00  0.00    +0.000 A 
ATOM     32  C   UNL     1      -3.178  13.013  23.704  0.00  0.00    +0.000 A 
ATOM     33  C   UNL     1      -2.806  14.245  23.186  0.00  0.00    +0.000 A 
ATOM     34  F   UNL     1      -3.499  15.339  23.530  0.00  0.00    +0.000 F 
ATOM     35  C   UNL     1      -1.738  14.362  22.299  0.00  0.00    +0.000 A 
ENDBRANCH  28  29
BRANCH  28  36
ATOM     36  C   UNL     1       1.167  14.398  21.006  0.00  0.00    +0.000 C 
BRANCH  36  37
ATOM     37  O   UNL     1       1.732  14.508  22.309  0.00  0.00    +0.000 OA
ATOM     38  H   UNL     1       1.013  14.782  22.922  0.00  0.00    +0.000 HD
ENDBRANCH  36  37
ENDBRANCH  28  36
ENDBRANCH  26  28
ENDBRANCH   4  24
TORSDOF 9
ENDMDL
MODEL 8
REMARK VINA RESULT:      -8.7      0.892      1.210
REMARK  Name = 
REMARK  10 active torsions:
REMARK  status: ('A' for Active; 'I' for Inactive)
REMARK    1  A    between atoms: C_1  and  C_2
REMARK    2  A    between atoms: C_2  and  N_3
REMARK    3  A    between atoms: C_5  and  C_6
REMARK    4  A    between atoms: C_9  and  N_10
REMARK    5  A    between atoms: C_11  and  C_12
REMARK    6  A    between atoms: C_15  and  C_16
REMARK    7  A    between atoms: N_18  and  CA_19
REMARK    8  A    between atoms: CA_19  and  C_20
REMARK    9  A    between atoms: CA_19  and  C_22
REMARK   10  A    between atoms: C_20  and  O_21
REMARK                            x       y       z     vdW  Elec       q    Type
REMARK                         _______ _______ _______ _____ _____    ______ ____
ROOT
ATOM      1  C   UNL     1       2.273   6.952  19.112  0.00  0.00    +0.000 A 
ATOM      2  C   UNL     1       1.913   7.137  20.456  0.00  0.00    +0.000 A 
ATOM      3  C   UNL     1       1.348   8.338  20.914  0.00  0.00    +0.000 A 
ATOM      4  C   UNL     1       1.163   9.422  20.048  0.00  0.00    +0.000 A 
ATOM      5  C   UNL     1       1.558   9.276  18.726  0.00  0.00    +0.000 A 
ATOM      6  F   UNL     1       1.448  10.289  17.853  0.00  0.00    +0.000 F 
ATOM      7  C   UNL     1       2.081   8.064  18.262  0.00  0.00    +0.000 A 
ENDROOT
BRANCH   1  12
ATOM      8  C   UNL     1       4.445   4.549  17.102  0.00  0.00    +0.000 A 
ATOM      9  C   UNL     1       3.866   3.348  17.467  0.00  0.00    +0.000 A 
ATOM     10  N   UNL     1       2.841   3.242  18.342  0.00  0.00    +0.000 NA
ATOM     11  C   UNL     1       2.332   4.381  18.870  0.00  0.00    +0.000 A 
ATOM     12  C   UNL     1       2.831   5.667  18.588  0.00  0.00    +0.000 A 
ATOM     13  C   UNL     1       3.927   5.701  17.700  0.00  0.00    +0.000 A 
BRANCH   8  16
ATOM     14  N   UNL     1       6.578   4.447  14.203  0.00  0.00    +0.000 N 
ATOM     15  C   UNL     1       5.346   4.314  14.775  0.00  0.00    +0.000 A 
ATOM     16  C   UNL     1       5.496   4.638  16.108  0.00  0.00    +0.000 A 
ATOM     17  C   UNL     1       6.864   4.978  16.222  0.00  0.00    +0.000 A 
ATOM     18  N   UNL     1       7.522   4.863  15.063  0.00  0.00    +0.000 NA
BRANCH  14  20
ATOM     19  C   UNL     1       5.926   3.214  12.172  0.00  0.00    +0.000 C 
ATOM     20  C   UNL     1       6.918   4.164  12.821  0.00  0.00    +0.000 C 
ENDBRANCH  14  20
ENDBRANCH   8  16
BRANCH  11  21
ATOM     21  N   UNL     1       1.264   4.145  19.732  0.00  0.00    +0.000 N 
ATOM     22  H   UNL     1       1.505   3.323  20.282  0.00  0.00    +0.000 HD
ATOM     23  H   UNL     1       0.397   4.016  19.222  0.00  0.00    +0.000 HD
ENDBRANCH  11  21
ENDBRANCH   1  12
BRANCH   4  24
ATOM     24  C   UNL     1       0.552  10.661  20.594  0.00  0.00    +0.000 C 
ATOM     25  O   UNL     1       1.239  11.428  21.266  0.00  0.00    +0.000 OA
ATOM     26  N   UNL     1      -0.771  10.916  20.322  0.00  0.00    +0.000 N 
ATOM     27  H   UNL     1      -1.284  10.269  19.736  0.00  0.00    +0.000 HD
BRANCH  26  28
ATOM     28  CA  UNL     1      -1.503  12.087  20.829  0.00  0.00    +0.000 C 
BRANCH  28  29
ATOM     29  C   UNL     1      -2.865  12.268  20.165  0.00  0.00    +0.000 A 
ATOM     30  C   UNL     1      -3.924  12.854  20.889  0.00  0.00    +0.000 A 
ATOM     31  C   UNL     1      -5.211  12.945  20.350  0.00  0.00    +0.000 A 
ATOM     32  C   UNL     1      -5.469  12.447  19.075  0.00  0.00    +0.000 A 
ATOM     33  C   UNL     1      -4.432  11.882  18.347  0.00  0.00    +0.000 A 
ATOM     34  F   UNL     1      -4.678  11.395  17.124  0.00  0.00    +0.000 F 
ATOM     35  C   UNL     1      -3.145  11.792  18.874  0.00  0.00    +0.000 A 
ENDBRANCH  28  29
BRANCH  28  36
ATOM     36  C   UNL     1      -1.449  12.201  22.379  0.00  0.00    +0.000 C 
BRANCH  36  37
ATOM     37  O   UNL     1      -1.502  10.963  23.081  0.00  0.00    +0.000 OA
ATOM     38  H   UNL     1      -1.291  11.148  24.025  0.00  0.00    +0.000 HD
ENDBRANCH  36  37
ENDBRANCH  28  36
ENDBRANCH  26  28
ENDBRANCH   4  24
TORSDOF 9
ENDMDL
MODEL 9
REMARK VINA RESULT:      -8.7      1.161      1.647
REMARK  Name = 
REMARK  10 active torsions:
REMARK  status: ('A' for Active; 'I' for Inactive)
REMARK    1  A    between atoms: C_1  and  C_2
REMARK    2  A    between atoms: C_2  and  N_3
REMARK    3  A    between atoms: C_5  and  C_6
REMARK    4  A    between atoms: C_9  and  N_10
REMARK    5  A    between atoms: C_11  and  C_12
REMARK    6  A    between atoms: C_15  and  C_16
REMARK    7  A    between atoms: N_18  and  CA_19
REMARK    8  A    between atoms: CA_19  and  C_20
REMARK    9  A    between atoms: CA_19  and  C_22
REMARK   10  A    between atoms: C_20  and  O_21
REMARK                            x       y       z     vdW  Elec       q    Type
REMARK                         _______ _______ _______ _____ _____    ______ ____
ROOT
ATOM      1  C   UNL     1       2.382   6.995  18.995  0.00  0.00    +0.000 A 
ATOM      2  C   UNL     1       1.954   7.172  20.320  0.00  0.00    +0.000 A 
ATOM      3  C   UNL     1       1.327   8.355  20.745  0.00  0.00    +0.000 A 
ATOM      4  C   UNL     1       1.145   9.428  19.866  0.00  0.00    +0.000 A 
ATOM      5  C   UNL     1       1.607   9.292  18.564  0.00  0.00    +0.000 A 
ATOM      6  F   UNL     1       1.504  10.297  17.682  0.00  0.00    +0.000 F 
ATOM      7  C   UNL     1       2.193   8.097  18.131  0.00  0.00    +0.000 A 
ENDROOT
BRANCH   1  12
ATOM      8  C   UNL     1       4.612   4.652  16.978  0.00  0.00    +0.000 A 
ATOM      9  C   UNL     1       4.154   3.434  17.443  0.00  0.00    +0.000 A 
ATOM     10  N   UNL     1       3.196   3.301  18.387  0.00  0.00    +0.000 NA
ATOM     11  C   UNL     1       2.631   4.426  18.886  0.00  0.00    +0.000 A 
ATOM     12  C   UNL     1       3.008   5.728  18.504  0.00  0.00    +0.000 A 
ATOM     13  C   UNL     1       4.041   5.794  17.546  0.00  0.00    +0.000 A 
BRANCH   8  16
ATOM     14  N   UNL     1       6.595   4.492  13.977  0.00  0.00    +0.000 N 
ATOM     15  C   UNL     1       5.424   4.261  14.639  0.00  0.00    +0.000 A 
ATOM     16  C   UNL     1       5.590   4.764  15.914  0.00  0.00    +0.000 A 
ATOM     17  C   UNL     1       6.899   5.300  15.899  0.00  0.00    +0.000 A 
ATOM     18  N   UNL     1       7.510   5.137  14.721  0.00  0.00    +0.000 NA
BRANCH  14  20
ATOM     19  C   UNL     1       5.883   3.117  12.061  0.00  0.00    +0.000 C 
ATOM     20  C   UNL     1       6.906   4.092  12.618  0.00  0.00    +0.000 C 
ENDBRANCH  14  20
ENDBRANCH   8  16
BRANCH  11  21
ATOM     21  N   UNL     1       1.639   4.160  19.828  0.00  0.00    +0.000 N 
ATOM     22  H   UNL     1       2.031   4.387  20.740  0.00  0.00    +0.000 HD
ATOM     23  H   UNL     1       1.332   3.195  19.779  0.00  0.00    +0.000 HD
ENDBRANCH  11  21
ENDBRANCH   1  12
BRANCH   4  24
ATOM     24  C   UNL     1       0.467  10.648  20.376  0.00  0.00    +0.000 C 
ATOM     25  O   UNL     1       1.110  11.467  21.030  0.00  0.00    +0.000 OA
ATOM     26  N   UNL     1      -0.865  10.826  20.092  0.00  0.00    +0.000 N 
ATOM     27  H   UNL     1      -1.340  10.138  19.521  0.00  0.00    +0.000 HD
BRANCH  26  28
ATOM     28  CA  UNL     1      -1.660  11.970  20.564  0.00  0.00    +0.000 C 
BRANCH  28  29
ATOM     29  C   UNL     1      -3.008  12.089  19.858  0.00  0.00    +0.000 A 
ATOM     30  C   UNL     1      -3.164  11.567  18.558  0.00  0.00    +0.000 A 
ATOM     31  C   UNL     1      -4.352  11.744  17.840  0.00  0.00    +0.000 A 
ATOM     32  C   UNL     1      -5.408  12.453  18.407  0.00  0.00    +0.000 A 
ATOM     33  C   UNL     1      -5.272  12.959  19.692  0.00  0.00    +0.000 A 
ATOM     34  F   UNL     1      -6.282  13.648  20.237  0.00  0.00    +0.000 F 
ATOM     35  C   UNL     1      -4.094  12.782  20.416  0.00  0.00    +0.000 A 
ENDBRANCH  28  29
BRANCH  28  36
ATOM     36  C   UNL     1      -1.659  12.101  22.114  0.00  0.00    +0.000 C 
BRANCH  36  37
ATOM     37  O   UNL     1      -0.765  13.077  22.641  0.00  0.00    +0.000 OA
ATOM     38  H   UNL     1      -1.256  13.929  22.696  0.00  0.00    +0.000 HD
ENDBRANCH  36  37
ENDBRANCH  28  36
ENDBRANCH  26  28
ENDBRANCH   4  24
TORSDOF 9
ENDMDL
