MODEL 1
REMARK VINA RESULT:      -8.1      0.000      0.000
REMARK  Name = 
REMARK  10 active torsions:
REMARK  status: ('A' for Active; 'I' for Inactive)
REMARK    1  A    between atoms: C_1  and  C_2
REMARK    2  A    between atoms: N_4  and  C_5
REMARK    3  A    between atoms: C_5  and  C_6
REMARK    4  A    between atoms: C_5  and  C_8
REMARK    5  A    between atoms: C_5  and  C_10
REMARK    6  A    between atoms: C_6  and  O_7
REMARK    7  A    between atoms: C_8  and  O_9
REMARK    8  A    between atoms: C_10  and  C_11
REMARK    9  A    between atoms: C_11  and  C_12
REMARK   10  A    between atoms: C_15  and  O_16
REMARK                            x       y       z     vdW  Elec       q    Type
REMARK                         _______ _______ _______ _____ _____    ______ ____
ROOT
ATOM      1  C   UNL     1       5.152   5.490  15.871  0.00  0.00    +0.000 C 
ENDROOT
BRANCH   1   2
ATOM      2  C   UNL     1       6.698   5.297  16.026  0.00  0.00    +0.000 C 
BRANCH   2   6
ATOM      3  C   UNL     1       8.068   8.416  17.800  0.00  0.00    +0.000 C 
ATOM      4  C   UNL     1       7.452   7.049  17.672  0.00  0.00    +0.000 C 
ATOM      5  O   UNL     1       7.081   6.433  18.649  0.00  0.00    +0.000 OA
ATOM      6  N   UNL     1       7.339   6.599  16.366  0.00  0.00    +0.000 N 
ATOM      7  H   UNL     1       7.835   7.105  15.654  0.00  0.00    +0.000 HD
ENDBRANCH   2   6
BRANCH   2   8
ATOM      8  C   UNL     1       7.296   4.759  14.684  0.00  0.00    +0.000 C 
BRANCH   8   9
ATOM      9  O   UNL     1       8.195   5.689  14.082  0.00  0.00    +0.000 OA
ATOM     10  H   UNL     1       7.696   6.471  13.796  0.00  0.00    +0.000 HD
ENDBRANCH   8   9
ENDBRANCH   2   8
BRANCH   2  11
ATOM     11  C   UNL     1       6.936   4.263  17.182  0.00  0.00    +0.000 C 
BRANCH  11  12
ATOM     12  O   UNL     1       8.294   3.990  17.518  0.00  0.00    +0.000 OA
ATOM     13  H   UNL     1       8.870   4.487  16.924  0.00  0.00    +0.000 HD
ENDBRANCH  11  12
ENDBRANCH   2  11
ENDBRANCH   1   2
BRANCH   1  14
ATOM     14  C   UNL     1       4.321   4.476  16.672  0.00  0.00    +0.000 C 
BRANCH  14  15
ATOM     15  C   UNL     1       3.546   5.081  17.825  0.00  0.00    +0.000 A 
ATOM     16  C   UNL     1       3.661   6.475  18.000  0.00  0.00    +0.000 A 
ATOM     17  C   UNL     1       2.988   7.125  19.023  0.00  0.00    +0.000 A 
ATOM     18  C   UNL     1       2.191   6.387  19.889  0.00  0.00    +0.000 A 
ATOM     19  C   UNL     1       2.062   4.987  19.764  0.00  0.00    +0.000 A 
ATOM     20  C   UNL     1       1.270   4.248  20.671  0.00  0.00    +0.000 A 
ATOM     21  C   UNL     1       1.156   2.863  20.580  0.00  0.00    +0.000 A 
ATOM     22  C   UNL     1       1.842   2.185  19.586  0.00  0.00    +0.000 A 
ATOM     23  C   UNL     1       2.628   2.897  18.673  0.00  0.00    +0.000 A 
ATOM     24  C   UNL     1       2.752   4.309  18.728  0.00  0.00    +0.000 A 
BRANCH  18  25
ATOM     25  O   UNL     1       1.523   7.036  20.897  0.00  0.00    +0.000 OA
ATOM     26  H   UNL     1       1.387   6.416  21.632  0.00  0.00    +0.000 HD
ENDBRANCH  18  25
ENDBRANCH  14  15
ENDBRANCH   1  14
TORSDOF 9
ENDMDL
MODEL 2
REMARK VINA RESULT:      -7.8      1.831      3.644
REMARK  Name = 
REMARK  10 active torsions:
REMARK  status: ('A' for Active; 'I' for Inactive)
REMARK    1  A    between atoms: C_1  and  C_2
REMARK    2  A    between atoms: N_4  and  C_5
REMARK    3  A    between atoms: C_5  and  C_6
REMARK    4  A    between atoms: C_5  and  C_8
REMARK    5  A    between atoms: C_5  and  C_10
REMARK    6  A    between atoms: C_6  and  O_7
REMARK    7  A    between atoms: C_8  and  O_9
REMARK    8  A    between atoms: C_10  and  C_11
REMARK    9  A    between atoms: C_11  and  C_12
REMARK   10  A    between atoms: C_15  and  O_16
REMARK                            x       y       z     vdW  Elec       q    Type
REMARK                         _______ _______ _______ _____ _____    ______ ____
ROOT
ATOM      1  C   UNL     1       5.009   3.460  16.598  0.00  0.00    +0.000 C 
ENDROOT
BRANCH   1   2
ATOM      2  C   UNL     1       5.974   4.452  15.864  0.00  0.00    +0.000 C 
BRANCH   2   6
ATOM      3  C   UNL     1       7.099   4.078  12.212  0.00  0.00    +0.000 C 
ATOM      4  C   UNL     1       7.075   4.641  13.607  0.00  0.00    +0.000 C 
ATOM      5  O   UNL     1       7.771   5.587  13.915  0.00  0.00    +0.000 OA
ATOM      6  N   UNL     1       6.190   4.003  14.461  0.00  0.00    +0.000 N 
ATOM      7  H   UNL     1       5.799   3.128  14.157  0.00  0.00    +0.000 HD
ENDBRANCH   2   6
BRANCH   2   8
ATOM      8  C   UNL     1       7.347   4.496  16.613  0.00  0.00    +0.000 C 
BRANCH   8   9
ATOM      9  O   UNL     1       7.220   4.165  17.994  0.00  0.00    +0.000 OA
ATOM     10  H   UNL     1       6.336   3.797  18.151  0.00  0.00    +0.000 HD
ENDBRANCH   8   9
ENDBRANCH   2   8
BRANCH   2  11
ATOM     11  C   UNL     1       5.300   5.870  15.878  0.00  0.00    +0.000 C 
BRANCH  11  12
ATOM     12  O   UNL     1       6.159   6.975  16.145  0.00  0.00    +0.000 OA
ATOM     13  H   UNL     1       6.572   7.259  15.320  0.00  0.00    +0.000 HD
ENDBRANCH  11  12
ENDBRANCH   2  11
ENDBRANCH   1   2
BRANCH   1  14
ATOM     14  C   UNL     1       3.535   3.895  16.563  0.00  0.00    +0.000 C 
BRANCH  14  15
ATOM     15  C   UNL     1       2.797   3.692  17.870  0.00  0.00    +0.000 A 
ATOM     16  C   UNL     1       2.416   2.371  18.181  0.00  0.00    +0.000 A 
ATOM     17  C   UNL     1       1.740   2.080  19.356  0.00  0.00    +0.000 A 
ATOM     18  C   UNL     1       1.433   3.110  20.237  0.00  0.00    +0.000 A 
ATOM     19  C   UNL     1       1.776   4.450  19.957  0.00  0.00    +0.000 A 
ATOM     20  C   UNL     1       1.430   5.488  20.850  0.00  0.00    +0.000 A 
ATOM     21  C   UNL     1       1.736   6.820  20.575  0.00  0.00    +0.000 A 
ATOM     22  C   UNL     1       2.383   7.141  19.395  0.00  0.00    +0.000 A 
ATOM     23  C   UNL     1       2.740   6.128  18.498  0.00  0.00    +0.000 A 
ATOM     24  C   UNL     1       2.459   4.762  18.755  0.00  0.00    +0.000 A 
BRANCH  18  25
ATOM     25  O   UNL     1       0.768   2.815  21.401  0.00  0.00    +0.000 OA
ATOM     26  H   UNL     1       1.108   3.387  22.109  0.00  0.00    +0.000 HD
ENDBRANCH  18  25
ENDBRANCH  14  15
ENDBRANCH   1  14
TORSDOF 9
ENDMDL
MODEL 3
REMARK VINA RESULT:      -7.7      0.901      2.419
REMARK  Name = 
REMARK  10 active torsions:
REMARK  status: ('A' for Active; 'I' for Inactive)
REMARK    1  A    between atoms: C_1  and  C_2
REMARK    2  A    between atoms: N_4  and  C_5
REMARK    3  A    between atoms: C_5  and  C_6
REMARK    4  A    between atoms: C_5  and  C_8
REMARK    5  A    between atoms: C_5  and  C_10
REMARK    6  A    between atoms: C_6  and  O_7
REMARK    7  A    between atoms: C_8  and  O_9
REMARK    8  A    between atoms: C_10  and  C_11
REMARK    9  A    between atoms: C_11  and  C_12
REMARK   10  A    between atoms: C_15  and  O_16
REMARK                            x       y       z     vdW  Elec       q    Type
REMARK                         _______ _______ _______ _____ _____    ______ ____
ROOT
ATOM      1  C   UNL     1       5.176   5.845  16.085  0.00  0.00    +0.000 C 
ENDROOT
BRANCH   1   2
ATOM      2  C   UNL     1       6.711   5.560  16.213  0.00  0.00    +0.000 C 
BRANCH   2   6
ATOM      3  C   UNL     1       7.765   4.839  12.591  0.00  0.00    +0.000 C 
ATOM      4  C   UNL     1       6.960   4.708  13.856  0.00  0.00    +0.000 C 
ATOM      5  O   UNL     1       6.074   3.885  13.954  0.00  0.00    +0.000 OA
ATOM      6  N   UNL     1       7.343   5.578  14.864  0.00  0.00    +0.000 N 
ATOM      7  H   UNL     1       7.962   6.331  14.619  0.00  0.00    +0.000 HD
ENDBRANCH   2   6
BRANCH   2   8
ATOM      8  C   UNL     1       6.930   4.158  16.871  0.00  0.00    +0.000 C 
BRANCH   8   9
ATOM      9  O   UNL     1       8.172   4.075  17.567  0.00  0.00    +0.000 OA
ATOM     10  H   UNL     1       8.200   3.244  18.066  0.00  0.00    +0.000 HD
ENDBRANCH   8   9
ENDBRANCH   2   8
BRANCH   2  11
ATOM     11  C   UNL     1       7.331   6.687  17.112  0.00  0.00    +0.000 C 
BRANCH  11  12
ATOM     12  O   UNL     1       7.176   6.530  18.520  0.00  0.00    +0.000 OA
ATOM     13  H   UNL     1       7.323   5.604  18.751  0.00  0.00    +0.000 HD
ENDBRANCH  11  12
ENDBRANCH   2  11
ENDBRANCH   1   2
BRANCH   1  14
ATOM     14  C   UNL     1       4.294   4.777  16.750  0.00  0.00    +0.000 C 
BRANCH  14  15
ATOM     15  C   UNL     1       3.484   5.285  17.926  0.00  0.00    +0.000 A 
ATOM     16  C   UNL     1       3.522   6.674  18.165  0.00  0.00    +0.000 A 
ATOM     17  C   UNL     1       2.811   7.238  19.213  0.00  0.00    +0.000 A 
ATOM     18  C   UNL     1       2.054   6.418  20.040  0.00  0.00    +0.000 A 
ATOM     19  C   UNL     1       2.003   5.020  19.851  0.00  0.00    +0.000 A 
ATOM     20  C   UNL     1       1.251   4.198  20.719  0.00  0.00    +0.000 A 
ATOM     21  C   UNL     1       1.213   2.814  20.564  0.00  0.00    +0.000 A 
ATOM     22  C   UNL     1       1.938   2.222  19.544  0.00  0.00    +0.000 A 
ATOM     23  C   UNL     1       2.686   3.017  18.669  0.00  0.00    +0.000 A 
ATOM     24  C   UNL     1       2.732   4.430  18.788  0.00  0.00    +0.000 A 
BRANCH  18  25
ATOM     25  O   UNL     1       1.349   6.983  21.073  0.00  0.00    +0.000 OA
ATOM     26  H   UNL     1       1.746   6.701  21.914  0.00  0.00    +0.000 HD
ENDBRANCH  18  25
ENDBRANCH  14  15
ENDBRANCH   1  14
TORSDOF 9
ENDMDL
MODEL 4
REMARK VINA RESULT:      -7.5      1.655      2.947
REMARK  Name = 
REMARK  10 active torsions:
REMARK  status: ('A' for Active; 'I' for Inactive)
REMARK    1  A    between atoms: C_1  and  C_2
REMARK    2  A    between atoms: N_4  and  C_5
REMARK    3  A    between atoms: C_5  and  C_6
REMARK    4  A    between atoms: C_5  and  C_8
REMARK    5  A    between atoms: C_5  and  C_10
REMARK    6  A    between atoms: C_6  and  O_7
REMARK    7  A    between atoms: C_8  and  O_9
REMARK    8  A    between atoms: C_10  and  C_11
REMARK    9  A    between atoms: C_11  and  C_12
REMARK   10  A    between atoms: C_15  and  O_16
REMARK                            x       y       z     vdW  Elec       q    Type
REMARK                         _______ _______ _______ _____ _____    ______ ____
ROOT
ATOM      1  C   UNL     1       5.307   3.834  16.731  0.00  0.00    +0.000 C 
ENDROOT
BRANCH   1   2
ATOM      2  C   UNL     1       6.248   5.016  16.317  0.00  0.00    +0.000 C 
BRANCH   2   6
ATOM      3  C   UNL     1       8.328   5.581  19.496  0.00  0.00    +0.000 C 
ATOM      4  C   UNL     1       7.090   5.392  18.661  0.00  0.00    +0.000 C 
ATOM      5  O   UNL     1       5.983   5.460  19.154  0.00  0.00    +0.000 OA
ATOM      6  N   UNL     1       7.342   5.165  17.318  0.00  0.00    +0.000 N 
ATOM      7  H   UNL     1       8.287   4.952  17.050  0.00  0.00    +0.000 HD
ENDBRANCH   2   6
BRANCH   2   8
ATOM      8  C   UNL     1       5.422   6.343  16.249  0.00  0.00    +0.000 C 
BRANCH   8   9
ATOM      9  O   UNL     1       5.254   6.807  14.911  0.00  0.00    +0.000 OA
ATOM     10  H   UNL     1       4.308   6.937  14.738  0.00  0.00    +0.000 HD
ENDBRANCH   8   9
ENDBRANCH   2   8
BRANCH   2  11
ATOM     11  C   UNL     1       6.850   4.675  14.909  0.00  0.00    +0.000 C 
BRANCH  11  12
ATOM     12  O   UNL     1       7.829   5.581  14.404  0.00  0.00    +0.000 OA
ATOM     13  H   UNL     1       8.568   5.622  15.023  0.00  0.00    +0.000 HD
ENDBRANCH  11  12
ENDBRANCH   2  11
ENDBRANCH   1   2
BRANCH   1  14
ATOM     14  C   UNL     1       3.812   4.154  16.576  0.00  0.00    +0.000 C 
BRANCH  14  15
ATOM     15  C   UNL     1       2.985   3.873  17.814  0.00  0.00    +0.000 A 
ATOM     16  C   UNL     1       2.623   2.528  18.039  0.00  0.00    +0.000 A 
ATOM     17  C   UNL     1       1.872   2.166  19.146  0.00  0.00    +0.000 A 
ATOM     18  C   UNL     1       1.468   3.147  20.045  0.00  0.00    +0.000 A 
ATOM     19  C   UNL     1       1.790   4.507  19.849  0.00  0.00    +0.000 A 
ATOM     20  C   UNL     1       1.347   5.494  20.757  0.00  0.00    +0.000 A 
ATOM     21  C   UNL     1       1.630   6.845  20.563  0.00  0.00    +0.000 A 
ATOM     22  C   UNL     1       2.353   7.237  19.449  0.00  0.00    +0.000 A 
ATOM     23  C   UNL     1       2.807   6.275  18.540  0.00  0.00    +0.000 A 
ATOM     24  C   UNL     1       2.550   4.892  18.716  0.00  0.00    +0.000 A 
BRANCH  18  25
ATOM     25  O   UNL     1       0.729   2.782  21.141  0.00  0.00    +0.000 OA
ATOM     26  H   UNL     1       0.674   1.812  21.174  0.00  0.00    +0.000 HD
ENDBRANCH  18  25
ENDBRANCH  14  15
ENDBRANCH   1  14
TORSDOF 9
ENDMDL
MODEL 5
REMARK VINA RESULT:      -7.4      3.534      6.468
REMARK  Name = 
REMARK  10 active torsions:
REMARK  status: ('A' for Active; 'I' for Inactive)
REMARK    1  A    between atoms: C_1  and  C_2
REMARK    2  A    between atoms: N_4  and  C_5
REMARK    3  A    between atoms: C_5  and  C_6
REMARK    4  A    between atoms: C_5  and  C_8
REMARK    5  A    between atoms: C_5  and  C_10
REMARK    6  A    between atoms: C_6  and  O_7
REMARK    7  A    between atoms: C_8  and  O_9
REMARK    8  A    between atoms: C_10  and  C_11
REMARK    9  A    between atoms: C_11  and  C_12
REMARK   10  A    between atoms: C_15  and  O_16
REMARK                            x       y       z     vdW  Elec       q    Type
REMARK                         _______ _______ _______ _____ _____    ______ ____
ROOT
ATOM      1  C   UNL     1       2.302   8.830  17.914  0.00  0.00    +0.000 C 
ENDROOT
BRANCH   1   2
ATOM      2  C   UNL     1       1.256   9.854  18.471  0.00  0.00    +0.000 C 
BRANCH   2   6
ATOM      3  C   UNL     1      -2.305  10.223  17.083  0.00  0.00    +0.000 C 
ATOM      4  C   UNL     1      -1.158  10.424  18.036  0.00  0.00    +0.000 C 
ATOM      5  O   UNL     1      -1.300  11.047  19.068  0.00  0.00    +0.000 OA
ATOM      6  N   UNL     1       0.024   9.823  17.635  0.00  0.00    +0.000 N 
ATOM      7  H   UNL     1       0.078   9.488  16.689  0.00  0.00    +0.000 HD
ENDBRANCH   2   6
BRANCH   2   8
ATOM      8  C   UNL     1       1.868  11.294  18.442  0.00  0.00    +0.000 C 
BRANCH   8   9
ATOM      9  O   UNL     1       2.565  11.561  17.226  0.00  0.00    +0.000 OA
ATOM     10  H   UNL     1       3.098  10.785  16.991  0.00  0.00    +0.000 HD
ENDBRANCH   8   9
ENDBRANCH   2   8
BRANCH   2  11
ATOM     11  C   UNL     1       0.916   9.435  19.944  0.00  0.00    +0.000 C 
BRANCH  11  12
ATOM     12  O   UNL     1       0.930  10.477  20.917  0.00  0.00    +0.000 OA
ATOM     13  H   UNL     1       1.205  11.299  20.493  0.00  0.00    +0.000 HD
ENDBRANCH  11  12
ENDBRANCH   2  11
ENDBRANCH   1   2
BRANCH   1  14
ATOM     14  C   UNL     1       2.298   7.482  18.653  0.00  0.00    +0.000 C 
BRANCH  14  15
ATOM     15  C   UNL     1       3.180   6.425  18.020  0.00  0.00    +0.000 A 
ATOM     16  C   UNL     1       4.361   6.878  17.398  0.00  0.00    +0.000 A 
ATOM     17  C   UNL     1       5.237   5.989  16.794  0.00  0.00    +0.000 A 
ATOM     18  C   UNL     1       4.941   4.631  16.803  0.00  0.00    +0.000 A 
ATOM     19  C   UNL     1       3.760   4.134  17.396  0.00  0.00    +0.000 A 
ATOM     20  C   UNL     1       3.462   2.754  17.370  0.00  0.00    +0.000 A 
ATOM     21  C   UNL     1       2.287   2.251  17.925  0.00  0.00    +0.000 A 
ATOM     22  C   UNL     1       1.380   3.120  18.507  0.00  0.00    +0.000 A 
ATOM     23  C   UNL     1       1.658   4.491  18.549  0.00  0.00    +0.000 A 
ATOM     24  C   UNL     1       2.852   5.034  18.008  0.00  0.00    +0.000 A 
BRANCH  18  25
ATOM     25  O   UNL     1       5.814   3.755  16.208  0.00  0.00    +0.000 OA
ATOM     26  H   UNL     1       5.897   3.986  15.267  0.00  0.00    +0.000 HD
ENDBRANCH  18  25
ENDBRANCH  14  15
ENDBRANCH   1  14
TORSDOF 9
ENDMDL
MODEL 6
REMARK VINA RESULT:      -7.3      1.392      2.674
REMARK  Name = 
REMARK  10 active torsions:
REMARK  status: ('A' for Active; 'I' for Inactive)
REMARK    1  A    between atoms: C_1  and  C_2
REMARK    2  A    between atoms: N_4  and  C_5
REMARK    3  A    between atoms: C_5  and  C_6
REMARK    4  A    between atoms: C_5  and  C_8
REMARK    5  A    between atoms: C_5  and  C_10
REMARK    6  A    between atoms: C_6  and  O_7
REMARK    7  A    between atoms: C_8  and  O_9
REMARK    8  A    between atoms: C_10  and  C_11
REMARK    9  A    between atoms: C_11  and  C_12
REMARK   10  A    between atoms: C_15  and  O_16
REMARK                            x       y       z     vdW  Elec       q    Type
REMARK                         _______ _______ _______ _____ _____    ______ ____
ROOT
ATOM      1  C   UNL     1       5.086   3.829  16.822  0.00  0.00    +0.000 C 
ENDROOT
BRANCH   1   2
ATOM      2  C   UNL     1       6.202   4.574  16.014  0.00  0.00    +0.000 C 
BRANCH   2   6
ATOM      3  C   UNL     1       6.947   3.947  12.299  0.00  0.00    +0.000 C 
ATOM      4  C   UNL     1       7.068   4.601  13.649  0.00  0.00    +0.000 C 
ATOM      5  O   UNL     1       7.795   5.557  13.820  0.00  0.00    +0.000 OA
ATOM      6  N   UNL     1       6.272   4.030  14.628  0.00  0.00    +0.000 N 
ATOM      7  H   UNL     1       5.848   3.142  14.425  0.00  0.00    +0.000 HD
ENDBRANCH   2   6
BRANCH   2   8
ATOM      8  C   UNL     1       7.583   4.371  16.721  0.00  0.00    +0.000 C 
BRANCH   8   9
ATOM      9  O   UNL     1       7.460   4.320  18.141  0.00  0.00    +0.000 OA
ATOM     10  H   UNL     1       8.052   4.982  18.533  0.00  0.00    +0.000 HD
ENDBRANCH   8   9
ENDBRANCH   2   8
BRANCH   2  11
ATOM     11  C   UNL     1       5.827   6.097  15.975  0.00  0.00    +0.000 C 
BRANCH  11  12
ATOM     12  O   UNL     1       6.807   7.002  16.478  0.00  0.00    +0.000 OA
ATOM     13  H   UNL     1       7.317   6.561  17.168  0.00  0.00    +0.000 HD
ENDBRANCH  11  12
ENDBRANCH   2  11
ENDBRANCH   1   2
BRANCH   1  14
ATOM     14  C   UNL     1       3.682   4.422  16.624  0.00  0.00    +0.000 C 
BRANCH  14  15
ATOM     15  C   UNL     1       3.088   5.040  17.873  0.00  0.00    +0.000 A 
ATOM     16  C   UNL     1       3.171   6.443  17.983  0.00  0.00    +0.000 A 
ATOM     17  C   UNL     1       2.652   7.105  19.085  0.00  0.00    +0.000 A 
ATOM     18  C   UNL     1       2.044   6.371  20.096  0.00  0.00    +0.000 A 
ATOM     19  C   UNL     1       1.957   4.963  20.038  0.00  0.00    +0.000 A 
ATOM     20  C   UNL     1       1.361   4.230  21.088  0.00  0.00    +0.000 A 
ATOM     21  C   UNL     1       1.292   2.839  21.060  0.00  0.00    +0.000 A 
ATOM     22  C   UNL     1       1.830   2.151  19.985  0.00  0.00    +0.000 A 
ATOM     23  C   UNL     1       2.420   2.857  18.931  0.00  0.00    +0.000 A 
ATOM     24  C   UNL     1       2.491   4.273  18.920  0.00  0.00    +0.000 A 
BRANCH  18  25
ATOM     25  O   UNL     1       1.528   7.032  21.182  0.00  0.00    +0.000 OA
ATOM     26  H   UNL     1       1.012   7.794  20.869  0.00  0.00    +0.000 HD
ENDBRANCH  18  25
ENDBRANCH  14  15
ENDBRANCH   1  14
TORSDOF 9
ENDMDL
MODEL 7
REMARK VINA RESULT:      -7.2      3.416      5.755
REMARK  Name = 
REMARK  10 active torsions:
REMARK  status: ('A' for Active; 'I' for Inactive)
REMARK    1  A    between atoms: C_1  and  C_2
REMARK    2  A    between atoms: N_4  and  C_5
REMARK    3  A    between atoms: C_5  and  C_6
REMARK    4  A    between atoms: C_5  and  C_8
REMARK    5  A    between atoms: C_5  and  C_10
REMARK    6  A    between atoms: C_6  and  O_7
REMARK    7  A    between atoms: C_8  and  O_9
REMARK    8  A    between atoms: C_10  and  C_11
REMARK    9  A    between atoms: C_11  and  C_12
REMARK   10  A    between atoms: C_15  and  O_16
REMARK                            x       y       z     vdW  Elec       q    Type
REMARK                         _______ _______ _______ _____ _____    ______ ____
ROOT
ATOM      1  C   UNL     1       2.488   5.515  18.644  0.00  0.00    +0.000 C 
ENDROOT
BRANCH   1   2
ATOM      2  C   UNL     1       3.368   4.243  18.888  0.00  0.00    +0.000 C 
BRANCH   2   6
ATOM      3  C   UNL     1       1.431   2.533  21.728  0.00  0.00    +0.000 C 
ATOM      4  C   UNL     1       1.665   3.113  20.360  0.00  0.00    +0.000 C 
ATOM      5  O   UNL     1       0.772   3.171  19.540  0.00  0.00    +0.000 OA
ATOM      6  N   UNL     1       2.955   3.577  20.154  0.00  0.00    +0.000 N 
ATOM      7  H   UNL     1       3.655   3.320  20.828  0.00  0.00    +0.000 HD
ENDBRANCH   2   6
BRANCH   2   8
ATOM      8  C   UNL     1       4.873   4.659  18.987  0.00  0.00    +0.000 C 
BRANCH   8   9
ATOM      9  O   UNL     1       5.732   3.538  19.185  0.00  0.00    +0.000 OA
ATOM     10  H   UNL     1       6.649   3.809  19.020  0.00  0.00    +0.000 HD
ENDBRANCH   8   9
ENDBRANCH   2   8
BRANCH   2  11
ATOM     11  C   UNL     1       3.149   3.273  17.674  0.00  0.00    +0.000 C 
BRANCH  11  12
ATOM     12  O   UNL     1       4.028   2.153  17.593  0.00  0.00    +0.000 OA
ATOM     13  H   UNL     1       4.547   2.219  16.782  0.00  0.00    +0.000 HD
ENDBRANCH  11  12
ENDBRANCH   2  11
ENDBRANCH   1   2
BRANCH   1  14
ATOM     14  C   UNL     1       2.557   6.540  19.788  0.00  0.00    +0.000 C 
BRANCH  14  15
ATOM     15  C   UNL     1       1.987   7.900  19.438  0.00  0.00    +0.000 A 
ATOM     16  C   UNL     1       2.229   8.368  18.130  0.00  0.00    +0.000 A 
ATOM     17  C   UNL     1       1.746   9.598  17.711  0.00  0.00    +0.000 A 
ATOM     18  C   UNL     1       1.015  10.380  18.597  0.00  0.00    +0.000 A 
ATOM     19  C   UNL     1       0.766   9.961  19.922  0.00  0.00    +0.000 A 
ATOM     20  C   UNL     1       0.045  10.781  20.818  0.00  0.00    +0.000 A 
ATOM     21  C   UNL     1      -0.185  10.395  22.137  0.00  0.00    +0.000 A 
ATOM     22  C   UNL     1       0.313   9.185  22.590  0.00  0.00    +0.000 A 
ATOM     23  C   UNL     1       1.025   8.354  21.718  0.00  0.00    +0.000 A 
ATOM     24  C   UNL     1       1.262   8.709  20.366  0.00  0.00    +0.000 A 
BRANCH  18  25
ATOM     25  O   UNL     1       0.535  11.594  18.174  0.00  0.00    +0.000 OA
ATOM     26  H   UNL     1       0.410  12.168  18.949  0.00  0.00    +0.000 HD
ENDBRANCH  18  25
ENDBRANCH  14  15
ENDBRANCH   1  14
TORSDOF 9
ENDMDL
MODEL 8
REMARK VINA RESULT:      -7.2      1.427      2.615
REMARK  Name = 
REMARK  10 active torsions:
REMARK  status: ('A' for Active; 'I' for Inactive)
REMARK    1  A    between atoms: C_1  and  C_2
REMARK    2  A    between atoms: N_4  and  C_5
REMARK    3  A    between atoms: C_5  and  C_6
REMARK    4  A    between atoms: C_5  and  C_8
REMARK    5  A    between atoms: C_5  and  C_10
REMARK    6  A    between atoms: C_6  and  O_7
REMARK    7  A    between atoms: C_8  and  O_9
REMARK    8  A    between atoms: C_10  and  C_11
REMARK    9  A    between atoms: C_11  and  C_12
REMARK   10  A    between atoms: C_15  and  O_16
REMARK                            x       y       z     vdW  Elec       q    Type
REMARK                         _______ _______ _______ _____ _____    ______ ____
ROOT
ATOM      1  C   UNL     1       5.583   5.209  17.579  0.00  0.00    +0.000 C 
ENDROOT
BRANCH   1   2
ATOM      2  C   UNL     1       6.509   5.640  16.392  0.00  0.00    +0.000 C 
BRANCH   2   6
ATOM      3  C   UNL     1       8.153   8.739  17.953  0.00  0.00    +0.000 C 
ATOM      4  C   UNL     1       7.709   7.305  17.852  0.00  0.00    +0.000 C 
ATOM      5  O   UNL     1       7.889   6.526  18.764  0.00  0.00    +0.000 OA
ATOM      6  N   UNL     1       7.077   6.991  16.659  0.00  0.00    +0.000 N 
ATOM      7  H   UNL     1       7.140   7.657  15.909  0.00  0.00    +0.000 HD
ENDBRANCH   2   6
BRANCH   2   8
ATOM      8  C   UNL     1       5.677   5.679  15.067  0.00  0.00    +0.000 C 
BRANCH   8   9
ATOM      9  O   UNL     1       5.071   6.951  14.847  0.00  0.00    +0.000 OA
ATOM     10  H   UNL     1       5.430   7.336  14.032  0.00  0.00    +0.000 HD
ENDBRANCH   8   9
ENDBRANCH   2   8
BRANCH   2  11
ATOM     11  C   UNL     1       7.663   4.583  16.280  0.00  0.00    +0.000 C 
BRANCH  11  12
ATOM     12  O   UNL     1       8.137   4.032  17.507  0.00  0.00    +0.000 OA
ATOM     13  H   UNL     1       7.920   4.636  18.228  0.00  0.00    +0.000 HD
ENDBRANCH  11  12
ENDBRANCH   2  11
ENDBRANCH   1   2
BRANCH   1  14
ATOM     14  C   UNL     1       4.355   4.396  17.139  0.00  0.00    +0.000 C 
BRANCH  14  15
ATOM     15  C   UNL     1       3.391   4.070  18.261  0.00  0.00    +0.000 A 
ATOM     16  C   UNL     1       3.113   2.705  18.478  0.00  0.00    +0.000 A 
ATOM     17  C   UNL     1       2.248   2.303  19.484  0.00  0.00    +0.000 A 
ATOM     18  C   UNL     1       1.644   3.263  20.287  0.00  0.00    +0.000 A 
ATOM     19  C   UNL     1       1.876   4.642  20.092  0.00  0.00    +0.000 A 
ATOM     20  C   UNL     1       1.232   5.606  20.898  0.00  0.00    +0.000 A 
ATOM     21  C   UNL     1       1.428   6.972  20.701  0.00  0.00    +0.000 A 
ATOM     22  C   UNL     1       2.263   7.401  19.684  0.00  0.00    +0.000 A 
ATOM     23  C   UNL     1       2.916   6.464  18.877  0.00  0.00    +0.000 A 
ATOM     24  C   UNL     1       2.752   5.067  19.061  0.00  0.00    +0.000 A 
BRANCH  18  25
ATOM     25  O   UNL     1       0.792   2.859  21.283  0.00  0.00    +0.000 OA
ATOM     26  H   UNL     1       0.309   2.072  20.982  0.00  0.00    +0.000 HD
ENDBRANCH  18  25
ENDBRANCH  14  15
ENDBRANCH   1  14
TORSDOF 9
ENDMDL
MODEL 9
REMARK VINA RESULT:      -7.1      3.545      6.601
REMARK  Name = 
REMARK  10 active torsions:
REMARK  status: ('A' for Active; 'I' for Inactive)
REMARK    1  A    between atoms: C_1  and  C_2
REMARK    2  A    between atoms: N_4  and  C_5
REMARK    3  A    between atoms: C_5  and  C_6
REMARK    4  A    between atoms: C_5  and  C_8
REMARK    5  A    between atoms: C_5  and  C_10
REMARK    6  A    between atoms: C_6  and  O_7
REMARK    7  A    between atoms: C_8  and  O_9
REMARK    8  A    between atoms: C_10  and  C_11
REMARK    9  A    between atoms: C_11  and  C_12
REMARK   10  A    between atoms: C_15  and  O_16
REMARK                            x       y       z     vdW  Elec       q    Type
REMARK                         _______ _______ _______ _____ _____    ______ ____
ROOT
ATOM      1  C   UNL     1       1.738   8.820  17.931  0.00  0.00    +0.000 C 
ENDROOT
BRANCH   1   2
ATOM      2  C   UNL     1       0.859   9.848  18.720  0.00  0.00    +0.000 C 
BRANCH   2   6
ATOM      3  C   UNL     1      -0.210   9.420  22.384  0.00  0.00    +0.000 C 
ATOM      4  C   UNL     1      -0.177  10.031  21.009  0.00  0.00    +0.000 C 
ATOM      5  O   UNL     1      -0.811  11.033  20.751  0.00  0.00    +0.000 OA
ATOM      6  N   UNL     1       0.643   9.364  20.112  0.00  0.00    +0.000 N 
ATOM      7  H   UNL     1       0.978   8.454  20.376  0.00  0.00    +0.000 HD
ENDBRANCH   2   6
BRANCH   2   8
ATOM      8  C   UNL     1      -0.524  10.011  18.006  0.00  0.00    +0.000 C 
BRANCH   8   9
ATOM      9  O   UNL     1      -0.821  11.374  17.708  0.00  0.00    +0.000 OA
ATOM     10  H   UNL     1      -0.230  11.946  18.222  0.00  0.00    +0.000 HD
ENDBRANCH   8   9
ENDBRANCH   2   8
BRANCH   2  11
ATOM     11  C   UNL     1       1.627  11.216  18.740  0.00  0.00    +0.000 C 
BRANCH  11  12
ATOM     12  O   UNL     1       2.266  11.600  17.524  0.00  0.00    +0.000 OA
ATOM     13  H   UNL     1       2.327  12.563  17.492  0.00  0.00    +0.000 HD
ENDBRANCH  11  12
ENDBRANCH   2  11
ENDBRANCH   1   2
BRANCH   1  14
ATOM     14  C   UNL     1       2.310   7.696  18.808  0.00  0.00    +0.000 C 
BRANCH  14  15
ATOM     15  C   UNL     1       3.126   6.670  18.049  0.00  0.00    +0.000 A 
ATOM     16  C   UNL     1       4.231   7.156  17.321  0.00  0.00    +0.000 A 
ATOM     17  C   UNL     1       5.044   6.297  16.597  0.00  0.00    +0.000 A 
ATOM     18  C   UNL     1       4.760   4.937  16.590  0.00  0.00    +0.000 A 
ATOM     19  C   UNL     1       3.653   4.408  17.287  0.00  0.00    +0.000 A 
ATOM     20  C   UNL     1       3.362   3.027  17.244  0.00  0.00    +0.000 A 
ATOM     21  C   UNL     1       2.256   2.492  17.903  0.00  0.00    +0.000 A 
ATOM     22  C   UNL     1       1.411   3.332  18.608  0.00  0.00    +0.000 A 
ATOM     23  C   UNL     1       1.683   4.704  18.668  0.00  0.00    +0.000 A 
ATOM     24  C   UNL     1       2.808   5.277  18.023  0.00  0.00    +0.000 A 
BRANCH  18  25
ATOM     25  O   UNL     1       5.571   4.091  15.876  0.00  0.00    +0.000 OA
ATOM     26  H   UNL     1       6.498   4.330  16.043  0.00  0.00    +0.000 HD
ENDBRANCH  18  25
ENDBRANCH  14  15
ENDBRANCH   1  14
TORSDOF 9
ENDMDL
