MODEL 1
REMARK VINA RESULT:      -7.7      0.000      0.000
REMARK  Name = 
REMARK  9 active torsions:
REMARK  status: ('A' for Active; 'I' for Inactive)
REMARK    1  A    between atoms: C_1  and  C_2
REMARK    2  A    between atoms: C_2  and  C_3
REMARK    3  A    between atoms: C_3  and  N_4
REMARK    4  A    between atoms: N_7  and  C_8
REMARK    5  A    between atoms: C_8  and  C_9
REMARK    6  A    between atoms: C_9  and  C_10
REMARK    7  A    between atoms: C_10  and  N_11
REMARK    8  A    between atoms: C_12  and  C_14
REMARK    9  A    between atoms: C_20  and  C_21
REMARK                            x       y       z     vdW  Elec       q    Type
REMARK                         _______ _______ _______ _____ _____    ______ ____
ROOT
ATOM      1  N   UNL     1       2.138   4.917  18.778  0.00  0.00    +0.000 N 
ATOM      2  C   UNL     1       2.130   5.637  19.954  0.00  0.00    +0.000 C 
ATOM      3  O   UNL     1       2.299   5.069  21.031  0.00  0.00    +0.000 OA
ATOM      4  H   UNL     1       2.234   5.407  17.902  0.00  0.00    +0.000 HD
ENDROOT
BRANCH   2   5
ATOM      5  C   UNL     1       1.903   7.059  19.815  0.00  0.00    +0.000 A 
ATOM      6  C   UNL     1       2.051   7.947  18.765  0.00  0.00    +0.000 A 
ATOM      7  C   UNL     1       1.511   9.239  19.090  0.00  0.00    +0.000 A 
ATOM      8  C   UNL     1       1.021   9.293  20.379  0.00  0.00    +0.000 A 
ATOM      9  S   UNL     1       1.323   7.856  21.196  0.00  0.00    +0.000 S 
ATOM     10  C   UNL     1       0.339  10.470  20.918  0.00  0.00    +0.000 A 
ATOM     11  C   UNL     1      -0.271  10.608  22.192  0.00  0.00    +0.000 A 
ATOM     12  C   UNL     1      -0.347   9.596  23.312  0.00  0.00    +0.000 C 
ATOM     13  C   UNL     1      -0.898  11.823  22.520  0.00  0.00    +0.000 A 
ATOM     14  C   UNL     1      -0.948  12.890  21.629  0.00  0.00    +0.000 A 
ATOM     15  C   UNL     1      -0.358  12.761  20.382  0.00  0.00    +0.000 A 
ATOM     16  C   UNL     1       0.277  11.568  20.024  0.00  0.00    +0.000 A 
ATOM     17  O   UNL     1       0.816  11.604  18.758  0.00  0.00    +0.000 OA
ATOM     18  C   UNL     1       1.400  10.416  18.189  0.00  0.00    +0.000 C 
ENDBRANCH   2   5
BRANCH   1  19
ATOM     19  C   UNL     1       2.472   3.516  18.835  0.00  0.00    +0.000 C 
BRANCH  19  20
ATOM     20  C   UNL     1       3.206   3.117  17.568  0.00  0.00    +0.000 C 
BRANCH  20  21
ATOM     21  C   UNL     1       4.633   3.646  17.606  0.00  0.00    +0.000 C 
BRANCH  21  25
ATOM     22  N   UNL     1       7.545   5.906  17.112  0.00  0.00    +0.000 NA
ATOM     23  C   UNL     1       7.131   5.305  18.402  0.00  0.00    +0.000 C 
ATOM     24  C   UNL     1       5.636   5.512  18.759  0.00  0.00    +0.000 C 
ATOM     25  N   UNL     1       4.693   5.114  17.687  0.00  0.00    +0.000 NA
ATOM     26  C   UNL     1       5.126   5.739  16.418  0.00  0.00    +0.000 C 
ATOM     27  C   UNL     1       6.604   5.451  16.064  0.00  0.00    +0.000 C 
BRANCH  22  28
ATOM     28  C   UNL     1       7.572   7.380  17.159  0.00  0.00    +0.000 C 
BRANCH  28  30
ATOM     29  C   UNL     1       8.495   9.467  18.272  0.00  0.00    +0.000 C 
ATOM     30  C   UNL     1       8.328   7.961  18.358  0.00  0.00    +0.000 C 
ENDBRANCH  28  30
ENDBRANCH  22  28
ENDBRANCH  21  25
ENDBRANCH  20  21
ENDBRANCH  19  20
ENDBRANCH   1  19
TORSDOF 7
ENDMDL
MODEL 2
REMARK VINA RESULT:      -7.5      0.770      1.206
REMARK  Name = 
REMARK  9 active torsions:
REMARK  status: ('A' for Active; 'I' for Inactive)
REMARK    1  A    between atoms: C_1  and  C_2
REMARK    2  A    between atoms: C_2  and  C_3
REMARK    3  A    between atoms: C_3  and  N_4
REMARK    4  A    between atoms: N_7  and  C_8
REMARK    5  A    between atoms: C_8  and  C_9
REMARK    6  A    between atoms: C_9  and  C_10
REMARK    7  A    between atoms: C_10  and  N_11
REMARK    8  A    between atoms: C_12  and  C_14
REMARK    9  A    between atoms: C_20  and  C_21
REMARK                            x       y       z     vdW  Elec       q    Type
REMARK                         _______ _______ _______ _____ _____    ______ ____
ROOT
ATOM      1  N   UNL     1       2.351   4.655  18.972  0.00  0.00    +0.000 N 
ATOM      2  C   UNL     1       2.126   5.416  20.100  0.00  0.00    +0.000 C 
ATOM      3  O   UNL     1       2.061   4.883  21.205  0.00  0.00    +0.000 OA
ATOM      4  H   UNL     1       2.633   5.113  18.118  0.00  0.00    +0.000 HD
ENDROOT
BRANCH   2   5
ATOM      5  C   UNL     1       1.967   6.836  19.875  0.00  0.00    +0.000 A 
ATOM      6  C   UNL     1       2.170   7.654  18.778  0.00  0.00    +0.000 A 
ATOM      7  C   UNL     1       1.687   8.986  19.019  0.00  0.00    +0.000 A 
ATOM      8  C   UNL     1       1.182   9.137  20.294  0.00  0.00    +0.000 A 
ATOM      9  S   UNL     1       1.406   7.739  21.198  0.00  0.00    +0.000 S 
ATOM     10  C   UNL     1       0.549  10.374  20.752  0.00  0.00    +0.000 A 
ATOM     11  C   UNL     1      -0.071  10.615  22.006  0.00  0.00    +0.000 A 
ATOM     12  C   UNL     1      -0.210   9.675  23.182  0.00  0.00    +0.000 C 
ATOM     13  C   UNL     1      -0.645  11.874  22.252  0.00  0.00    +0.000 A 
ATOM     14  C   UNL     1      -0.633  12.888  21.300  0.00  0.00    +0.000 A 
ATOM     15  C   UNL     1      -0.034  12.659  20.074  0.00  0.00    +0.000 A 
ATOM     16  C   UNL     1       0.551  11.420  19.795  0.00  0.00    +0.000 A 
ATOM     17  O   UNL     1       1.108  11.356  18.538  0.00  0.00    +0.000 OA
ATOM     18  C   UNL     1       1.644  10.112  18.049  0.00  0.00    +0.000 C 
ENDBRANCH   2   5
BRANCH   1  19
ATOM     19  C   UNL     1       2.631   3.252  19.137  0.00  0.00    +0.000 C 
BRANCH  19  20
ATOM     20  C   UNL     1       3.083   2.665  17.812  0.00  0.00    +0.000 C 
BRANCH  20  21
ATOM     21  C   UNL     1       3.699   3.753  16.945  0.00  0.00    +0.000 C 
BRANCH  21  25
ATOM     22  N   UNL     1       5.968   6.691  16.710  0.00  0.00    +0.000 NA
ATOM     23  C   UNL     1       5.535   5.845  15.573  0.00  0.00    +0.000 C 
ATOM     24  C   UNL     1       5.738   4.322  15.789  0.00  0.00    +0.000 C 
ATOM     25  N   UNL     1       5.166   3.805  17.055  0.00  0.00    +0.000 NA
ATOM     26  C   UNL     1       5.627   4.662  18.169  0.00  0.00    +0.000 C 
ATOM     27  C   UNL     1       5.343   6.166  17.945  0.00  0.00    +0.000 C 
BRANCH  22  28
ATOM     28  C   UNL     1       7.435   6.724  16.863  0.00  0.00    +0.000 C 
BRANCH  28  30
ATOM     29  C   UNL     1       8.030   8.988  17.845  0.00  0.00    +0.000 C 
ATOM     30  C   UNL     1       7.925   7.494  18.093  0.00  0.00    +0.000 C 
ENDBRANCH  28  30
ENDBRANCH  22  28
ENDBRANCH  21  25
ENDBRANCH  20  21
ENDBRANCH  19  20
ENDBRANCH   1  19
TORSDOF 7
ENDMDL
MODEL 3
REMARK VINA RESULT:      -7.3      4.117      7.734
REMARK  Name = 
REMARK  9 active torsions:
REMARK  status: ('A' for Active; 'I' for Inactive)
REMARK    1  A    between atoms: C_1  and  C_2
REMARK    2  A    between atoms: C_2  and  C_3
REMARK    3  A    between atoms: C_3  and  N_4
REMARK    4  A    between atoms: N_7  and  C_8
REMARK    5  A    between atoms: C_8  and  C_9
REMARK    6  A    between atoms: C_9  and  C_10
REMARK    7  A    between atoms: C_10  and  N_11
REMARK    8  A    between atoms: C_12  and  C_14
REMARK    9  A    between atoms: C_20  and  C_21
REMARK                            x       y       z     vdW  Elec       q    Type
REMARK                         _______ _______ _______ _____ _____    ______ ____
ROOT
ATOM      1  N   UNL     1       7.221   7.195  17.842  0.00  0.00    +0.000 N 
ATOM      2  C   UNL     1       7.031   6.270  16.837  0.00  0.00    +0.000 C 
ATOM      3  O   UNL     1       7.776   6.254  15.859  0.00  0.00    +0.000 OA
ATOM      4  H   UNL     1       6.766   7.055  18.731  0.00  0.00    +0.000 HD
ENDROOT
BRANCH   2   5
ATOM      5  C   UNL     1       5.916   5.367  17.020  0.00  0.00    +0.000 A 
ATOM      6  C   UNL     1       5.658   4.077  16.593  0.00  0.00    +0.000 A 
ATOM      7  C   UNL     1       4.467   3.551  17.202  0.00  0.00    +0.000 A 
ATOM      8  C   UNL     1       3.850   4.470  18.026  0.00  0.00    +0.000 A 
ATOM      9  S   UNL     1       4.629   5.957  17.955  0.00  0.00    +0.000 S 
ATOM     10  C   UNL     1       2.671   4.146  18.830  0.00  0.00    +0.000 A 
ATOM     11  C   UNL     1       2.005   4.982  19.764  0.00  0.00    +0.000 A 
ATOM     12  C   UNL     1       2.325   6.410  20.142  0.00  0.00    +0.000 C 
ATOM     13  C   UNL     1       0.892   4.476  20.458  0.00  0.00    +0.000 A 
ATOM     14  C   UNL     1       0.430   3.179  20.265  0.00  0.00    +0.000 A 
ATOM     15  C   UNL     1       1.077   2.357  19.358  0.00  0.00    +0.000 A 
ATOM     16  C   UNL     1       2.185   2.827  18.647  0.00  0.00    +0.000 A 
ATOM     17  O   UNL     1       2.708   1.891  17.783  0.00  0.00    +0.000 OA
ATOM     18  C   UNL     1       3.924   2.174  17.065  0.00  0.00    +0.000 C 
ENDBRANCH   2   5
BRANCH   1  19
ATOM     19  C   UNL     1       8.380   8.049  17.777  0.00  0.00    +0.000 C 
BRANCH  19  20
ATOM     20  C   UNL     1       7.962   9.490  18.005  0.00  0.00    +0.000 C 
BRANCH  20  21
ATOM     21  C   UNL     1       9.037  10.224  18.794  0.00  0.00    +0.000 C 
BRANCH  21  25
ATOM     22  N   UNL     1      10.239  13.659  19.562  0.00  0.00    +0.000 NA
ATOM     23  C   UNL     1       8.945  13.323  18.923  0.00  0.00    +0.000 C 
ATOM     24  C   UNL     1       9.057  12.373  17.701  0.00  0.00    +0.000 C 
ATOM     25  N   UNL     1       9.833  11.137  17.959  0.00  0.00    +0.000 NA
ATOM     26  C   UNL     1      11.122  11.507  18.584  0.00  0.00    +0.000 C 
ATOM     27  C   UNL     1      10.962  12.396  19.840  0.00  0.00    +0.000 C 
BRANCH  22  28
ATOM     28  C   UNL     1      11.072  14.541  18.723  0.00  0.00    +0.000 C 
BRANCH  28  30
ATOM     29  C   UNL     1      11.304  16.817  17.622  0.00  0.00    +0.000 C 
ATOM     30  C   UNL     1      10.352  15.797  18.219  0.00  0.00    +0.000 C 
ENDBRANCH  28  30
ENDBRANCH  22  28
ENDBRANCH  21  25
ENDBRANCH  20  21
ENDBRANCH  19  20
ENDBRANCH   1  19
TORSDOF 7
ENDMDL
MODEL 4
REMARK VINA RESULT:      -7.2      1.911      3.442
REMARK  Name = 
REMARK  9 active torsions:
REMARK  status: ('A' for Active; 'I' for Inactive)
REMARK    1  A    between atoms: C_1  and  C_2
REMARK    2  A    between atoms: C_2  and  C_3
REMARK    3  A    between atoms: C_3  and  N_4
REMARK    4  A    between atoms: N_7  and  C_8
REMARK    5  A    between atoms: C_8  and  C_9
REMARK    6  A    between atoms: C_9  and  C_10
REMARK    7  A    between atoms: C_10  and  N_11
REMARK    8  A    between atoms: C_12  and  C_14
REMARK    9  A    between atoms: C_20  and  C_21
REMARK                            x       y       z     vdW  Elec       q    Type
REMARK                         _______ _______ _______ _____ _____    ______ ____
ROOT
ATOM      1  N   UNL     1       2.385   5.978  20.116  0.00  0.00    +0.000 N 
ATOM      2  C   UNL     1       2.115   7.174  19.485  0.00  0.00    +0.000 C 
ATOM      3  O   UNL     1       2.516   7.376  18.341  0.00  0.00    +0.000 OA
ATOM      4  H   UNL     1       1.864   5.731  20.944  0.00  0.00    +0.000 HD
ENDROOT
BRANCH   2   5
ATOM      5  C   UNL     1       1.361   8.135  20.260  0.00  0.00    +0.000 A 
ATOM      6  C   UNL     1       0.875   8.139  21.555  0.00  0.00    +0.000 A 
ATOM      7  C   UNL     1       0.338   9.425  21.910  0.00  0.00    +0.000 A 
ATOM      8  C   UNL     1       0.396  10.323  20.864  0.00  0.00    +0.000 A 
ATOM      9  S   UNL     1       0.970   9.583  19.469  0.00  0.00    +0.000 S 
ATOM     10  C   UNL     1      -0.006  11.723  21.002  0.00  0.00    +0.000 A 
ATOM     11  C   UNL     1       0.085  12.749  20.024  0.00  0.00    +0.000 A 
ATOM     12  C   UNL     1       0.587  12.649  18.602  0.00  0.00    +0.000 C 
ATOM     13  C   UNL     1      -0.339  14.047  20.357  0.00  0.00    +0.000 A 
ATOM     14  C   UNL     1      -0.833  14.360  21.618  0.00  0.00    +0.000 A 
ATOM     15  C   UNL     1      -0.920  13.366  22.578  0.00  0.00    +0.000 A 
ATOM     16  C   UNL     1      -0.512  12.062  22.281  0.00  0.00    +0.000 A 
ATOM     17  O   UNL     1      -0.668  11.194  23.338  0.00  0.00    +0.000 OA
ATOM     18  C   UNL     1      -0.184   9.842  23.238  0.00  0.00    +0.000 C 
ENDBRANCH   2   5
BRANCH   1  19
ATOM     19  C   UNL     1       3.032   4.936  19.361  0.00  0.00    +0.000 C 
BRANCH  19  20
ATOM     20  C   UNL     1       4.402   4.656  19.953  0.00  0.00    +0.000 C 
BRANCH  20  21
ATOM     21  C   UNL     1       5.482   5.269  19.073  0.00  0.00    +0.000 C 
BRANCH  21  25
ATOM     22  N   UNL     1       6.384   5.623  15.482  0.00  0.00    +0.000 NA
ATOM     23  C   UNL     1       5.083   5.138  15.999  0.00  0.00    +0.000 C 
ATOM     24  C   UNL     1       5.188   3.998  17.045  0.00  0.00    +0.000 C 
ATOM     25  N   UNL     1       6.106   4.288  18.171  0.00  0.00    +0.000 NA
ATOM     26  C   UNL     1       7.398   4.755  17.623  0.00  0.00    +0.000 C 
ATOM     27  C   UNL     1       7.254   5.939  16.638  0.00  0.00    +0.000 C 
BRANCH  22  28
ATOM     28  C   UNL     1       7.047   4.636  14.608  0.00  0.00    +0.000 C 
BRANCH  28  30
ATOM     29  C   UNL     1       6.684   3.754  12.256  0.00  0.00    +0.000 C 
ATOM     30  C   UNL     1       6.102   3.905  13.649  0.00  0.00    +0.000 C 
ENDBRANCH  28  30
ENDBRANCH  22  28
ENDBRANCH  21  25
ENDBRANCH  20  21
ENDBRANCH  19  20
ENDBRANCH   1  19
TORSDOF 7
ENDMDL
MODEL 5
REMARK VINA RESULT:      -7.1      1.725      2.922
REMARK  Name = 
REMARK  9 active torsions:
REMARK  status: ('A' for Active; 'I' for Inactive)
REMARK    1  A    between atoms: C_1  and  C_2
REMARK    2  A    between atoms: C_2  and  C_3
REMARK    3  A    between atoms: C_3  and  N_4
REMARK    4  A    between atoms: N_7  and  C_8
REMARK    5  A    between atoms: C_8  and  C_9
REMARK    6  A    between atoms: C_9  and  C_10
REMARK    7  A    between atoms: C_10  and  N_11
REMARK    8  A    between atoms: C_12  and  C_14
REMARK    9  A    between atoms: C_20  and  C_21
REMARK                            x       y       z     vdW  Elec       q    Type
REMARK                         _______ _______ _______ _____ _____    ______ ____
ROOT
ATOM      1  N   UNL     1       2.207   6.743  19.271  0.00  0.00    +0.000 N 
ATOM      2  C   UNL     1       2.426   7.830  18.452  0.00  0.00    +0.000 C 
ATOM      3  O   UNL     1       3.114   7.716  17.440  0.00  0.00    +0.000 OA
ATOM      4  H   UNL     1       1.466   6.784  19.954  0.00  0.00    +0.000 HD
ENDROOT
BRANCH   2   5
ATOM      5  C   UNL     1       1.813   9.069  18.879  0.00  0.00    +0.000 A 
ATOM      6  C   UNL     1       1.562  10.273  18.246  0.00  0.00    +0.000 A 
ATOM      7  C   UNL     1       0.755  11.138  19.062  0.00  0.00    +0.000 A 
ATOM      8  C   UNL     1       0.466  10.578  20.291  0.00  0.00    +0.000 A 
ATOM      9  S   UNL     1       1.256   9.108  20.481  0.00  0.00    +0.000 S 
ATOM     10  C   UNL     1      -0.414  11.223  21.266  0.00  0.00    +0.000 A 
ATOM     11  C   UNL     1      -0.842  10.708  22.518  0.00  0.00    +0.000 A 
ATOM     12  C   UNL     1      -0.479   9.391  23.165  0.00  0.00    +0.000 C 
ATOM     13  C   UNL     1      -1.711  11.477  23.310  0.00  0.00    +0.000 A 
ATOM     14  C   UNL     1      -2.174  12.723  22.900  0.00  0.00    +0.000 A 
ATOM     15  C   UNL     1      -1.764  13.230  21.678  0.00  0.00    +0.000 A 
ATOM     16  C   UNL     1      -0.897  12.494  20.865  0.00  0.00    +0.000 A 
ATOM     17  O   UNL     1      -0.582  13.138  19.690  0.00  0.00    +0.000 OA
ATOM     18  C   UNL     1       0.204  12.466  18.688  0.00  0.00    +0.000 C 
ENDBRANCH   2   5
BRANCH   1  19
ATOM     19  C   UNL     1       2.694   5.455  18.845  0.00  0.00    +0.000 C 
BRANCH  19  20
ATOM     20  C   UNL     1       3.863   5.040  19.719  0.00  0.00    +0.000 C 
BRANCH  20  21
ATOM     21  C   UNL     1       5.171   5.498  19.090  0.00  0.00    +0.000 C 
BRANCH  21  25
ATOM     22  N   UNL     1       6.391   5.618  15.578  0.00  0.00    +0.000 NA
ATOM     23  C   UNL     1       5.028   5.220  16.002  0.00  0.00    +0.000 C 
ATOM     24  C   UNL     1       4.988   4.134  17.109  0.00  0.00    +0.000 C 
ATOM     25  N   UNL     1       5.820   4.443  18.296  0.00  0.00    +0.000 NA
ATOM     26  C   UNL     1       7.175   4.822  17.840  0.00  0.00    +0.000 C 
ATOM     27  C   UNL     1       7.174   5.956  16.789  0.00  0.00    +0.000 C 
BRANCH  22  28
ATOM     28  C   UNL     1       7.077   4.557  14.816  0.00  0.00    +0.000 C 
BRANCH  28  30
ATOM     29  C   UNL     1       6.720   3.855  12.402  0.00  0.00    +0.000 C 
ATOM     30  C   UNL     1       6.180   3.814  13.820  0.00  0.00    +0.000 C 
ENDBRANCH  28  30
ENDBRANCH  22  28
ENDBRANCH  21  25
ENDBRANCH  20  21
ENDBRANCH  19  20
ENDBRANCH   1  19
TORSDOF 7
ENDMDL
MODEL 6
REMARK VINA RESULT:      -7.1      1.414      2.530
REMARK  Name = 
REMARK  9 active torsions:
REMARK  status: ('A' for Active; 'I' for Inactive)
REMARK    1  A    between atoms: C_1  and  C_2
REMARK    2  A    between atoms: C_2  and  C_3
REMARK    3  A    between atoms: C_3  and  N_4
REMARK    4  A    between atoms: N_7  and  C_8
REMARK    5  A    between atoms: C_8  and  C_9
REMARK    6  A    between atoms: C_9  and  C_10
REMARK    7  A    between atoms: C_10  and  N_11
REMARK    8  A    between atoms: C_12  and  C_14
REMARK    9  A    between atoms: C_20  and  C_21
REMARK                            x       y       z     vdW  Elec       q    Type
REMARK                         _______ _______ _______ _____ _____    ______ ____
ROOT
ATOM      1  N   UNL     1       3.102   5.266  19.468  0.00  0.00    +0.000 N 
ATOM      2  C   UNL     1       2.039   5.812  20.155  0.00  0.00    +0.000 C 
ATOM      3  O   UNL     1       1.332   5.103  20.869  0.00  0.00    +0.000 OA
ATOM      4  H   UNL     1       3.804   5.879  19.081  0.00  0.00    +0.000 HD
ENDROOT
BRANCH   2   5
ATOM      5  C   UNL     1       1.829   7.230  19.960  0.00  0.00    +0.000 A 
ATOM      6  C   UNL     1       2.035   8.082  18.890  0.00  0.00    +0.000 A 
ATOM      7  C   UNL     1       1.489   9.387  19.147  0.00  0.00    +0.000 A 
ATOM      8  C   UNL     1       0.937   9.486  20.407  0.00  0.00    +0.000 A 
ATOM      9  S   UNL     1       1.188   8.074  21.284  0.00  0.00    +0.000 S 
ATOM     10  C   UNL     1       0.239  10.684  20.874  0.00  0.00    +0.000 A 
ATOM     11  C   UNL     1      -0.432  10.867  22.111  0.00  0.00    +0.000 A 
ATOM     12  C   UNL     1      -0.571   9.892  23.258  0.00  0.00    +0.000 C 
ATOM     13  C   UNL     1      -1.065  12.096  22.368  0.00  0.00    +0.000 A 
ATOM     14  C   UNL     1      -1.064  13.133  21.442  0.00  0.00    +0.000 A 
ATOM     15  C   UNL     1      -0.415  12.960  20.231  0.00  0.00    +0.000 A 
ATOM     16  C   UNL     1       0.229  11.753  19.943  0.00  0.00    +0.000 A 
ATOM     17  O   UNL     1       0.830  11.744  18.704  0.00  0.00    +0.000 OA
ATOM     18  C   UNL     1       1.432  10.535  18.204  0.00  0.00    +0.000 C 
ENDBRANCH   2   5
BRANCH   1  19
ATOM     19  C   UNL     1       3.435   3.885  19.705  0.00  0.00    +0.000 C 
BRANCH  19  20
ATOM     20  C   UNL     1       4.807   3.586  19.129  0.00  0.00    +0.000 C 
BRANCH  20  21
ATOM     21  C   UNL     1       5.432   4.864  18.588  0.00  0.00    +0.000 C 
BRANCH  21  25
ATOM     22  N   UNL     1       7.089   4.584  15.269  0.00  0.00    +0.000 NA
ATOM     23  C   UNL     1       7.160   5.759  16.170  0.00  0.00    +0.000 C 
ATOM     24  C   UNL     1       5.784   6.276  16.665  0.00  0.00    +0.000 C 
ATOM     25  N   UNL     1       4.917   5.231  17.259  0.00  0.00    +0.000 NA
ATOM     26  C   UNL     1       4.856   4.080  16.331  0.00  0.00    +0.000 C 
ATOM     27  C   UNL     1       6.250   3.551  15.918  0.00  0.00    +0.000 C 
BRANCH  22  28
ATOM     28  C   UNL     1       6.536   4.922  13.944  0.00  0.00    +0.000 C 
BRANCH  28  30
ATOM     29  C   UNL     1       5.300   3.450  12.285  0.00  0.00    +0.000 C 
ATOM     30  C   UNL     1       6.639   3.796  12.910  0.00  0.00    +0.000 C 
ENDBRANCH  28  30
ENDBRANCH  22  28
ENDBRANCH  21  25
ENDBRANCH  20  21
ENDBRANCH  19  20
ENDBRANCH   1  19
TORSDOF 7
ENDMDL
MODEL 7
REMARK VINA RESULT:      -7.1      4.042      7.673
REMARK  Name = 
REMARK  9 active torsions:
REMARK  status: ('A' for Active; 'I' for Inactive)
REMARK    1  A    between atoms: C_1  and  C_2
REMARK    2  A    between atoms: C_2  and  C_3
REMARK    3  A    between atoms: C_3  and  N_4
REMARK    4  A    between atoms: N_7  and  C_8
REMARK    5  A    between atoms: C_8  and  C_9
REMARK    6  A    between atoms: C_9  and  C_10
REMARK    7  A    between atoms: C_10  and  N_11
REMARK    8  A    between atoms: C_12  and  C_14
REMARK    9  A    between atoms: C_20  and  C_21
REMARK                            x       y       z     vdW  Elec       q    Type
REMARK                         _______ _______ _______ _____ _____    ______ ____
ROOT
ATOM      1  N   UNL     1       6.919   7.683  17.596  0.00  0.00    +0.000 N 
ATOM      2  C   UNL     1       6.957   6.555  16.804  0.00  0.00    +0.000 C 
ATOM      3  O   UNL     1       7.831   6.425  15.950  0.00  0.00    +0.000 OA
ATOM      4  H   UNL     1       6.357   7.677  18.433  0.00  0.00    +0.000 HD
ENDROOT
BRANCH   2   5
ATOM      5  C   UNL     1       5.912   5.584  17.049  0.00  0.00    +0.000 A 
ATOM      6  C   UNL     1       5.753   4.253  16.707  0.00  0.00    +0.000 A 
ATOM      7  C   UNL     1       4.604   3.679  17.353  0.00  0.00    +0.000 A 
ATOM      8  C   UNL     1       3.917   4.602  18.115  0.00  0.00    +0.000 A 
ATOM      9  S   UNL     1       4.582   6.135  17.946  0.00  0.00    +0.000 S 
ATOM     10  C   UNL     1       2.764   4.243  18.941  0.00  0.00    +0.000 A 
ATOM     11  C   UNL     1       2.034   5.086  19.821  0.00  0.00    +0.000 A 
ATOM     12  C   UNL     1       2.244   6.556  20.103  0.00  0.00    +0.000 C 
ATOM     13  C   UNL     1       0.960   4.545  20.548  0.00  0.00    +0.000 A 
ATOM     14  C   UNL     1       0.597   3.206  20.442  0.00  0.00    +0.000 A 
ATOM     15  C   UNL     1       1.307   2.378  19.589  0.00  0.00    +0.000 A 
ATOM     16  C   UNL     1       2.379   2.882  18.846  0.00  0.00    +0.000 A 
ATOM     17  O   UNL     1       2.973   1.934  18.045  0.00  0.00    +0.000 OA
ATOM     18  C   UNL     1       4.166   2.260  17.307  0.00  0.00    +0.000 C 
ENDBRANCH   2   5
BRANCH   1  19
ATOM     19  C   UNL     1       7.994   8.636  17.482  0.00  0.00    +0.000 C 
BRANCH  19  20
ATOM     20  C   UNL     1       8.443   9.064  18.868  0.00  0.00    +0.000 C 
BRANCH  20  21
ATOM     21  C   UNL     1       9.583  10.066  18.758  0.00  0.00    +0.000 C 
BRANCH  21  25
ATOM     22  N   UNL     1      11.435  13.259  18.302  0.00  0.00    +0.000 NA
ATOM     23  C   UNL     1      11.505  12.387  19.498  0.00  0.00    +0.000 C 
ATOM     24  C   UNL     1      10.126  11.998  20.094  0.00  0.00    +0.000 C 
ATOM     25  N   UNL     1       9.173  11.435  19.109  0.00  0.00    +0.000 NA
ATOM     26  C   UNL     1       9.117  12.334  17.935  0.00  0.00    +0.000 C 
ATOM     27  C   UNL     1      10.506  12.640  17.329  0.00  0.00    +0.000 C 
BRANCH  22  28
ATOM     28  C   UNL     1      10.985  14.627  18.626  0.00  0.00    +0.000 C 
BRANCH  28  30
ATOM     29  C   UNL     1      11.672  16.766  17.444  0.00  0.00    +0.000 C 
ATOM     30  C   UNL     1      10.788  15.533  17.407  0.00  0.00    +0.000 C 
ENDBRANCH  28  30
ENDBRANCH  22  28
ENDBRANCH  21  25
ENDBRANCH  20  21
ENDBRANCH  19  20
ENDBRANCH   1  19
TORSDOF 7
ENDMDL
MODEL 8
REMARK VINA RESULT:      -7.0      1.905      3.033
REMARK  Name = 
REMARK  9 active torsions:
REMARK  status: ('A' for Active; 'I' for Inactive)
REMARK    1  A    between atoms: C_1  and  C_2
REMARK    2  A    between atoms: C_2  and  C_3
REMARK    3  A    between atoms: C_3  and  N_4
REMARK    4  A    between atoms: N_7  and  C_8
REMARK    5  A    between atoms: C_8  and  C_9
REMARK    6  A    between atoms: C_9  and  C_10
REMARK    7  A    between atoms: C_10  and  N_11
REMARK    8  A    between atoms: C_12  and  C_14
REMARK    9  A    between atoms: C_20  and  C_21
REMARK                            x       y       z     vdW  Elec       q    Type
REMARK                         _______ _______ _______ _____ _____    ______ ____
ROOT
ATOM      1  N   UNL     1       1.972   6.919  19.317  0.00  0.00    +0.000 N 
ATOM      2  C   UNL     1       2.169   8.021  18.512  0.00  0.00    +0.000 C 
ATOM      3  O   UNL     1       2.968   7.973  17.579  0.00  0.00    +0.000 OA
ATOM      4  H   UNL     1       1.163   6.889  19.919  0.00  0.00    +0.000 HD
ENDROOT
BRANCH   2   5
ATOM      5  C   UNL     1       1.396   9.194  18.857  0.00  0.00    +0.000 A 
ATOM      6  C   UNL     1       0.875  10.240  18.116  0.00  0.00    +0.000 A 
ATOM      7  C   UNL     1       0.017  11.073  18.914  0.00  0.00    +0.000 A 
ATOM      8  C   UNL     1      -0.042  10.656  20.229  0.00  0.00    +0.000 A 
ATOM      9  S   UNL     1       1.009   9.373  20.499  0.00  0.00    +0.000 S 
ATOM     10  C   UNL     1      -0.916  11.285  21.219  0.00  0.00    +0.000 A 
ATOM     11  C   UNL     1      -1.115  10.892  22.569  0.00  0.00    +0.000 A 
ATOM     12  C   UNL     1      -0.463   9.756  23.324  0.00  0.00    +0.000 C 
ATOM     13  C   UNL     1      -2.019  11.619  23.364  0.00  0.00    +0.000 A 
ATOM     14  C   UNL     1      -2.733  12.703  22.864  0.00  0.00    +0.000 A 
ATOM     15  C   UNL     1      -2.546  13.088  21.547  0.00  0.00    +0.000 A 
ATOM     16  C   UNL     1      -1.652  12.392  20.729  0.00  0.00    +0.000 A 
ATOM     17  O   UNL     1      -1.577  12.904  19.453  0.00  0.00    +0.000 OA
ATOM     18  C   UNL     1      -0.794  12.229  18.451  0.00  0.00    +0.000 C 
ENDBRANCH   2   5
BRANCH   1  19
ATOM     19  C   UNL     1       2.625   5.685  18.962  0.00  0.00    +0.000 C 
BRANCH  19  20
ATOM     20  C   UNL     1       4.019   5.657  19.560  0.00  0.00    +0.000 C 
BRANCH  20  21
ATOM     21  C   UNL     1       4.988   5.001  18.587  0.00  0.00    +0.000 C 
BRANCH  21  25
ATOM     22  N   UNL     1       7.186   4.496  15.629  0.00  0.00    +0.000 NA
ATOM     23  C   UNL     1       7.265   5.634  16.574  0.00  0.00    +0.000 C 
ATOM     24  C   UNL     1       5.916   6.360  16.823  0.00  0.00    +0.000 C 
ATOM     25  N   UNL     1       4.801   5.460  17.201  0.00  0.00    +0.000 NA
ATOM     26  C   UNL     1       4.741   4.344  16.232  0.00  0.00    +0.000 C 
ATOM     27  C   UNL     1       6.089   3.603  16.066  0.00  0.00    +0.000 C 
BRANCH  22  28
ATOM     28  C   UNL     1       6.956   4.932  14.238  0.00  0.00    +0.000 C 
BRANCH  28  30
ATOM     29  C   UNL     1       6.944   3.843  11.945  0.00  0.00    +0.000 C 
ATOM     30  C   UNL     1       6.334   3.863  13.335  0.00  0.00    +0.000 C 
ENDBRANCH  28  30
ENDBRANCH  22  28
ENDBRANCH  21  25
ENDBRANCH  20  21
ENDBRANCH  19  20
ENDBRANCH   1  19
TORSDOF 7
ENDMDL
MODEL 9
REMARK VINA RESULT:      -6.9      5.326      8.855
REMARK  Name = 
REMARK  9 active torsions:
REMARK  status: ('A' for Active; 'I' for Inactive)
REMARK    1  A    between atoms: C_1  and  C_2
REMARK    2  A    between atoms: C_2  and  C_3
REMARK    3  A    between atoms: C_3  and  N_4
REMARK    4  A    between atoms: N_7  and  C_8
REMARK    5  A    between atoms: C_8  and  C_9
REMARK    6  A    between atoms: C_9  and  C_10
REMARK    7  A    between atoms: C_10  and  N_11
REMARK    8  A    between atoms: C_12  and  C_14
REMARK    9  A    between atoms: C_20  and  C_21
REMARK                            x       y       z     vdW  Elec       q    Type
REMARK                         _______ _______ _______ _____ _____    ______ ____
ROOT
ATOM      1  N   UNL     1       8.837   9.432  18.105  0.00  0.00    +0.000 N 
ATOM      2  C   UNL     1       9.178  10.290  19.129  0.00  0.00    +0.000 C 
ATOM      3  O   UNL     1       8.931   9.993  20.295  0.00  0.00    +0.000 OA
ATOM      4  H   UNL     1       9.245   9.569  17.192  0.00  0.00    +0.000 HD
ENDROOT
BRANCH   2   5
ATOM      5  C   UNL     1       9.813  11.526  18.725  0.00  0.00    +0.000 A 
ATOM      6  C   UNL     1      10.897  11.816  17.917  0.00  0.00    +0.000 A 
ATOM      7  C   UNL     1      11.015  13.230  17.685  0.00  0.00    +0.000 A 
ATOM      8  C   UNL     1      10.052  13.953  18.358  0.00  0.00    +0.000 A 
ATOM      9  S   UNL     1       9.120  12.950  19.332  0.00  0.00    +0.000 S 
ATOM     10  C   UNL     1       9.905  15.402  18.214  0.00  0.00    +0.000 A 
ATOM     11  C   UNL     1       8.908  16.232  18.791  0.00  0.00    +0.000 A 
ATOM     12  C   UNL     1       7.776  15.839  19.712  0.00  0.00    +0.000 C 
ATOM     13  C   UNL     1       8.925  17.610  18.515  0.00  0.00    +0.000 A 
ATOM     14  C   UNL     1       9.882  18.184  17.684  0.00  0.00    +0.000 A 
ATOM     15  C   UNL     1      10.855  17.379  17.114  0.00  0.00    +0.000 A 
ATOM     16  C   UNL     1      10.871  16.005  17.370  0.00  0.00    +0.000 A 
ATOM     17  O   UNL     1      11.903  15.350  16.735  0.00  0.00    +0.000 OA
ATOM     18  C   UNL     1      11.991  13.914  16.797  0.00  0.00    +0.000 C 
ENDBRANCH   2   5
BRANCH   1  19
ATOM     19  C   UNL     1       8.305   8.137  18.444  0.00  0.00    +0.000 C 
BRANCH  19  20
ATOM     20  C   UNL     1       7.265   7.729  17.417  0.00  0.00    +0.000 C 
BRANCH  20  21
ATOM     21  C   UNL     1       6.882   6.270  17.618  0.00  0.00    +0.000 C 
BRANCH  21  25
ATOM     22  N   UNL     1       3.607   4.814  18.612  0.00  0.00    +0.000 NA
ATOM     23  C   UNL     1       4.833   4.042  18.304  0.00  0.00    +0.000 C 
ATOM     24  C   UNL     1       5.502   4.407  16.952  0.00  0.00    +0.000 C 
ATOM     25  N   UNL     1       5.753   5.856  16.769  0.00  0.00    +0.000 NA
ATOM     26  C   UNL     1       4.508   6.596  17.071  0.00  0.00    +0.000 C 
ATOM     27  C   UNL     1       3.912   6.254  18.457  0.00  0.00    +0.000 C 
BRANCH  22  28
ATOM     28  C   UNL     1       2.473   4.444  17.743  0.00  0.00    +0.000 C 
BRANCH  28  30
ATOM     29  C   UNL     1       1.091   3.795  19.771  0.00  0.00    +0.000 C 
ATOM     30  C   UNL     1       1.510   3.424  18.361  0.00  0.00    +0.000 C 
ENDBRANCH  28  30
ENDBRANCH  22  28
ENDBRANCH  21  25
ENDBRANCH  20  21
ENDBRANCH  19  20
ENDBRANCH   1  19
TORSDOF 7
ENDMDL
