MODEL 1
REMARK VINA RESULT:      -8.6      0.000      0.000
REMARK  Name = 
REMARK  7 active torsions:
REMARK  status: ('A' for Active; 'I' for Inactive)
REMARK    1  A    between atoms: C_1  and  O_2
REMARK    2  A    between atoms: O_2  and  C_3
REMARK    3  A    between atoms: C_7  and  N_8
REMARK    4  A    between atoms: N_8  and  S_9
REMARK    5  A    between atoms: S_9  and  C_12
REMARK    6  A    between atoms: C_18  and  C_19
REMARK    7  A    between atoms: N_21  and  C_22
REMARK                            x       y       z     vdW  Elec       q    Type
REMARK                         _______ _______ _______ _____ _____    ______ ____
ROOT
ATOM      1  C   UNL     1       0.249  11.610  19.670  0.00  0.00    +0.000 A 
ATOM      2  C   UNL     1       0.066  11.292  21.019  0.00  0.00    +0.000 A 
ATOM      3  C   UNL     1       0.511  10.063  21.498  0.00  0.00    +0.000 A 
ATOM      4  C   UNL     1       1.124   9.134  20.634  0.00  0.00    +0.000 A 
ATOM      5  N   UNL     1       1.515   7.890  21.131  0.00  0.00    +0.000 N 
ATOM      6  C   UNL     1       2.010   6.931  20.289  0.00  0.00    +0.000 A 
ATOM      7  C   UNL     1       2.349   7.087  18.993  0.00  0.00    +0.000 A 
ATOM      8  C   UNL     1       2.105   8.456  18.426  0.00  0.00    +0.000 A 
ATOM      9  O   UNL     1       2.486   8.753  17.297  0.00  0.00    +0.000 OA
ATOM     10  C   UNL     1       1.375   9.475  19.294  0.00  0.00    +0.000 A 
ATOM     11  C   UNL     1       0.917  10.714  18.804  0.00  0.00    +0.000 A 
ATOM     12  H   UNL     1       1.157   7.592  22.033  0.00  0.00    +0.000 HD
ENDROOT
BRANCH   7  13
ATOM     13  C   UNL     1       2.933   5.861  18.332  0.00  0.00    +0.000 C 
ATOM     14  O   UNL     1       2.198   4.891  18.119  0.00  0.00    +0.000 OA
ATOM     15  N   UNL     1       4.277   5.800  18.004  0.00  0.00    +0.000 N 
ATOM     16  H   UNL     1       4.881   6.564  18.298  0.00  0.00    +0.000 HD
BRANCH  15  17
ATOM     17  C   UNL     1       4.862   4.524  17.519  0.00  0.00    +0.000 C 
ATOM     18  C   UNL     1       4.641   4.268  16.010  0.00  0.00    +0.000 C 
ATOM     19  C   UNL     1       5.647   4.970  15.102  0.00  0.00    +0.000 C 
ATOM     20  C   UNL     1       7.080   4.625  15.479  0.00  0.00    +0.000 C 
ATOM     21  C   UNL     1       7.351   4.964  16.940  0.00  0.00    +0.000 C 
ATOM     22  C   UNL     1       6.344   4.305  17.885  0.00  0.00    +0.000 C 
ENDBRANCH  15  17
ENDBRANCH   7  13
BRANCH   1  23
ATOM     23  S   UNL     1      -0.552  13.089  19.052  0.00  0.00    +0.000 S 
ATOM     24  O   UNL     1       0.506  14.007  18.669  0.00  0.00    +0.000 OA
ATOM     25  O   UNL     1      -1.572  13.481  19.989  0.00  0.00    +0.000 OA
BRANCH  23  26
ATOM     26  N   UNL     1      -1.253  12.592  17.611  0.00  0.00    +0.000 N 
ATOM     27  H   UNL     1      -1.195  13.266  16.848  0.00  0.00    +0.000 HD
BRANCH  26  32
ATOM     28  C   UNL     1      -4.618  11.201  18.163  0.00  0.00    +0.000 A 
ATOM     29  C   UNL     1      -4.428   9.872  17.776  0.00  0.00    +0.000 A 
ATOM     30  C   UNL     1      -3.183   9.435  17.314  0.00  0.00    +0.000 A 
ATOM     31  C   UNL     1      -2.117  10.332  17.240  0.00  0.00    +0.000 A 
ATOM     32  C   UNL     1      -2.314  11.660  17.623  0.00  0.00    +0.000 A 
ATOM     33  C   UNL     1      -3.556  12.090  18.085  0.00  0.00    +0.000 A 
BRANCH  28  35
ATOM     34  C   UNL     1      -6.629  10.431  19.159  0.00  0.00    +0.000 C 
ATOM     35  O   UNL     1      -5.871  11.509  18.618  0.00  0.00    +0.000 OA
ENDBRANCH  28  35
ENDBRANCH  26  32
ENDBRANCH  23  26
ENDBRANCH   1  23
TORSDOF 6
ENDMDL
MODEL 2
REMARK VINA RESULT:      -8.6      3.280     10.171
REMARK  Name = 
REMARK  7 active torsions:
REMARK  status: ('A' for Active; 'I' for Inactive)
REMARK    1  A    between atoms: C_1  and  O_2
REMARK    2  A    between atoms: O_2  and  C_3
REMARK    3  A    between atoms: C_7  and  N_8
REMARK    4  A    between atoms: N_8  and  S_9
REMARK    5  A    between atoms: S_9  and  C_12
REMARK    6  A    between atoms: C_18  and  C_19
REMARK    7  A    between atoms: N_21  and  C_22
REMARK                            x       y       z     vdW  Elec       q    Type
REMARK                         _______ _______ _______ _____ _____    ______ ____
ROOT
ATOM      1  C   UNL     1       2.363   7.240  19.111  0.00  0.00    +0.000 A 
ATOM      2  C   UNL     1       2.285   7.933  17.899  0.00  0.00    +0.000 A 
ATOM      3  C   UNL     1       1.641   9.166  17.857  0.00  0.00    +0.000 A 
ATOM      4  C   UNL     1       1.053   9.710  19.015  0.00  0.00    +0.000 A 
ATOM      5  N   UNL     1       0.371  10.924  18.933  0.00  0.00    +0.000 N 
ATOM      6  C   UNL     1      -0.303  11.417  20.018  0.00  0.00    +0.000 A 
ATOM      7  C   UNL     1      -0.259  10.948  21.281  0.00  0.00    +0.000 A 
ATOM      8  C   UNL     1       0.591   9.726  21.482  0.00  0.00    +0.000 A 
ATOM      9  O   UNL     1       0.806   9.280  22.606  0.00  0.00    +0.000 OA
ATOM     10  C   UNL     1       1.188   9.054  20.251  0.00  0.00    +0.000 A 
ATOM     11  C   UNL     1       1.831   7.801  20.295  0.00  0.00    +0.000 A 
ATOM     12  H   UNL     1       0.120  11.281  18.016  0.00  0.00    +0.000 HD
ENDROOT
BRANCH   7  13
ATOM     13  C   UNL     1      -1.061  11.740  22.286  0.00  0.00    +0.000 C 
ATOM     14  O   UNL     1      -1.040  11.394  23.472  0.00  0.00    +0.000 OA
ATOM     15  N   UNL     1      -1.841  12.812  21.889  0.00  0.00    +0.000 N 
ATOM     16  H   UNL     1      -1.932  13.001  20.893  0.00  0.00    +0.000 HD
BRANCH  15  17
ATOM     17  C   UNL     1      -2.754  13.463  22.863  0.00  0.00    +0.000 C 
ATOM     18  C   UNL     1      -3.017  14.958  22.572  0.00  0.00    +0.000 C 
ATOM     19  C   UNL     1      -4.099  15.212  21.525  0.00  0.00    +0.000 C 
ATOM     20  C   UNL     1      -5.405  14.520  21.888  0.00  0.00    +0.000 C 
ATOM     21  C   UNL     1      -5.188  13.024  22.082  0.00  0.00    +0.000 C 
ATOM     22  C   UNL     1      -4.087  12.723  23.101  0.00  0.00    +0.000 C 
ENDBRANCH  15  17
ENDBRANCH   7  13
BRANCH   1  23
ATOM     23  S   UNL     1       2.982   5.560  19.066  0.00  0.00    +0.000 S 
ATOM     24  O   UNL     1       1.883   4.699  19.467  0.00  0.00    +0.000 OA
ATOM     25  O   UNL     1       4.246   5.520  19.755  0.00  0.00    +0.000 OA
BRANCH  23  26
ATOM     26  N   UNL     1       3.208   5.259  17.431  0.00  0.00    +0.000 N 
ATOM     27  H   UNL     1       2.419   4.817  16.961  0.00  0.00    +0.000 HD
BRANCH  26  32
ATOM     28  C   UNL     1       6.688   5.994  16.476  0.00  0.00    +0.000 A 
ATOM     29  C   UNL     1       7.055   4.799  15.851  0.00  0.00    +0.000 A 
ATOM     30  C   UNL     1       6.151   3.737  15.758  0.00  0.00    +0.000 A 
ATOM     31  C   UNL     1       4.868   3.868  16.292  0.00  0.00    +0.000 A 
ATOM     32  C   UNL     1       4.509   5.062  16.920  0.00  0.00    +0.000 A 
ATOM     33  C   UNL     1       5.412   6.119  17.008  0.00  0.00    +0.000 A 
BRANCH  28  35
ATOM     34  C   UNL     1       7.749   7.738  17.684  0.00  0.00    +0.000 C 
ATOM     35  O   UNL     1       7.646   6.971  16.489  0.00  0.00    +0.000 OA
ENDBRANCH  28  35
ENDBRANCH  26  32
ENDBRANCH  23  26
ENDBRANCH   1  23
TORSDOF 6
ENDMDL
MODEL 3
REMARK VINA RESULT:      -8.6      3.474     10.158
REMARK  Name = 
REMARK  7 active torsions:
REMARK  status: ('A' for Active; 'I' for Inactive)
REMARK    1  A    between atoms: C_1  and  O_2
REMARK    2  A    between atoms: O_2  and  C_3
REMARK    3  A    between atoms: C_7  and  N_8
REMARK    4  A    between atoms: N_8  and  S_9
REMARK    5  A    between atoms: S_9  and  C_12
REMARK    6  A    between atoms: C_18  and  C_19
REMARK    7  A    between atoms: N_21  and  C_22
REMARK                            x       y       z     vdW  Elec       q    Type
REMARK                         _______ _______ _______ _____ _____    ______ ____
ROOT
ATOM      1  C   UNL     1       2.213   7.313  19.273  0.00  0.00    +0.000 A 
ATOM      2  C   UNL     1       2.089   8.013  18.069  0.00  0.00    +0.000 A 
ATOM      3  C   UNL     1       1.449   9.248  18.059  0.00  0.00    +0.000 A 
ATOM      4  C   UNL     1       0.911   9.789  19.243  0.00  0.00    +0.000 A 
ATOM      5  N   UNL     1       0.231  11.006  19.195  0.00  0.00    +0.000 N 
ATOM      6  C   UNL     1      -0.396  11.496  20.309  0.00  0.00    +0.000 A 
ATOM      7  C   UNL     1      -0.302  11.020  21.567  0.00  0.00    +0.000 A 
ATOM      8  C   UNL     1       0.550   9.793  21.727  0.00  0.00    +0.000 A 
ATOM      9  O   UNL     1       0.810   9.341  22.839  0.00  0.00    +0.000 OA
ATOM     10  C   UNL     1       1.094   9.126  20.469  0.00  0.00    +0.000 A 
ATOM     11  C   UNL     1       1.733   7.870  20.480  0.00  0.00    +0.000 A 
ATOM     12  H   UNL     1      -0.056  11.368  18.291  0.00  0.00    +0.000 HD
ENDROOT
BRANCH   7  13
ATOM     13  C   UNL     1      -1.059  11.809  22.608  0.00  0.00    +0.000 C 
ATOM     14  O   UNL     1      -1.867  11.219  23.334  0.00  0.00    +0.000 OA
ATOM     15  N   UNL     1      -0.888  13.178  22.728  0.00  0.00    +0.000 N 
ATOM     16  H   UNL     1      -0.308  13.654  22.041  0.00  0.00    +0.000 HD
BRANCH  15  17
ATOM     17  C   UNL     1      -1.769  13.956  23.636  0.00  0.00    +0.000 C 
ATOM     18  C   UNL     1      -1.044  15.098  24.384  0.00  0.00    +0.000 C 
ATOM     19  C   UNL     1      -0.896  16.384  23.573  0.00  0.00    +0.000 C 
ATOM     20  C   UNL     1      -2.238  16.877  23.054  0.00  0.00    +0.000 C 
ATOM     21  C   UNL     1      -2.928  15.799  22.227  0.00  0.00    +0.000 C 
ATOM     22  C   UNL     1      -3.068  14.481  22.991  0.00  0.00    +0.000 C 
ENDBRANCH  15  17
ENDBRANCH   7  13
BRANCH   1  23
ATOM     23  S   UNL     1       2.823   5.631  19.195  0.00  0.00    +0.000 S 
ATOM     24  O   UNL     1       1.714   4.767  19.558  0.00  0.00    +0.000 OA
ATOM     25  O   UNL     1       4.077   5.566  19.901  0.00  0.00    +0.000 OA
BRANCH  23  26
ATOM     26  N   UNL     1       3.072   5.370  17.556  0.00  0.00    +0.000 N 
ATOM     27  H   UNL     1       2.299   4.918  17.069  0.00  0.00    +0.000 HD
BRANCH  26  32
ATOM     28  C   UNL     1       6.534   6.219  16.633  0.00  0.00    +0.000 A 
ATOM     29  C   UNL     1       6.943   5.041  16.002  0.00  0.00    +0.000 A 
ATOM     30  C   UNL     1       6.074   3.952  15.894  0.00  0.00    +0.000 A 
ATOM     31  C   UNL     1       4.783   4.040  16.419  0.00  0.00    +0.000 A 
ATOM     32  C   UNL     1       4.383   5.218  17.053  0.00  0.00    +0.000 A 
ATOM     33  C   UNL     1       5.252   6.301  17.156  0.00  0.00    +0.000 A 
BRANCH  28  35
ATOM     34  C   UNL     1       7.895   7.650  17.949  0.00  0.00    +0.000 C 
ATOM     35  O   UNL     1       7.462   7.225  16.660  0.00  0.00    +0.000 OA
ENDBRANCH  28  35
ENDBRANCH  26  32
ENDBRANCH  23  26
ENDBRANCH   1  23
TORSDOF 6
ENDMDL
MODEL 4
REMARK VINA RESULT:      -8.5      3.106     10.004
REMARK  Name = 
REMARK  7 active torsions:
REMARK  status: ('A' for Active; 'I' for Inactive)
REMARK    1  A    between atoms: C_1  and  O_2
REMARK    2  A    between atoms: O_2  and  C_3
REMARK    3  A    between atoms: C_7  and  N_8
REMARK    4  A    between atoms: N_8  and  S_9
REMARK    5  A    between atoms: S_9  and  C_12
REMARK    6  A    between atoms: C_18  and  C_19
REMARK    7  A    between atoms: N_21  and  C_22
REMARK                            x       y       z     vdW  Elec       q    Type
REMARK                         _______ _______ _______ _____ _____    ______ ____
ROOT
ATOM      1  C   UNL     1       2.204   7.169  19.401  0.00  0.00    +0.000 A 
ATOM      2  C   UNL     1       2.570   7.595  18.120  0.00  0.00    +0.000 A 
ATOM      3  C   UNL     1       2.195   8.864  17.689  0.00  0.00    +0.000 A 
ATOM      4  C   UNL     1       1.438   9.712  18.521  0.00  0.00    +0.000 A 
ATOM      5  N   UNL     1       1.034  10.959  18.044  0.00  0.00    +0.000 N 
ATOM      6  C   UNL     1       0.205  11.753  18.791  0.00  0.00    +0.000 A 
ATOM      7  C   UNL     1      -0.165  11.558  20.073  0.00  0.00    +0.000 A 
ATOM      8  C   UNL     1       0.366  10.307  20.711  0.00  0.00    +0.000 A 
ATOM      9  O   UNL     1       0.199  10.084  21.907  0.00  0.00    +0.000 OA
ATOM     10  C   UNL     1       1.127   9.319  19.834  0.00  0.00    +0.000 A 
ATOM     11  C   UNL     1       1.496   8.031  20.270  0.00  0.00    +0.000 A 
ATOM     12  H   UNL     1       1.098  11.144  17.048  0.00  0.00    +0.000 HD
ENDROOT
BRANCH   7  13
ATOM     13  C   UNL     1      -1.041  12.641  20.657  0.00  0.00    +0.000 C 
ATOM     14  O   UNL     1      -0.928  13.795  20.230  0.00  0.00    +0.000 OA
ATOM     15  N   UNL     1      -1.929  12.363  21.682  0.00  0.00    +0.000 N 
ATOM     16  H   UNL     1      -1.916  11.433  22.093  0.00  0.00    +0.000 HD
BRANCH  15  17
ATOM     17  C   UNL     1      -2.649  13.473  22.357  0.00  0.00    +0.000 C 
ATOM     18  C   UNL     1      -4.008  13.824  21.707  0.00  0.00    +0.000 C 
ATOM     19  C   UNL     1      -5.163  12.927  22.147  0.00  0.00    +0.000 C 
ATOM     20  C   UNL     1      -5.307  12.900  23.662  0.00  0.00    +0.000 C 
ATOM     21  C   UNL     1      -4.005  12.458  24.320  0.00  0.00    +0.000 C 
ATOM     22  C   UNL     1      -2.813  13.311  23.882  0.00  0.00    +0.000 C 
ENDBRANCH  15  17
ENDBRANCH   7  13
BRANCH   1  23
ATOM     23  S   UNL     1       2.496   5.451  19.817  0.00  0.00    +0.000 S 
ATOM     24  O   UNL     1       1.994   4.661  18.706  0.00  0.00    +0.000 OA
ATOM     25  O   UNL     1       2.031   5.222  21.161  0.00  0.00    +0.000 OA
BRANCH  23  26
ATOM     26  N   UNL     1       4.165   5.301  19.752  0.00  0.00    +0.000 N 
ATOM     27  H   UNL     1       4.665   5.685  20.553  0.00  0.00    +0.000 HD
BRANCH  26  32
ATOM     28  C   UNL     1       6.549   6.092  17.059  0.00  0.00    +0.000 A 
ATOM     29  C   UNL     1       6.110   5.233  16.047  0.00  0.00    +0.000 A 
ATOM     30  C   UNL     1       5.028   4.375  16.261  0.00  0.00    +0.000 A 
ATOM     31  C   UNL     1       4.376   4.375  17.496  0.00  0.00    +0.000 A 
ATOM     32  C   UNL     1       4.823   5.231  18.504  0.00  0.00    +0.000 A 
ATOM     33  C   UNL     1       5.900   6.086  18.285  0.00  0.00    +0.000 A 
BRANCH  28  35
ATOM     34  C   UNL     1       7.789   8.057  17.539  0.00  0.00    +0.000 C 
ATOM     35  O   UNL     1       7.603   6.901  16.729  0.00  0.00    +0.000 OA
ENDBRANCH  28  35
ENDBRANCH  26  32
ENDBRANCH  23  26
ENDBRANCH   1  23
TORSDOF 6
ENDMDL
MODEL 5
REMARK VINA RESULT:      -8.4      3.663      9.685
REMARK  Name = 
REMARK  7 active torsions:
REMARK  status: ('A' for Active; 'I' for Inactive)
REMARK    1  A    between atoms: C_1  and  O_2
REMARK    2  A    between atoms: O_2  and  C_3
REMARK    3  A    between atoms: C_7  and  N_8
REMARK    4  A    between atoms: N_8  and  S_9
REMARK    5  A    between atoms: S_9  and  C_12
REMARK    6  A    between atoms: C_18  and  C_19
REMARK    7  A    between atoms: N_21  and  C_22
REMARK                            x       y       z     vdW  Elec       q    Type
REMARK                         _______ _______ _______ _____ _____    ______ ____
ROOT
ATOM      1  C   UNL     1       2.811   4.451  18.933  0.00  0.00    +0.000 A 
ATOM      2  C   UNL     1       2.350   4.281  20.242  0.00  0.00    +0.000 A 
ATOM      3  C   UNL     1       1.834   5.373  20.932  0.00  0.00    +0.000 A 
ATOM      4  C   UNL     1       1.789   6.647  20.332  0.00  0.00    +0.000 A 
ATOM      5  N   UNL     1       1.312   7.734  21.065  0.00  0.00    +0.000 N 
ATOM      6  C   UNL     1       1.363   8.999  20.544  0.00  0.00    +0.000 A 
ATOM      7  C   UNL     1       1.675   9.342  19.278  0.00  0.00    +0.000 A 
ATOM      8  C   UNL     1       2.047   8.199  18.377  0.00  0.00    +0.000 A 
ATOM      9  O   UNL     1       2.232   8.372  17.175  0.00  0.00    +0.000 OA
ATOM     10  C   UNL     1       2.184   6.812  18.994  0.00  0.00    +0.000 A 
ATOM     11  C   UNL     1       2.717   5.709  18.296  0.00  0.00    +0.000 A 
ATOM     12  H   UNL     1       1.216   7.639  22.072  0.00  0.00    +0.000 HD
ENDROOT
BRANCH   7  13
ATOM     13  C   UNL     1       1.584  10.818  18.974  0.00  0.00    +0.000 C 
ATOM     14  O   UNL     1       2.286  11.286  18.071  0.00  0.00    +0.000 OA
ATOM     15  N   UNL     1       0.759  11.648  19.714  0.00  0.00    +0.000 N 
ATOM     16  H   UNL     1       0.283  11.258  20.524  0.00  0.00    +0.000 HD
BRANCH  15  17
ATOM     17  C   UNL     1       0.817  13.119  19.512  0.00  0.00    +0.000 C 
ATOM     18  C   UNL     1      -0.535  13.749  19.107  0.00  0.00    +0.000 C 
ATOM     19  C   UNL     1      -1.468  14.038  20.281  0.00  0.00    +0.000 C 
ATOM     20  C   UNL     1      -0.792  14.900  21.336  0.00  0.00    +0.000 C 
ATOM     21  C   UNL     1       0.495  14.247  21.825  0.00  0.00    +0.000 C 
ATOM     22  C   UNL     1       1.448  13.911  20.677  0.00  0.00    +0.000 C 
ENDBRANCH  15  17
ENDBRANCH   7  13
BRANCH   1  23
ATOM     23  S   UNL     1       3.684   3.081  18.177  0.00  0.00    +0.000 S 
ATOM     24  O   UNL     1       3.693   3.329  16.747  0.00  0.00    +0.000 OA
ATOM     25  O   UNL     1       3.160   1.853  18.715  0.00  0.00    +0.000 OA
BRANCH  23  26
ATOM     26  N   UNL     1       5.272   3.296  18.675  0.00  0.00    +0.000 N 
ATOM     27  H   UNL     1       5.500   2.886  19.580  0.00  0.00    +0.000 HD
BRANCH  26  32
ATOM     28  C   UNL     1       7.097   5.519  16.376  0.00  0.00    +0.000 A 
ATOM     29  C   UNL     1       7.552   6.505  17.256  0.00  0.00    +0.000 A 
ATOM     30  C   UNL     1       7.241   6.443  18.617  0.00  0.00    +0.000 A 
ATOM     31  C   UNL     1       6.470   5.387  19.105  0.00  0.00    +0.000 A 
ATOM     32  C   UNL     1       6.014   4.408  18.220  0.00  0.00    +0.000 A 
ATOM     33  C   UNL     1       6.328   4.473  16.865  0.00  0.00    +0.000 A 
BRANCH  28  35
ATOM     34  C   UNL     1       6.903   4.771  14.133  0.00  0.00    +0.000 C 
ATOM     35  O   UNL     1       7.482   5.672  15.071  0.00  0.00    +0.000 OA
ENDBRANCH  28  35
ENDBRANCH  26  32
ENDBRANCH  23  26
ENDBRANCH   1  23
TORSDOF 6
ENDMDL
MODEL 6
REMARK VINA RESULT:      -8.4      2.749      4.352
REMARK  Name = 
REMARK  7 active torsions:
REMARK  status: ('A' for Active; 'I' for Inactive)
REMARK    1  A    between atoms: C_1  and  O_2
REMARK    2  A    between atoms: O_2  and  C_3
REMARK    3  A    between atoms: C_7  and  N_8
REMARK    4  A    between atoms: N_8  and  S_9
REMARK    5  A    between atoms: S_9  and  C_12
REMARK    6  A    between atoms: C_18  and  C_19
REMARK    7  A    between atoms: N_21  and  C_22
REMARK                            x       y       z     vdW  Elec       q    Type
REMARK                         _______ _______ _______ _____ _____    ______ ____
ROOT
ATOM      1  C   UNL     1       0.152  11.625  19.853  0.00  0.00    +0.000 A 
ATOM      2  C   UNL     1       0.023  11.286  21.204  0.00  0.00    +0.000 A 
ATOM      3  C   UNL     1       0.499  10.057  21.649  0.00  0.00    +0.000 A 
ATOM      4  C   UNL     1       1.091   9.147  20.752  0.00  0.00    +0.000 A 
ATOM      5  N   UNL     1       1.515   7.902  21.217  0.00  0.00    +0.000 N 
ATOM      6  C   UNL     1       1.990   6.960  20.345  0.00  0.00    +0.000 A 
ATOM      7  C   UNL     1       2.279   7.137  19.040  0.00  0.00    +0.000 A 
ATOM      8  C   UNL     1       1.998   8.510  18.500  0.00  0.00    +0.000 A 
ATOM      9  O   UNL     1       2.334   8.826  17.362  0.00  0.00    +0.000 OA
ATOM     10  C   UNL     1       1.289   9.508  19.408  0.00  0.00    +0.000 A 
ATOM     11  C   UNL     1       0.798  10.748  18.952  0.00  0.00    +0.000 A 
ATOM     12  H   UNL     1       1.194   7.588  22.128  0.00  0.00    +0.000 HD
ENDROOT
BRANCH   7  13
ATOM     13  C   UNL     1       2.853   5.926  18.342  0.00  0.00    +0.000 C 
ATOM     14  O   UNL     1       2.161   4.906  18.251  0.00  0.00    +0.000 OA
ATOM     15  N   UNL     1       4.145   5.936  17.845  0.00  0.00    +0.000 N 
ATOM     16  H   UNL     1       4.731   6.745  18.038  0.00  0.00    +0.000 HD
BRANCH  15  17
ATOM     17  C   UNL     1       4.745   4.682  17.322  0.00  0.00    +0.000 C 
ATOM     18  C   UNL     1       4.664   4.543  15.785  0.00  0.00    +0.000 C 
ATOM     19  C   UNL     1       5.768   5.279  15.030  0.00  0.00    +0.000 C 
ATOM     20  C   UNL     1       7.150   4.866  15.513  0.00  0.00    +0.000 C 
ATOM     21  C   UNL     1       7.287   5.089  17.014  0.00  0.00    +0.000 C 
ATOM     22  C   UNL     1       6.181   4.394  17.809  0.00  0.00    +0.000 C 
ENDBRANCH  15  17
ENDBRANCH   7  13
BRANCH   1  23
ATOM     23  S   UNL     1      -0.688  13.101  19.284  0.00  0.00    +0.000 S 
ATOM     24  O   UNL     1      -1.981  13.126  19.944  0.00  0.00    +0.000 OA
ATOM     25  O   UNL     1      -0.585  13.161  17.849  0.00  0.00    +0.000 OA
BRANCH  23  26
ATOM     26  N   UNL     1       0.188  14.352  19.977  0.00  0.00    +0.000 N 
ATOM     27  H   UNL     1      -0.255  14.798  20.780  0.00  0.00    +0.000 HD
BRANCH  26  32
ATOM     28  C   UNL     1       1.574  17.153  18.028  0.00  0.00    +0.000 A 
ATOM     29  C   UNL     1       2.778  16.602  17.580  0.00  0.00    +0.000 A 
ATOM     30  C   UNL     1       3.141  15.300  17.936  0.00  0.00    +0.000 A 
ATOM     31  C   UNL     1       2.296  14.540  18.747  0.00  0.00    +0.000 A 
ATOM     32  C   UNL     1       1.098  15.099  19.196  0.00  0.00    +0.000 A 
ATOM     33  C   UNL     1       0.739  16.395  18.836  0.00  0.00    +0.000 A 
BRANCH  28  35
ATOM     34  C   UNL     1       0.875  18.560  16.250  0.00  0.00    +0.000 C 
ATOM     35  O   UNL     1       1.313  18.426  17.599  0.00  0.00    +0.000 OA
ENDBRANCH  28  35
ENDBRANCH  26  32
ENDBRANCH  23  26
ENDBRANCH   1  23
TORSDOF 6
ENDMDL
MODEL 7
REMARK VINA RESULT:      -8.4      1.121      1.603
REMARK  Name = 
REMARK  7 active torsions:
REMARK  status: ('A' for Active; 'I' for Inactive)
REMARK    1  A    between atoms: C_1  and  O_2
REMARK    2  A    between atoms: O_2  and  C_3
REMARK    3  A    between atoms: C_7  and  N_8
REMARK    4  A    between atoms: N_8  and  S_9
REMARK    5  A    between atoms: S_9  and  C_12
REMARK    6  A    between atoms: C_18  and  C_19
REMARK    7  A    between atoms: N_21  and  C_22
REMARK                            x       y       z     vdW  Elec       q    Type
REMARK                         _______ _______ _______ _____ _____    ______ ____
ROOT
ATOM      1  C   UNL     1       0.355  11.659  19.823  0.00  0.00    +0.000 A 
ATOM      2  C   UNL     1       0.150  11.280  21.153  0.00  0.00    +0.000 A 
ATOM      3  C   UNL     1       0.542  10.012  21.572  0.00  0.00    +0.000 A 
ATOM      4  C   UNL     1       1.125   9.105  20.666  0.00  0.00    +0.000 A 
ATOM      5  N   UNL     1       1.464   7.823  21.101  0.00  0.00    +0.000 N 
ATOM      6  C   UNL     1       1.927   6.888  20.214  0.00  0.00    +0.000 A 
ATOM      7  C   UNL     1       2.283   7.096  18.930  0.00  0.00    +0.000 A 
ATOM      8  C   UNL     1       2.096   8.500  18.432  0.00  0.00    +0.000 A 
ATOM      9  O   UNL     1       2.497   8.838  17.321  0.00  0.00    +0.000 OA
ATOM     10  C   UNL     1       1.400   9.502  19.346  0.00  0.00    +0.000 A 
ATOM     11  C   UNL     1       0.994  10.781  18.917  0.00  0.00    +0.000 A 
ATOM     12  H   UNL     1       1.088   7.493  21.985  0.00  0.00    +0.000 HD
ENDROOT
BRANCH   7  13
ATOM     13  C   UNL     1       2.823   5.882  18.212  0.00  0.00    +0.000 C 
ATOM     14  O   UNL     1       2.093   4.894  18.078  0.00  0.00    +0.000 OA
ATOM     15  N   UNL     1       4.125   5.853  17.743  0.00  0.00    +0.000 N 
ATOM     16  H   UNL     1       4.738   6.633  17.970  0.00  0.00    +0.000 HD
BRANCH  15  17
ATOM     17  C   UNL     1       4.687   4.590  17.198  0.00  0.00    +0.000 C 
ATOM     18  C   UNL     1       4.695   4.524  15.654  0.00  0.00    +0.000 C 
ATOM     19  C   UNL     1       5.884   5.228  15.003  0.00  0.00    +0.000 C 
ATOM     20  C   UNL     1       7.208   4.713  15.549  0.00  0.00    +0.000 C 
ATOM     21  C   UNL     1       7.262   4.862  17.064  0.00  0.00    +0.000 C 
ATOM     22  C   UNL     1       6.071   4.198  17.757  0.00  0.00    +0.000 C 
ENDBRANCH  15  17
ENDBRANCH   7  13
BRANCH   1  23
ATOM     23  S   UNL     1      -0.382  13.197  19.276  0.00  0.00    +0.000 S 
ATOM     24  O   UNL     1       0.711  14.122  19.036  0.00  0.00    +0.000 OA
ATOM     25  O   UNL     1      -1.456  13.534  20.175  0.00  0.00    +0.000 OA
BRANCH  23  26
ATOM     26  N   UNL     1      -0.995  12.829  17.759  0.00  0.00    +0.000 N 
ATOM     27  H   UNL     1      -0.891  13.566  17.061  0.00  0.00    +0.000 HD
BRANCH  26  32
ATOM     28  C   UNL     1      -3.130  10.213  16.288  0.00  0.00    +0.000 A 
ATOM     29  C   UNL     1      -4.154  10.135  17.236  0.00  0.00    +0.000 A 
ATOM     30  C   UNL     1      -4.132  10.941  18.377  0.00  0.00    +0.000 A 
ATOM     31  C   UNL     1      -3.078  11.835  18.575  0.00  0.00    +0.000 A 
ATOM     32  C   UNL     1      -2.056  11.906  17.627  0.00  0.00    +0.000 A 
ATOM     33  C   UNL     1      -2.083  11.102  16.490  0.00  0.00    +0.000 A 
BRANCH  28  35
ATOM     34  C   UNL     1      -3.672  10.016  13.987  0.00  0.00    +0.000 C 
ATOM     35  O   UNL     1      -3.268   9.392  15.202  0.00  0.00    +0.000 OA
ENDBRANCH  28  35
ENDBRANCH  26  32
ENDBRANCH  23  26
ENDBRANCH   1  23
TORSDOF 6
ENDMDL
MODEL 8
REMARK VINA RESULT:      -8.4      3.590      9.220
REMARK  Name = 
REMARK  7 active torsions:
REMARK  status: ('A' for Active; 'I' for Inactive)
REMARK    1  A    between atoms: C_1  and  O_2
REMARK    2  A    between atoms: O_2  and  C_3
REMARK    3  A    between atoms: C_7  and  N_8
REMARK    4  A    between atoms: N_8  and  S_9
REMARK    5  A    between atoms: S_9  and  C_12
REMARK    6  A    between atoms: C_18  and  C_19
REMARK    7  A    between atoms: N_21  and  C_22
REMARK                            x       y       z     vdW  Elec       q    Type
REMARK                         _______ _______ _______ _____ _____    ______ ____
ROOT
ATOM      1  C   UNL     1       2.742   5.237  18.691  0.00  0.00    +0.000 A 
ATOM      2  C   UNL     1       2.320   4.943  19.991  0.00  0.00    +0.000 A 
ATOM      3  C   UNL     1       1.743   5.946  20.765  0.00  0.00    +0.000 A 
ATOM      4  C   UNL     1       1.599   7.252  20.258  0.00  0.00    +0.000 A 
ATOM      5  N   UNL     1       1.063   8.249  21.074  0.00  0.00    +0.000 N 
ATOM      6  C   UNL     1       1.016   9.548  20.644  0.00  0.00    +0.000 A 
ATOM      7  C   UNL     1       1.279  10.000  19.401  0.00  0.00    +0.000 A 
ATOM      8  C   UNL     1       1.712   8.952  18.415  0.00  0.00    +0.000 A 
ATOM      9  O   UNL     1       1.860   9.222  17.227  0.00  0.00    +0.000 OA
ATOM     10  C   UNL     1       1.956   7.538  18.929  0.00  0.00    +0.000 A 
ATOM     11  C   UNL     1       2.549   6.527  18.147  0.00  0.00    +0.000 A 
ATOM     12  H   UNL     1       0.993   8.077  22.072  0.00  0.00    +0.000 HD
ENDROOT
BRANCH   7  13
ATOM     13  C   UNL     1       1.080  11.484  19.204  0.00  0.00    +0.000 C 
ATOM     14  O   UNL     1       0.120  11.874  18.532  0.00  0.00    +0.000 OA
ATOM     15  N   UNL     1       1.976  12.398  19.731  0.00  0.00    +0.000 N 
ATOM     16  H   UNL     1       2.819  12.046  20.178  0.00  0.00    +0.000 HD
BRANCH  15  17
ATOM     17  C   UNL     1       1.858  13.837  19.378  0.00  0.00    +0.000 C 
ATOM     18  C   UNL     1       2.135  14.795  20.559  0.00  0.00    +0.000 C 
ATOM     19  C   UNL     1       3.617  15.071  20.807  0.00  0.00    +0.000 C 
ATOM     20  C   UNL     1       4.310  15.582  19.553  0.00  0.00    +0.000 C 
ATOM     21  C   UNL     1       4.134  14.601  18.400  0.00  0.00    +0.000 C 
ATOM     22  C   UNL     1       2.664  14.271  18.136  0.00  0.00    +0.000 C 
ENDBRANCH  15  17
ENDBRANCH   7  13
BRANCH   1  23
ATOM     23  S   UNL     1       3.693   3.988  17.827  0.00  0.00    +0.000 S 
ATOM     24  O   UNL     1       2.793   3.364  16.874  0.00  0.00    +0.000 OA
ATOM     25  O   UNL     1       4.406   3.202  18.801  0.00  0.00    +0.000 OA
BRANCH  23  26
ATOM     26  N   UNL     1       4.774   4.877  16.902  0.00  0.00    +0.000 N 
ATOM     27  H   UNL     1       4.866   4.572  15.934  0.00  0.00    +0.000 HD
BRANCH  26  32
ATOM     28  C   UNL     1       7.279   7.483  17.604  0.00  0.00    +0.000 A 
ATOM     29  C   UNL     1       8.039   6.867  18.603  0.00  0.00    +0.000 A 
ATOM     30  C   UNL     1       7.712   5.587  19.058  0.00  0.00    +0.000 A 
ATOM     31  C   UNL     1       6.618   4.914  18.512  0.00  0.00    +0.000 A 
ATOM     32  C   UNL     1       5.860   5.537  17.519  0.00  0.00    +0.000 A 
ATOM     33  C   UNL     1       6.191   6.812  17.067  0.00  0.00    +0.000 A 
BRANCH  28  35
ATOM     34  C   UNL     1       8.467   9.454  18.182  0.00  0.00    +0.000 C 
ATOM     35  O   UNL     1       7.705   8.727  17.223  0.00  0.00    +0.000 OA
ENDBRANCH  28  35
ENDBRANCH  26  32
ENDBRANCH  23  26
ENDBRANCH   1  23
TORSDOF 6
ENDMDL
MODEL 9
REMARK VINA RESULT:      -8.3      2.676      3.186
REMARK  Name = 
REMARK  7 active torsions:
REMARK  status: ('A' for Active; 'I' for Inactive)
REMARK    1  A    between atoms: C_1  and  O_2
REMARK    2  A    between atoms: O_2  and  C_3
REMARK    3  A    between atoms: C_7  and  N_8
REMARK    4  A    between atoms: N_8  and  S_9
REMARK    5  A    between atoms: S_9  and  C_12
REMARK    6  A    between atoms: C_18  and  C_19
REMARK    7  A    between atoms: N_21  and  C_22
REMARK                            x       y       z     vdW  Elec       q    Type
REMARK                         _______ _______ _______ _____ _____    ______ ____
ROOT
ATOM      1  C   UNL     1      -0.430  11.479  20.975  0.00  0.00    +0.000 A 
ATOM      2  C   UNL     1      -0.353  12.145  19.747  0.00  0.00    +0.000 A 
ATOM      3  C   UNL     1       0.316  11.545  18.685  0.00  0.00    +0.000 A 
ATOM      4  C   UNL     1       0.930  10.287  18.840  0.00  0.00    +0.000 A 
ATOM      5  N   UNL     1       1.636   9.732  17.772  0.00  0.00    +0.000 N 
ATOM      6  C   UNL     1       2.334   8.566  17.933  0.00  0.00    +0.000 A 
ATOM      7  C   UNL     1       2.296   7.739  18.997  0.00  0.00    +0.000 A 
ATOM      8  C   UNL     1       1.424   8.193  20.132  0.00  0.00    +0.000 A 
ATOM      9  O   UNL     1       1.213   7.469  21.101  0.00  0.00    +0.000 OA
ATOM     10  C   UNL     1       0.797   9.580  20.047  0.00  0.00    +0.000 A 
ATOM     11  C   UNL     1       0.129  10.189  21.128  0.00  0.00    +0.000 A 
ATOM     12  H   UNL     1       1.883  10.329  16.988  0.00  0.00    +0.000 HD
ENDROOT
BRANCH   7  13
ATOM     13  C   UNL     1       3.127   6.485  18.863  0.00  0.00    +0.000 C 
ATOM     14  O   UNL     1       3.122   5.664  19.787  0.00  0.00    +0.000 OA
ATOM     15  N   UNL     1       3.916   6.269  17.746  0.00  0.00    +0.000 N 
ATOM     16  H   UNL     1       3.992   7.014  17.058  0.00  0.00    +0.000 HD
BRANCH  15  17
ATOM     17  C   UNL     1       4.856   5.119  17.715  0.00  0.00    +0.000 C 
ATOM     18  C   UNL     1       4.755   4.264  16.432  0.00  0.00    +0.000 C 
ATOM     19  C   UNL     1       5.540   4.819  15.245  0.00  0.00    +0.000 C 
ATOM     20  C   UNL     1       7.001   5.051  15.598  0.00  0.00    +0.000 C 
ATOM     21  C   UNL     1       7.126   5.977  16.803  0.00  0.00    +0.000 C 
ATOM     22  C   UNL     1       6.329   5.473  18.007  0.00  0.00    +0.000 C 
ENDBRANCH  15  17
ENDBRANCH   7  13
BRANCH   1  23
ATOM     23  S   UNL     1      -1.084  12.389  22.372  0.00  0.00    +0.000 S 
ATOM     24  O   UNL     1       0.012  13.174  22.910  0.00  0.00    +0.000 OA
ATOM     25  O   UNL     1      -1.823  11.476  23.206  0.00  0.00    +0.000 OA
BRANCH  23  26
ATOM     26  N   UNL     1      -2.127  13.501  21.672  0.00  0.00    +0.000 N 
ATOM     27  H   UNL     1      -1.844  14.476  21.766  0.00  0.00    +0.000 HD
BRANCH  26  32
ATOM     28  C   UNL     1      -5.671  13.050  22.566  0.00  0.00    +0.000 A 
ATOM     29  C   UNL     1      -6.186  12.529  21.376  0.00  0.00    +0.000 A 
ATOM     30  C   UNL     1      -5.360  12.341  20.265  0.00  0.00    +0.000 A 
ATOM     31  C   UNL     1      -4.007  12.672  20.341  0.00  0.00    +0.000 A 
ATOM     32  C   UNL     1      -3.499  13.197  21.531  0.00  0.00    +0.000 A 
ATOM     33  C   UNL     1      -4.325  13.381  22.637  0.00  0.00    +0.000 A 
BRANCH  28  35
ATOM     34  C   UNL     1      -7.833  12.546  23.403  0.00  0.00    +0.000 C 
ATOM     35  O   UNL     1      -6.567  13.171  23.593  0.00  0.00    +0.000 OA
ENDBRANCH  28  35
ENDBRANCH  26  32
ENDBRANCH  23  26
ENDBRANCH   1  23
TORSDOF 6
ENDMDL
