MODEL 1
REMARK VINA RESULT:     -10.1      0.000      0.000
REMARK  Name = 
REMARK  4 active torsions:
REMARK  status: ('A' for Active; 'I' for Inactive)
REMARK    1  A    between atoms: C_1  and  C_2
REMARK    2  A    between atoms: C_5  and  C_6
REMARK    3  A    between atoms: C_8  and  C_9
REMARK    4  A    between atoms: C_25  and  C_26
REMARK                            x       y       z     vdW  Elec       q    Type
REMARK                         _______ _______ _______ _____ _____    ______ ____
ROOT
ATOM      1  C   UNL     1       2.218   7.067  19.759  0.00  0.00    +0.000 A 
ATOM      2  C   UNL     1       3.212   6.910  18.810  0.00  0.00    +0.000 A 
ATOM      3  C   UNL     1       3.890   5.682  18.688  0.00  0.00    +0.000 A 
ATOM      4  C   UNL     1       3.526   4.598  19.546  0.00  0.00    +0.000 A 
ATOM      5  C   UNL     1       4.101   3.292  19.601  0.00  0.00    +0.000 A 
ATOM      6  C   UNL     1       3.616   2.302  20.466  0.00  0.00    +0.000 A 
ATOM      7  C   UNL     1       2.586   2.598  21.339  0.00  0.00    +0.000 A 
ATOM      8  C   UNL     1       2.048   3.881  21.342  0.00  0.00    +0.000 A 
ATOM      9  C   UNL     1       2.486   4.870  20.471  0.00  0.00    +0.000 A 
ATOM     10  N   UNL     1       1.868   6.052  20.575  0.00  0.00    +0.000 NA
ENDROOT
BRANCH   3  11
ATOM     11  C   UNL     1       5.007   5.721  17.675  0.00  0.00    +0.000 C 
ATOM     12  O   UNL     1       5.937   6.466  17.939  0.00  0.00    +0.000 OA
ATOM     13  N   UNL     1       4.871   4.971  16.515  0.00  0.00    +0.000 N 
ATOM     14  C   UNL     1       5.832   4.976  15.517  0.00  0.00    +0.000 A 
ATOM     15  C   UNL     1       5.804   4.263  14.294  0.00  0.00    +0.000 A 
ATOM     16  C   UNL     1       6.994   4.585  13.669  0.00  0.00    +0.000 A 
ATOM     17  N   UNL     1       7.639   5.433  14.508  0.00  0.00    +0.000 N 
ATOM     18  N   UNL     1       6.942   5.703  15.607  0.00  0.00    +0.000 NA
ATOM     19  H   UNL     1       4.026   4.486  16.291  0.00  0.00    +0.000 HD
ATOM     20  H   UNL     1       8.544   5.872  14.417  0.00  0.00    +0.000 HD
ENDBRANCH   3  11
BRANCH   1  25
ATOM     21  C   UNL     1      -0.676  12.074  20.456  0.00  0.00    +0.000 C 
ATOM     22  C   UNL     1       0.057  10.770  20.297  0.00  0.00    +0.000 A 
ATOM     23  C   UNL     1       0.662  10.462  19.069  0.00  0.00    +0.000 A 
ATOM     24  C   UNL     1       1.362   9.266  18.897  0.00  0.00    +0.000 A 
ATOM     25  C   UNL     1       1.481   8.333  19.938  0.00  0.00    +0.000 A 
ATOM     26  C   UNL     1       0.867   8.651  21.164  0.00  0.00    +0.000 A 
ATOM     27  C   UNL     1       0.159   9.852  21.357  0.00  0.00    +0.000 A 
ATOM     28  C   UNL     1      -0.467  10.127  22.697  0.00  0.00    +0.000 C 
ENDBRANCH   1  25
TORSDOF 2
ENDMDL
MODEL 2
REMARK VINA RESULT:      -9.9      1.230      1.354
REMARK  Name = 
REMARK  4 active torsions:
REMARK  status: ('A' for Active; 'I' for Inactive)
REMARK    1  A    between atoms: C_1  and  C_2
REMARK    2  A    between atoms: C_5  and  C_6
REMARK    3  A    between atoms: C_8  and  C_9
REMARK    4  A    between atoms: C_25  and  C_26
REMARK                            x       y       z     vdW  Elec       q    Type
REMARK                         _______ _______ _______ _____ _____    ______ ____
ROOT
ATOM      1  C   UNL     1       2.537   6.634  18.752  0.00  0.00    +0.000 A 
ATOM      2  C   UNL     1       3.566   6.558  17.831  0.00  0.00    +0.000 A 
ATOM      3  C   UNL     1       4.086   5.306  17.450  0.00  0.00    +0.000 A 
ATOM      4  C   UNL     1       3.527   4.118  18.015  0.00  0.00    +0.000 A 
ATOM      5  C   UNL     1       3.922   2.766  17.785  0.00  0.00    +0.000 A 
ATOM      6  C   UNL     1       3.255   1.684  18.375  0.00  0.00    +0.000 A 
ATOM      7  C   UNL     1       2.215   1.918  19.254  0.00  0.00    +0.000 A 
ATOM      8  C   UNL     1       1.848   3.230  19.537  0.00  0.00    +0.000 A 
ATOM      9  C   UNL     1       2.469   4.319  18.939  0.00  0.00    +0.000 A 
ATOM     10  N   UNL     1       2.004   5.521  19.295  0.00  0.00    +0.000 NA
ENDROOT
BRANCH   3  11
ATOM     11  C   UNL     1       5.266   5.415  16.516  0.00  0.00    +0.000 C 
ATOM     12  O   UNL     1       6.141   6.195  16.855  0.00  0.00    +0.000 OA
ATOM     13  N   UNL     1       5.243   4.683  15.336  0.00  0.00    +0.000 N 
ATOM     14  C   UNL     1       6.268   4.752  14.407  0.00  0.00    +0.000 A 
ATOM     15  C   UNL     1       6.355   4.064  13.173  0.00  0.00    +0.000 A 
ATOM     16  C   UNL     1       7.568   4.450  12.636  0.00  0.00    +0.000 A 
ATOM     17  N   UNL     1       8.115   5.309  13.532  0.00  0.00    +0.000 N 
ATOM     18  N   UNL     1       7.335   5.525  14.585  0.00  0.00    +0.000 NA
ATOM     19  H   UNL     1       4.438   4.167  15.047  0.00  0.00    +0.000 HD
ATOM     20  H   UNL     1       9.004   5.789  13.510  0.00  0.00    +0.000 HD
ENDBRANCH   3  11
BRANCH   1  25
ATOM     21  C   UNL     1       0.272  11.711  20.492  0.00  0.00    +0.000 C 
ATOM     22  C   UNL     1       0.844  10.388  20.064  0.00  0.00    +0.000 A 
ATOM     23  C   UNL     1       1.267  10.213  18.738  0.00  0.00    +0.000 A 
ATOM     24  C   UNL     1       1.816   9.001  18.315  0.00  0.00    +0.000 A 
ATOM     25  C   UNL     1       1.960   7.918  19.196  0.00  0.00    +0.000 A 
ATOM     26  C   UNL     1       1.529   8.103  20.523  0.00  0.00    +0.000 A 
ATOM     27  C   UNL     1       0.976   9.318  20.968  0.00  0.00    +0.000 A 
ATOM     28  C   UNL     1       0.542   9.446  22.403  0.00  0.00    +0.000 C 
ENDBRANCH   1  25
TORSDOF 2
ENDMDL
MODEL 3
REMARK VINA RESULT:      -9.5      0.730      1.440
REMARK  Name = 
REMARK  4 active torsions:
REMARK  status: ('A' for Active; 'I' for Inactive)
REMARK    1  A    between atoms: C_1  and  C_2
REMARK    2  A    between atoms: C_5  and  C_6
REMARK    3  A    between atoms: C_8  and  C_9
REMARK    4  A    between atoms: C_25  and  C_26
REMARK                            x       y       z     vdW  Elec       q    Type
REMARK                         _______ _______ _______ _____ _____    ______ ____
ROOT
ATOM      1  C   UNL     1       2.057   7.033  19.850  0.00  0.00    +0.000 A 
ATOM      2  C   UNL     1       3.062   6.927  18.907  0.00  0.00    +0.000 A 
ATOM      3  C   UNL     1       3.550   5.662  18.529  0.00  0.00    +0.000 A 
ATOM      4  C   UNL     1       2.982   4.491  19.121  0.00  0.00    +0.000 A 
ATOM      5  C   UNL     1       3.348   3.129  18.898  0.00  0.00    +0.000 A 
ATOM      6  C   UNL     1       2.674   2.067  19.517  0.00  0.00    +0.000 A 
ATOM      7  C   UNL     1       1.659   2.330  20.417  0.00  0.00    +0.000 A 
ATOM      8  C   UNL     1       1.323   3.652  20.692  0.00  0.00    +0.000 A 
ATOM      9  C   UNL     1       1.951   4.722  20.067  0.00  0.00    +0.000 A 
ATOM     10  N   UNL     1       1.516   5.936  20.419  0.00  0.00    +0.000 NA
ENDROOT
BRANCH   3  11
ATOM     11  C   UNL     1       4.710   5.738  17.566  0.00  0.00    +0.000 C 
ATOM     12  O   UNL     1       5.571   6.558  17.837  0.00  0.00    +0.000 OA
ATOM     13  N   UNL     1       4.684   4.929  16.438  0.00  0.00    +0.000 N 
ATOM     14  C   UNL     1       5.690   4.961  15.486  0.00  0.00    +0.000 A 
ATOM     15  C   UNL     1       5.771   4.196  14.297  0.00  0.00    +0.000 A 
ATOM     16  C   UNL     1       6.965   4.576  13.713  0.00  0.00    +0.000 A 
ATOM     17  N   UNL     1       7.506   5.505  14.540  0.00  0.00    +0.000 N 
ATOM     18  N   UNL     1       6.740   5.771  15.592  0.00  0.00    +0.000 NA
ATOM     19  H   UNL     1       3.887   4.376  16.198  0.00  0.00    +0.000 HD
ATOM     20  H   UNL     1       8.382   6.004  14.470  0.00  0.00    +0.000 HD
ENDBRANCH   3  11
BRANCH   1  25
ATOM     21  C   UNL     1      -0.095  12.153  21.607  0.00  0.00    +0.000 C 
ATOM     22  C   UNL     1       0.470  10.844  21.131  0.00  0.00    +0.000 A 
ATOM     23  C   UNL     1       0.712   9.817  22.056  0.00  0.00    +0.000 A 
ATOM     24  C   UNL     1       1.222   8.585  21.641  0.00  0.00    +0.000 A 
ATOM     25  C   UNL     1       1.514   8.333  20.292  0.00  0.00    +0.000 A 
ATOM     26  C   UNL     1       1.272   9.371  19.373  0.00  0.00    +0.000 A 
ATOM     27  C   UNL     1       0.756  10.619  19.772  0.00  0.00    +0.000 A 
ATOM     28  C   UNL     1       0.517  11.680  18.733  0.00  0.00    +0.000 C 
ENDBRANCH   1  25
TORSDOF 2
ENDMDL
MODEL 4
REMARK VINA RESULT:      -9.2      1.952      7.550
REMARK  Name = 
REMARK  4 active torsions:
REMARK  status: ('A' for Active; 'I' for Inactive)
REMARK    1  A    between atoms: C_1  and  C_2
REMARK    2  A    between atoms: C_5  and  C_6
REMARK    3  A    between atoms: C_8  and  C_9
REMARK    4  A    between atoms: C_25  and  C_26
REMARK                            x       y       z     vdW  Elec       q    Type
REMARK                         _______ _______ _______ _____ _____    ______ ____
ROOT
ATOM      1  C   UNL     1       4.481   5.024  17.612  0.00  0.00    +0.000 A 
ATOM      2  C   UNL     1       3.790   6.151  18.021  0.00  0.00    +0.000 A 
ATOM      3  C   UNL     1       2.969   6.105  19.163  0.00  0.00    +0.000 A 
ATOM      4  C   UNL     1       2.870   4.885  19.901  0.00  0.00    +0.000 A 
ATOM      5  C   UNL     1       2.080   4.622  21.060  0.00  0.00    +0.000 A 
ATOM      6  C   UNL     1       2.110   3.383  21.717  0.00  0.00    +0.000 A 
ATOM      7  C   UNL     1       2.880   2.355  21.206  0.00  0.00    +0.000 A 
ATOM      8  C   UNL     1       3.615   2.572  20.045  0.00  0.00    +0.000 A 
ATOM      9  C   UNL     1       3.630   3.799  19.395  0.00  0.00    +0.000 A 
ATOM     10  N   UNL     1       4.393   3.866  18.298  0.00  0.00    +0.000 NA
ENDROOT
BRANCH   3  11
ATOM     11  C   UNL     1       2.217   7.391  19.403  0.00  0.00    +0.000 C 
ATOM     12  O   UNL     1       2.101   8.126  18.437  0.00  0.00    +0.000 OA
ATOM     13  N   UNL     1       1.775   7.665  20.691  0.00  0.00    +0.000 N 
ATOM     14  C   UNL     1       1.108   8.837  21.006  0.00  0.00    +0.000 A 
ATOM     15  C   UNL     1       0.617   9.231  22.275  0.00  0.00    +0.000 A 
ATOM     16  C   UNL     1       0.017  10.457  22.057  0.00  0.00    +0.000 A 
ATOM     17  N   UNL     1       0.174  10.720  20.736  0.00  0.00    +0.000 N 
ATOM     18  N   UNL     1       0.854   9.774  20.097  0.00  0.00    +0.000 NA
ATOM     19  H   UNL     1       2.018   7.089  21.470  0.00  0.00    +0.000 HD
ATOM     20  H   UNL     1      -0.144  11.508  20.190  0.00  0.00    +0.000 HD
ENDBRANCH   3  11
BRANCH   1  25
ATOM     21  C   UNL     1       7.908   4.992  12.902  0.00  0.00    +0.000 C 
ATOM     22  C   UNL     1       7.011   4.977  14.110  0.00  0.00    +0.000 A 
ATOM     23  C   UNL     1       7.386   5.688  15.259  0.00  0.00    +0.000 A 
ATOM     24  C   UNL     1       6.567   5.705  16.390  0.00  0.00    +0.000 A 
ATOM     25  C   UNL     1       5.348   5.011  16.418  0.00  0.00    +0.000 A 
ATOM     26  C   UNL     1       4.983   4.298  15.261  0.00  0.00    +0.000 A 
ATOM     27  C   UNL     1       5.795   4.271  14.111  0.00  0.00    +0.000 A 
ATOM     28  C   UNL     1       5.339   3.491  12.908  0.00  0.00    +0.000 C 
ENDBRANCH   1  25
TORSDOF 2
ENDMDL
MODEL 5
REMARK VINA RESULT:      -8.8      1.248      1.549
REMARK  Name = 
REMARK  4 active torsions:
REMARK  status: ('A' for Active; 'I' for Inactive)
REMARK    1  A    between atoms: C_1  and  C_2
REMARK    2  A    between atoms: C_5  and  C_6
REMARK    3  A    between atoms: C_8  and  C_9
REMARK    4  A    between atoms: C_25  and  C_26
REMARK                            x       y       z     vdW  Elec       q    Type
REMARK                         _______ _______ _______ _____ _____    ______ ____
ROOT
ATOM      1  C   UNL     1       2.308   8.104  18.731  0.00  0.00    +0.000 A 
ATOM      2  C   UNL     1       3.316   7.708  17.870  0.00  0.00    +0.000 A 
ATOM      3  C   UNL     1       3.858   6.412  17.960  0.00  0.00    +0.000 A 
ATOM      4  C   UNL     1       3.343   5.509  18.941  0.00  0.00    +0.000 A 
ATOM      5  C   UNL     1       3.768   4.173  19.213  0.00  0.00    +0.000 A 
ATOM      6  C   UNL     1       3.142   3.376  20.181  0.00  0.00    +0.000 A 
ATOM      7  C   UNL     1       2.118   3.902  20.946  0.00  0.00    +0.000 A 
ATOM      8  C   UNL     1       1.725   5.220  20.737  0.00  0.00    +0.000 A 
ATOM      9  C   UNL     1       2.304   6.020  19.760  0.00  0.00    +0.000 A 
ATOM     10  N   UNL     1       1.816   7.262  19.662  0.00  0.00    +0.000 NA
ENDROOT
BRANCH   3  11
ATOM     11  C   UNL     1       5.012   6.186  17.015  0.00  0.00    +0.000 C 
ATOM     12  O   UNL     1       5.990   6.894  17.192  0.00  0.00    +0.000 OA
ATOM     13  N   UNL     1       4.858   5.253  15.998  0.00  0.00    +0.000 N 
ATOM     14  C   UNL     1       5.853   5.009  15.066  0.00  0.00    +0.000 A 
ATOM     15  C   UNL     1       5.812   4.094  13.986  0.00  0.00    +0.000 A 
ATOM     16  C   UNL     1       7.047   4.209  13.377  0.00  0.00    +0.000 A 
ATOM     17  N   UNL     1       7.728   5.143  14.087  0.00  0.00    +0.000 N 
ATOM     18  N   UNL     1       7.015   5.655  15.084  0.00  0.00    +0.000 NA
ATOM     19  H   UNL     1       3.985   4.801  15.819  0.00  0.00    +0.000 HD
ATOM     20  H   UNL     1       8.669   5.489  13.968  0.00  0.00    +0.000 HD
ENDBRANCH   3  11
BRANCH   1  25
ATOM     21  C   UNL     1      -0.036  13.434  18.567  0.00  0.00    +0.000 C 
ATOM     22  C   UNL     1       0.544  12.047  18.612  0.00  0.00    +0.000 A 
ATOM     23  C   UNL     1       1.816  11.811  18.069  0.00  0.00    +0.000 A 
ATOM     24  C   UNL     1       2.386  10.537  18.110  0.00  0.00    +0.000 A 
ATOM     25  C   UNL     1       1.710   9.453  18.689  0.00  0.00    +0.000 A 
ATOM     26  C   UNL     1       0.433   9.700  19.226  0.00  0.00    +0.000 A 
ATOM     27  C   UNL     1      -0.158  10.977  19.196  0.00  0.00    +0.000 A 
ATOM     28  C   UNL     1      -1.524  11.169  19.795  0.00  0.00    +0.000 C 
ENDBRANCH   1  25
TORSDOF 2
ENDMDL
MODEL 6
REMARK VINA RESULT:      -8.6      2.389      7.273
REMARK  Name = 
REMARK  4 active torsions:
REMARK  status: ('A' for Active; 'I' for Inactive)
REMARK    1  A    between atoms: C_1  and  C_2
REMARK    2  A    between atoms: C_5  and  C_6
REMARK    3  A    between atoms: C_8  and  C_9
REMARK    4  A    between atoms: C_25  and  C_26
REMARK                            x       y       z     vdW  Elec       q    Type
REMARK                         _______ _______ _______ _____ _____    ______ ____
ROOT
ATOM      1  C   UNL     1       4.148   4.904  17.425  0.00  0.00    +0.000 A 
ATOM      2  C   UNL     1       3.627   6.042  18.013  0.00  0.00    +0.000 A 
ATOM      3  C   UNL     1       2.684   5.935  19.054  0.00  0.00    +0.000 A 
ATOM      4  C   UNL     1       2.287   4.637  19.502  0.00  0.00    +0.000 A 
ATOM      5  C   UNL     1       1.335   4.312  20.515  0.00  0.00    +0.000 A 
ATOM      6  C   UNL     1       1.070   2.988  20.891  0.00  0.00    +0.000 A 
ATOM      7  C   UNL     1       1.698   1.949  20.231  0.00  0.00    +0.000 A 
ATOM      8  C   UNL     1       2.588   2.241  19.201  0.00  0.00    +0.000 A 
ATOM      9  C   UNL     1       2.896   3.544  18.834  0.00  0.00    +0.000 A 
ATOM     10  N   UNL     1       3.779   3.674  17.838  0.00  0.00    +0.000 NA
ENDROOT
BRANCH   3  11
ATOM     11  C   UNL     1       2.150   7.271  19.507  0.00  0.00    +0.000 C 
ATOM     12  O   UNL     1       1.813   7.337  20.678  0.00  0.00    +0.000 OA
ATOM     13  N   UNL     1       2.027   8.285  18.568  0.00  0.00    +0.000 N 
ATOM     14  C   UNL     1       1.514   9.530  18.892  0.00  0.00    +0.000 A 
ATOM     15  C   UNL     1       1.333  10.636  18.025  0.00  0.00    +0.000 A 
ATOM     16  C   UNL     1       0.817  11.635  18.829  0.00  0.00    +0.000 A 
ATOM     17  N   UNL     1       0.719  11.101  20.072  0.00  0.00    +0.000 N 
ATOM     18  N   UNL     1       1.102   9.830  20.120  0.00  0.00    +0.000 NA
ATOM     19  H   UNL     1       2.191   8.131  17.594  0.00  0.00    +0.000 HD
ATOM     20  H   UNL     1       0.406  11.521  20.935  0.00  0.00    +0.000 HD
ENDBRANCH   3  11
BRANCH   1  25
ATOM     21  C   UNL     1       8.029   5.126  13.087  0.00  0.00    +0.000 C 
ATOM     22  C   UNL     1       7.018   5.045  14.197  0.00  0.00    +0.000 A 
ATOM     23  C   UNL     1       7.225   5.775  15.377  0.00  0.00    +0.000 A 
ATOM     24  C   UNL     1       6.296   5.731  16.418  0.00  0.00    +0.000 A 
ATOM     25  C   UNL     1       5.131   4.955  16.325  0.00  0.00    +0.000 A 
ATOM     26  C   UNL     1       4.935   4.224  15.139  0.00  0.00    +0.000 A 
ATOM     27  C   UNL     1       5.859   4.257  14.077  0.00  0.00    +0.000 A 
ATOM     28  C   UNL     1       5.581   3.454  12.836  0.00  0.00    +0.000 C 
ENDBRANCH   1  25
TORSDOF 2
ENDMDL
MODEL 7
REMARK VINA RESULT:      -8.3      3.782      7.737
REMARK  Name = 
REMARK  4 active torsions:
REMARK  status: ('A' for Active; 'I' for Inactive)
REMARK    1  A    between atoms: C_1  and  C_2
REMARK    2  A    between atoms: C_5  and  C_6
REMARK    3  A    between atoms: C_8  and  C_9
REMARK    4  A    between atoms: C_25  and  C_26
REMARK                            x       y       z     vdW  Elec       q    Type
REMARK                         _______ _______ _______ _____ _____    ______ ____
ROOT
ATOM      1  C   UNL     1       1.932   8.087  19.252  0.00  0.00    +0.000 A 
ATOM      2  C   UNL     1       1.058   8.868  18.518  0.00  0.00    +0.000 A 
ATOM      3  C   UNL     1       0.118   9.687  19.172  0.00  0.00    +0.000 A 
ATOM      4  C   UNL     1       0.090   9.710  20.601  0.00  0.00    +0.000 A 
ATOM      5  C   UNL     1      -0.793  10.444  21.450  0.00  0.00    +0.000 A 
ATOM      6  C   UNL     1      -0.683  10.410  22.847  0.00  0.00    +0.000 A 
ATOM      7  C   UNL     1       0.269   9.602  23.440  0.00  0.00    +0.000 A 
ATOM      8  C   UNL     1       1.104   8.835  22.634  0.00  0.00    +0.000 A 
ATOM      9  C   UNL     1       1.039   8.877  21.247  0.00  0.00    +0.000 A 
ATOM     10  N   UNL     1       1.913   8.098  20.601  0.00  0.00    +0.000 NA
ENDROOT
BRANCH   3  11
ATOM     11  C   UNL     1      -0.817  10.392  18.220  0.00  0.00    +0.000 C 
ATOM     12  O   UNL     1      -0.984  11.583  18.426  0.00  0.00    +0.000 OA
ATOM     13  N   UNL     1      -1.449   9.639  17.240  0.00  0.00    +0.000 N 
ATOM     14  C   UNL     1      -2.349  10.199  16.348  0.00  0.00    +0.000 A 
ATOM     15  C   UNL     1      -3.059   9.539  15.316  0.00  0.00    +0.000 A 
ATOM     16  C   UNL     1      -3.799  10.532  14.703  0.00  0.00    +0.000 A 
ATOM     17  N   UNL     1      -3.508  11.678  15.368  0.00  0.00    +0.000 N 
ATOM     18  N   UNL     1      -2.666  11.491  16.378  0.00  0.00    +0.000 NA
ATOM     19  H   UNL     1      -1.378   8.643  17.206  0.00  0.00    +0.000 HD
ATOM     20  H   UNL     1      -3.833  12.621  15.207  0.00  0.00    +0.000 HD
ENDBRANCH   3  11
BRANCH   1  25
ATOM     21  C   UNL     1       5.868   4.603  16.742  0.00  0.00    +0.000 C 
ATOM     22  C   UNL     1       4.856   5.489  17.414  0.00  0.00    +0.000 A 
ATOM     23  C   UNL     1       4.559   6.744  16.861  0.00  0.00    +0.000 A 
ATOM     24  C   UNL     1       3.613   7.581  17.454  0.00  0.00    +0.000 A 
ATOM     25  C   UNL     1       2.931   7.202  18.621  0.00  0.00    +0.000 A 
ATOM     26  C   UNL     1       3.240   5.944  19.169  0.00  0.00    +0.000 A 
ATOM     27  C   UNL     1       4.189   5.085  18.584  0.00  0.00    +0.000 A 
ATOM     28  C   UNL     1       4.464   3.751  19.223  0.00  0.00    +0.000 C 
ENDBRANCH   1  25
TORSDOF 2
ENDMDL
MODEL 8
REMARK VINA RESULT:      -8.3      1.388      1.491
REMARK  Name = 
REMARK  4 active torsions:
REMARK  status: ('A' for Active; 'I' for Inactive)
REMARK    1  A    between atoms: C_1  and  C_2
REMARK    2  A    between atoms: C_5  and  C_6
REMARK    3  A    between atoms: C_8  and  C_9
REMARK    4  A    between atoms: C_25  and  C_26
REMARK                            x       y       z     vdW  Elec       q    Type
REMARK                         _______ _______ _______ _____ _____    ______ ____
ROOT
ATOM      1  C   UNL     1       2.312   6.852  19.108  0.00  0.00    +0.000 A 
ATOM      2  C   UNL     1       2.930   6.241  18.031  0.00  0.00    +0.000 A 
ATOM      3  C   UNL     1       3.314   4.889  18.106  0.00  0.00    +0.000 A 
ATOM      4  C   UNL     1       3.045   4.154  19.302  0.00  0.00    +0.000 A 
ATOM      5  C   UNL     1       3.374   2.795  19.590  0.00  0.00    +0.000 A 
ATOM      6  C   UNL     1       3.010   2.180  20.796  0.00  0.00    +0.000 A 
ATOM      7  C   UNL     1       2.362   2.914  21.771  0.00  0.00    +0.000 A 
ATOM      8  C   UNL     1       2.081   4.256  21.535  0.00  0.00    +0.000 A 
ATOM      9  C   UNL     1       2.399   4.880  20.335  0.00  0.00    +0.000 A 
ATOM     10  N   UNL     1       2.057   6.169  20.243  0.00  0.00    +0.000 NA
ENDROOT
BRANCH   3  11
ATOM     11  C   UNL     1       4.060   4.417  16.882  0.00  0.00    +0.000 C 
ATOM     12  O   UNL     1       3.701   3.346  16.423  0.00  0.00    +0.000 OA
ATOM     13  N   UNL     1       5.115   5.189  16.415  0.00  0.00    +0.000 N 
ATOM     14  C   UNL     1       5.875   4.812  15.320  0.00  0.00    +0.000 A 
ATOM     15  C   UNL     1       6.973   5.506  14.757  0.00  0.00    +0.000 A 
ATOM     16  C   UNL     1       7.364   4.735  13.678  0.00  0.00    +0.000 A 
ATOM     17  N   UNL     1       6.522   3.672  13.655  0.00  0.00    +0.000 N 
ATOM     18  N   UNL     1       5.644   3.686  14.651  0.00  0.00    +0.000 NA
ATOM     19  H   UNL     1       5.451   5.988  16.913  0.00  0.00    +0.000 HD
ATOM     20  H   UNL     1       6.473   2.899  13.007  0.00  0.00    +0.000 HD
ENDBRANCH   3  11
BRANCH   1  25
ATOM     21  C   UNL     1       0.689  12.445  19.024  0.00  0.00    +0.000 C 
ATOM     22  C   UNL     1       1.089  10.996  19.064  0.00  0.00    +0.000 A 
ATOM     23  C   UNL     1       1.763  10.433  17.971  0.00  0.00    +0.000 A 
ATOM     24  C   UNL     1       2.160   9.095  17.987  0.00  0.00    +0.000 A 
ATOM     25  C   UNL     1       1.897   8.268  19.089  0.00  0.00    +0.000 A 
ATOM     26  C   UNL     1       1.216   8.842  20.179  0.00  0.00    +0.000 A 
ATOM     27  C   UNL     1       0.810  10.189  20.182  0.00  0.00    +0.000 A 
ATOM     28  C   UNL     1       0.091  10.736  21.385  0.00  0.00    +0.000 C 
ENDBRANCH   1  25
TORSDOF 2
ENDMDL
MODEL 9
REMARK VINA RESULT:      -8.2      7.980      9.241
REMARK  Name = 
REMARK  4 active torsions:
REMARK  status: ('A' for Active; 'I' for Inactive)
REMARK    1  A    between atoms: C_1  and  C_2
REMARK    2  A    between atoms: C_5  and  C_6
REMARK    3  A    between atoms: C_8  and  C_9
REMARK    4  A    between atoms: C_25  and  C_26
REMARK                            x       y       z     vdW  Elec       q    Type
REMARK                         _______ _______ _______ _____ _____    ______ ____
ROOT
ATOM      1  C   UNL     1       9.290  12.311  21.331  0.00  0.00    +0.000 A 
ATOM      2  C   UNL     1       8.856  11.281  20.515  0.00  0.00    +0.000 A 
ATOM      3  C   UNL     1       9.372  11.142  19.213  0.00  0.00    +0.000 A 
ATOM      4  C   UNL     1      10.359  12.068  18.753  0.00  0.00    +0.000 A 
ATOM      5  C   UNL     1      10.986  12.119  17.471  0.00  0.00    +0.000 A 
ATOM      6  C   UNL     1      11.978  13.060  17.163  0.00  0.00    +0.000 A 
ATOM      7  C   UNL     1      12.333  14.012  18.100  0.00  0.00    +0.000 A 
ATOM      8  C   UNL     1      11.696  14.017  19.337  0.00  0.00    +0.000 A 
ATOM      9  C   UNL     1      10.735  13.074  19.679  0.00  0.00    +0.000 A 
ATOM     10  N   UNL     1      10.218  13.192  20.907  0.00  0.00    +0.000 NA
ENDROOT
BRANCH   3  11
ATOM     11  C   UNL     1       8.717  10.030  18.432  0.00  0.00    +0.000 C 
ATOM     12  O   UNL     1       8.166  10.363  17.395  0.00  0.00    +0.000 OA
ATOM     13  N   UNL     1       8.737   8.749  18.966  0.00  0.00    +0.000 N 
ATOM     14  C   UNL     1       8.129   7.678  18.332  0.00  0.00    +0.000 A 
ATOM     15  C   UNL     1       8.075   6.335  18.779  0.00  0.00    +0.000 A 
ATOM     16  C   UNL     1       7.384   5.660  17.789  0.00  0.00    +0.000 A 
ATOM     17  N   UNL     1       7.075   6.590  16.851  0.00  0.00    +0.000 N 
ATOM     18  N   UNL     1       7.486   7.810  17.176  0.00  0.00    +0.000 NA
ATOM     19  H   UNL     1       9.084   8.561  19.884  0.00  0.00    +0.000 HD
ATOM     20  H   UNL     1       6.592   6.485  15.970  0.00  0.00    +0.000 HD
ENDBRANCH   3  11
BRANCH   1  25
ATOM     21  C   UNL     1       7.248  13.089  26.730  0.00  0.00    +0.000 C 
ATOM     22  C   UNL     1       7.793  12.909  25.341  0.00  0.00    +0.000 A 
ATOM     23  C   UNL     1       7.634  11.676  24.689  0.00  0.00    +0.000 A 
ATOM     24  C   UNL     1       8.116  11.485  23.393  0.00  0.00    +0.000 A 
ATOM     25  C   UNL     1       8.776  12.511  22.700  0.00  0.00    +0.000 A 
ATOM     26  C   UNL     1       8.933  13.741  23.365  0.00  0.00    +0.000 A 
ATOM     27  C   UNL     1       8.453  13.954  24.670  0.00  0.00    +0.000 A 
ATOM     28  C   UNL     1       8.652  15.298  25.316  0.00  0.00    +0.000 C 
ENDBRANCH   1  25
TORSDOF 2
ENDMDL
