MODEL 1
REMARK VINA RESULT:      -7.5      0.000      0.000
REMARK  Name = 
REMARK  9 active torsions:
REMARK  status: ('A' for Active; 'I' for Inactive)
REMARK    1  A    between atoms: C_1  and  C_2
REMARK    2  A    between atoms: C_2  and  N_3
REMARK    3  A    between atoms: C_5  and  C_6
REMARK    4  A    between atoms: C_6  and  O_8
REMARK    5  A    between atoms: C_15  and  N_16
REMARK    6  A    between atoms: C_20  and  C_22
REMARK    7  A    between atoms: C_22  and  C_23
REMARK    8  A    between atoms: C_23  and  C_24
REMARK    9  A    between atoms: C_24  and  O_26
REMARK                            x       y       z     vdW  Elec       q    Type
REMARK                         _______ _______ _______ _____ _____    ______ ____
ROOT
ATOM      1  N   UNL     1      -3.106  10.663  17.456  0.00  0.00    +0.000 N 
ATOM      2  C   UNL     1      -4.240  11.430  17.714  0.00  0.00    +0.000 A 
ATOM      3  C   UNL     1      -4.440  12.238  18.766  0.00  0.00    +0.000 A 
ATOM      4  C   UNL     1      -3.340  12.342  19.739  0.00  0.00    +0.000 A 
ATOM      5  O   UNL     1      -3.446  13.089  20.710  0.00  0.00    +0.000 OA
ATOM      6  C   UNL     1      -2.133  11.516  19.524  0.00  0.00    +0.000 A 
ATOM      7  C   UNL     1      -1.131  11.566  20.487  0.00  0.00    +0.000 A 
ATOM      8  C   UNL     1      -0.014  10.766  20.334  0.00  0.00    +0.000 A 
ATOM      9  F   UNL     1       0.940  10.852  21.275  0.00  0.00    +0.000 F 
ATOM     10  C   UNL     1       0.156   9.911  19.228  0.00  0.00    +0.000 A 
ATOM     11  C   UNL     1      -0.856   9.928  18.246  0.00  0.00    +0.000 A 
ATOM     12  C   UNL     1      -2.034  10.694  18.380  0.00  0.00    +0.000 A 
ENDROOT
BRANCH  10  13
ATOM     13  N   UNL     1       1.265   9.095  19.124  0.00  0.00    +0.000 N 
ATOM     14  C   UNL     1       1.789   8.263  20.216  0.00  0.00    +0.000 C 
ATOM     15  C   UNL     1       2.213   6.891  19.645  0.00  0.00    +0.000 C 
ATOM     16  N   UNL     1       3.110   7.029  18.483  0.00  0.00    +0.000 N 
ATOM     17  C   UNL     1       4.253   6.256  18.406  0.00  0.00    +0.000 C 
ATOM     18  O   UNL     1       4.581   5.482  19.306  0.00  0.00    +0.000 OA
ATOM     19  C   UNL     1       2.593   7.919  17.427  0.00  0.00    +0.000 C 
ATOM     20  C   UNL     1       2.201   9.287  18.002  0.00  0.00    +0.000 C 
BRANCH  17  21
ATOM     21  C   UNL     1       5.143   6.443  17.195  0.00  0.00    +0.000 C 
BRANCH  21  22
ATOM     22  C   UNL     1       6.619   6.349  17.563  0.00  0.00    +0.000 C 
BRANCH  22  23
ATOM     23  C   UNL     1       7.157   4.980  17.233  0.00  0.00    +0.000 C 
ATOM     24  O   UNL     1       7.836   4.712  16.254  0.00  0.00    +0.000 OA
BRANCH  23  25
ATOM     25  O   UNL     1       6.800   4.051  18.145  0.00  0.00    +0.000 OA
ATOM     26  H   UNL     1       6.786   3.140  17.792  0.00  0.00    +0.000 HD
ENDBRANCH  23  25
ENDBRANCH  22  23
ENDBRANCH  21  22
ENDBRANCH  17  21
ENDBRANCH  10  13
BRANCH   1  28
ATOM     27  C   UNL     1      -3.094  10.514  14.983  0.00  0.00    +0.000 C 
ATOM     28  C   UNL     1      -3.075   9.748  16.298  0.00  0.00    +0.000 C 
ENDBRANCH   1  28
BRANCH   3  29
ATOM     29  C   UNL     1      -5.725  12.950  18.915  0.00  0.00    +0.000 C 
ATOM     30  O   UNL     1      -6.483  12.776  19.858  0.00  0.00    +0.000 OA
BRANCH  29  31
ATOM     31  O   UNL     1      -5.997  13.830  17.926  0.00  0.00    +0.000 OA
ATOM     32  H   UNL     1      -5.602  13.588  17.051  0.00  0.00    +0.000 HD
ENDBRANCH  29  31
ENDBRANCH   3  29
TORSDOF 8
ENDMDL
MODEL 2
REMARK VINA RESULT:      -7.5      2.284      9.968
REMARK  Name = 
REMARK  9 active torsions:
REMARK  status: ('A' for Active; 'I' for Inactive)
REMARK    1  A    between atoms: C_1  and  C_2
REMARK    2  A    between atoms: C_2  and  N_3
REMARK    3  A    between atoms: C_5  and  C_6
REMARK    4  A    between atoms: C_6  and  O_8
REMARK    5  A    between atoms: C_15  and  N_16
REMARK    6  A    between atoms: C_20  and  C_22
REMARK    7  A    between atoms: C_22  and  C_23
REMARK    8  A    between atoms: C_23  and  C_24
REMARK    9  A    between atoms: C_24  and  O_26
REMARK                            x       y       z     vdW  Elec       q    Type
REMARK                         _______ _______ _______ _____ _____    ______ ____
ROOT
ATOM      1  N   UNL     1       2.891   5.424  19.910  0.00  0.00    +0.000 N 
ATOM      2  C   UNL     1       3.798   4.696  19.144  0.00  0.00    +0.000 A 
ATOM      3  C   UNL     1       4.407   5.102  18.020  0.00  0.00    +0.000 A 
ATOM      4  C   UNL     1       4.101   6.467  17.558  0.00  0.00    +0.000 A 
ATOM      5  O   UNL     1       4.649   6.913  16.551  0.00  0.00    +0.000 OA
ATOM      6  C   UNL     1       3.114   7.261  18.320  0.00  0.00    +0.000 A 
ATOM      7  C   UNL     1       2.778   8.520  17.834  0.00  0.00    +0.000 A 
ATOM      8  C   UNL     1       1.821   9.262  18.502  0.00  0.00    +0.000 A 
ATOM      9  F   UNL     1       1.532  10.478  18.013  0.00  0.00    +0.000 F 
ATOM     10  C   UNL     1       1.183   8.796  19.668  0.00  0.00    +0.000 A 
ATOM     11  C   UNL     1       1.590   7.539  20.161  0.00  0.00    +0.000 A 
ATOM     12  C   UNL     1       2.529   6.726  19.489  0.00  0.00    +0.000 A 
ENDROOT
BRANCH  10  13
ATOM     13  N   UNL     1       0.203   9.545  20.290  0.00  0.00    +0.000 N 
ATOM     14  C   UNL     1      -0.066   9.526  21.734  0.00  0.00    +0.000 C 
ATOM     15  C   UNL     1      -0.342  10.970  22.214  0.00  0.00    +0.000 C 
ATOM     16  N   UNL     1      -1.374  11.635  21.398  0.00  0.00    +0.000 N 
ATOM     17  C   UNL     1      -2.389  12.336  22.019  0.00  0.00    +0.000 C 
ATOM     18  O   UNL     1      -2.497  12.384  23.246  0.00  0.00    +0.000 OA
ATOM     19  C   UNL     1      -1.116  11.587  19.947  0.00  0.00    +0.000 C 
ATOM     20  C   UNL     1      -0.871  10.147  19.478  0.00  0.00    +0.000 C 
BRANCH  17  21
ATOM     21  C   UNL     1      -3.427  12.995  21.134  0.00  0.00    +0.000 C 
BRANCH  21  22
ATOM     22  C   UNL     1      -4.759  13.157  21.855  0.00  0.00    +0.000 C 
BRANCH  22  23
ATOM     23  C   UNL     1      -5.897  12.738  20.960  0.00  0.00    +0.000 C 
ATOM     24  O   UNL     1      -6.364  13.416  20.058  0.00  0.00    +0.000 OA
BRANCH  23  25
ATOM     25  O   UNL     1      -6.370  11.512  21.265  0.00  0.00    +0.000 OA
ATOM     26  H   UNL     1      -5.932  10.789  20.774  0.00  0.00    +0.000 HD
ENDBRANCH  23  25
ENDBRANCH  22  23
ENDBRANCH  21  22
ENDBRANCH  17  21
ENDBRANCH  10  13
BRANCH   1  28
ATOM     27  C   UNL     1       1.221   3.748  20.645  0.00  0.00    +0.000 C 
ATOM     28  C   UNL     1       2.232   4.801  21.076  0.00  0.00    +0.000 C 
ENDBRANCH   1  28
BRANCH   3  29
ATOM     29  C   UNL     1       5.312   4.186  17.299  0.00  0.00    +0.000 C 
ATOM     30  O   UNL     1       5.051   3.708  16.204  0.00  0.00    +0.000 OA
BRANCH  29  31
ATOM     31  O   UNL     1       6.471   3.922  17.941  0.00  0.00    +0.000 OA
ATOM     32  H   UNL     1       6.414   3.172  18.585  0.00  0.00    +0.000 HD
ENDBRANCH  29  31
ENDBRANCH   3  29
TORSDOF 8
ENDMDL
MODEL 3
REMARK VINA RESULT:      -7.4      2.659     10.089
REMARK  Name = 
REMARK  9 active torsions:
REMARK  status: ('A' for Active; 'I' for Inactive)
REMARK    1  A    between atoms: C_1  and  C_2
REMARK    2  A    between atoms: C_2  and  N_3
REMARK    3  A    between atoms: C_5  and  C_6
REMARK    4  A    between atoms: C_6  and  O_8
REMARK    5  A    between atoms: C_15  and  N_16
REMARK    6  A    between atoms: C_20  and  C_22
REMARK    7  A    between atoms: C_22  and  C_23
REMARK    8  A    between atoms: C_23  and  C_24
REMARK    9  A    between atoms: C_24  and  O_26
REMARK                            x       y       z     vdW  Elec       q    Type
REMARK                         _______ _______ _______ _____ _____    ______ ____
ROOT
ATOM      1  N   UNL     1       2.891   5.385  19.896  0.00  0.00    +0.000 N 
ATOM      2  C   UNL     1       3.786   4.686  19.089  0.00  0.00    +0.000 A 
ATOM      3  C   UNL     1       4.363   5.127  17.960  0.00  0.00    +0.000 A 
ATOM      4  C   UNL     1       4.031   6.498  17.540  0.00  0.00    +0.000 A 
ATOM      5  O   UNL     1       4.549   6.975  16.532  0.00  0.00    +0.000 OA
ATOM      6  C   UNL     1       3.056   7.262  18.347  0.00  0.00    +0.000 A 
ATOM      7  C   UNL     1       2.694   8.529  17.901  0.00  0.00    +0.000 A 
ATOM      8  C   UNL     1       1.747   9.244  18.610  0.00  0.00    +0.000 A 
ATOM      9  F   UNL     1       1.433  10.469  18.159  0.00  0.00    +0.000 F 
ATOM     10  C   UNL     1       1.143   8.743  19.780  0.00  0.00    +0.000 A 
ATOM     11  C   UNL     1       1.576   7.479  20.231  0.00  0.00    +0.000 A 
ATOM     12  C   UNL     1       2.506   6.693  19.517  0.00  0.00    +0.000 A 
ENDROOT
BRANCH  10  13
ATOM     13  N   UNL     1       0.172   9.466  20.444  0.00  0.00    +0.000 N 
ATOM     14  C   UNL     1      -0.193   9.268  21.854  0.00  0.00    +0.000 C 
ATOM     15  C   UNL     1      -0.412  10.648  22.516  0.00  0.00    +0.000 C 
ATOM     16  N   UNL     1      -1.346  11.488  21.744  0.00  0.00    +0.000 N 
ATOM     17  C   UNL     1      -2.356  12.166  22.399  0.00  0.00    +0.000 C 
ATOM     18  O   UNL     1      -2.541  12.053  23.612  0.00  0.00    +0.000 OA
ATOM     19  C   UNL     1      -0.996  11.621  20.318  0.00  0.00    +0.000 C 
ATOM     20  C   UNL     1      -0.808  10.245  19.666  0.00  0.00    +0.000 C 
BRANCH  17  21
ATOM     21  C   UNL     1      -3.291  13.010  21.559  0.00  0.00    +0.000 C 
BRANCH  21  22
ATOM     22  C   UNL     1      -4.720  12.957  22.083  0.00  0.00    +0.000 C 
BRANCH  22  23
ATOM     23  C   UNL     1      -5.002  14.146  22.966  0.00  0.00    +0.000 C 
ATOM     24  O   UNL     1      -5.203  15.282  22.566  0.00  0.00    +0.000 OA
BRANCH  23  25
ATOM     25  O   UNL     1      -5.001  13.828  24.277  0.00  0.00    +0.000 OA
ATOM     26  H   UNL     1      -4.117  13.596  24.624  0.00  0.00    +0.000 HD
ENDBRANCH  23  25
ENDBRANCH  22  23
ENDBRANCH  21  22
ENDBRANCH  17  21
ENDBRANCH  10  13
BRANCH   1  28
ATOM     27  C   UNL     1       1.170   3.765  20.635  0.00  0.00    +0.000 C 
ATOM     28  C   UNL     1       2.269   4.726  21.061  0.00  0.00    +0.000 C 
ENDBRANCH   1  28
BRANCH   3  29
ATOM     29  C   UNL     1       5.259   4.238  17.195  0.00  0.00    +0.000 C 
ATOM     30  O   UNL     1       4.949   3.729  16.128  0.00  0.00    +0.000 OA
BRANCH  29  31
ATOM     31  O   UNL     1       6.469   4.038  17.762  0.00  0.00    +0.000 OA
ATOM     32  H   UNL     1       6.844   3.135  17.605  0.00  0.00    +0.000 HD
ENDBRANCH  29  31
ENDBRANCH   3  29
TORSDOF 8
ENDMDL
MODEL 4
REMARK VINA RESULT:      -7.4      2.439      9.882
REMARK  Name = 
REMARK  9 active torsions:
REMARK  status: ('A' for Active; 'I' for Inactive)
REMARK    1  A    between atoms: C_1  and  C_2
REMARK    2  A    between atoms: C_2  and  N_3
REMARK    3  A    between atoms: C_5  and  C_6
REMARK    4  A    between atoms: C_6  and  O_8
REMARK    5  A    between atoms: C_15  and  N_16
REMARK    6  A    between atoms: C_20  and  C_22
REMARK    7  A    between atoms: C_22  and  C_23
REMARK    8  A    between atoms: C_23  and  C_24
REMARK    9  A    between atoms: C_24  and  O_26
REMARK                            x       y       z     vdW  Elec       q    Type
REMARK                         _______ _______ _______ _____ _____    ______ ____
ROOT
ATOM      1  N   UNL     1       2.643   5.406  19.913  0.00  0.00    +0.000 N 
ATOM      2  C   UNL     1       3.423   4.494  19.206  0.00  0.00    +0.000 A 
ATOM      3  C   UNL     1       4.064   4.714  18.048  0.00  0.00    +0.000 A 
ATOM      4  C   UNL     1       3.950   6.065  17.475  0.00  0.00    +0.000 A 
ATOM      5  O   UNL     1       4.538   6.344  16.432  0.00  0.00    +0.000 OA
ATOM      6  C   UNL     1       3.100   7.054  18.174  0.00  0.00    +0.000 A 
ATOM      7  C   UNL     1       2.940   8.304  17.586  0.00  0.00    +0.000 A 
ATOM      8  C   UNL     1       2.112   9.229  18.194  0.00  0.00    +0.000 A 
ATOM      9  F   UNL     1       1.992  10.430  17.606  0.00  0.00    +0.000 F 
ATOM     10  C   UNL     1       1.434   8.958  19.399  0.00  0.00    +0.000 A 
ATOM     11  C   UNL     1       1.665   7.700  19.992  0.00  0.00    +0.000 A 
ATOM     12  C   UNL     1       2.465   6.708  19.387  0.00  0.00    +0.000 A 
ENDROOT
BRANCH  10  13
ATOM     13  N   UNL     1       0.583   9.889  19.960  0.00  0.00    +0.000 N 
ATOM     14  C   UNL     1       0.784  10.511  21.276  0.00  0.00    +0.000 C 
ATOM     15  C   UNL     1       0.428  12.012  21.184  0.00  0.00    +0.000 C 
ATOM     16  N   UNL     1      -0.905  12.228  20.591  0.00  0.00    +0.000 N 
ATOM     17  C   UNL     1      -1.781  13.116  21.185  0.00  0.00    +0.000 C 
ATOM     18  O   UNL     1      -1.508  13.703  22.233  0.00  0.00    +0.000 OA
ATOM     19  C   UNL     1      -1.107  11.544  19.301  0.00  0.00    +0.000 C 
ATOM     20  C   UNL     1      -0.776  10.049  19.413  0.00  0.00    +0.000 C 
BRANCH  17  21
ATOM     21  C   UNL     1      -3.139  13.296  20.539  0.00  0.00    +0.000 C 
BRANCH  21  22
ATOM     22  C   UNL     1      -4.161  13.849  21.525  0.00  0.00    +0.000 C 
BRANCH  22  23
ATOM     23  C   UNL     1      -4.855  12.725  22.251  0.00  0.00    +0.000 C 
ATOM     24  O   UNL     1      -5.921  12.230  21.919  0.00  0.00    +0.000 OA
BRANCH  23  25
ATOM     25  O   UNL     1      -4.171  12.313  23.338  0.00  0.00    +0.000 OA
ATOM     26  H   UNL     1      -4.151  12.970  24.062  0.00  0.00    +0.000 HD
ENDBRANCH  23  25
ENDBRANCH  22  23
ENDBRANCH  21  22
ENDBRANCH  17  21
ENDBRANCH  10  13
BRANCH   1  28
ATOM     27  C   UNL     1       2.039   3.481  21.350  0.00  0.00    +0.000 C 
ATOM     28  C   UNL     1       1.923   4.982  21.130  0.00  0.00    +0.000 C 
ENDBRANCH   1  28
BRANCH   3  29
ATOM     29  C   UNL     1       4.816   3.620  17.402  0.00  0.00    +0.000 C 
ATOM     30  O   UNL     1       4.336   2.519  17.174  0.00  0.00    +0.000 OA
BRANCH  29  31
ATOM     31  O   UNL     1       6.086   3.934  17.065  0.00  0.00    +0.000 OA
ATOM     32  H   UNL     1       6.693   3.154  17.004  0.00  0.00    +0.000 HD
ENDBRANCH  29  31
ENDBRANCH   3  29
TORSDOF 8
ENDMDL
MODEL 5
REMARK VINA RESULT:      -7.3      0.849      1.001
REMARK  Name = 
REMARK  9 active torsions:
REMARK  status: ('A' for Active; 'I' for Inactive)
REMARK    1  A    between atoms: C_1  and  C_2
REMARK    2  A    between atoms: C_2  and  N_3
REMARK    3  A    between atoms: C_5  and  C_6
REMARK    4  A    between atoms: C_6  and  O_8
REMARK    5  A    between atoms: C_15  and  N_16
REMARK    6  A    between atoms: C_20  and  C_22
REMARK    7  A    between atoms: C_22  and  C_23
REMARK    8  A    between atoms: C_23  and  C_24
REMARK    9  A    between atoms: C_24  and  O_26
REMARK                            x       y       z     vdW  Elec       q    Type
REMARK                         _______ _______ _______ _____ _____    ______ ____
ROOT
ATOM      1  N   UNL     1      -2.865  10.554  17.079  0.00  0.00    +0.000 N 
ATOM      2  C   UNL     1      -4.018  11.308  17.289  0.00  0.00    +0.000 A 
ATOM      3  C   UNL     1      -4.294  12.073  18.356  0.00  0.00    +0.000 A 
ATOM      4  C   UNL     1      -3.264  12.139  19.406  0.00  0.00    +0.000 A 
ATOM      5  O   UNL     1      -3.440  12.846  20.397  0.00  0.00    +0.000 OA
ATOM      6  C   UNL     1      -2.041  11.324  19.242  0.00  0.00    +0.000 A 
ATOM      7  C   UNL     1      -1.108  11.337  20.274  0.00  0.00    +0.000 A 
ATOM      8  C   UNL     1       0.020  10.546  20.166  0.00  0.00    +0.000 A 
ATOM      9  F   UNL     1       0.906  10.594  21.174  0.00  0.00    +0.000 F 
ATOM     10  C   UNL     1       0.269   9.736  19.041  0.00  0.00    +0.000 A 
ATOM     11  C   UNL     1      -0.672   9.791  17.993  0.00  0.00    +0.000 A 
ATOM     12  C   UNL     1      -1.860  10.549  18.076  0.00  0.00    +0.000 A 
ENDROOT
BRANCH  10  13
ATOM     13  N   UNL     1       1.387   8.926  18.981  0.00  0.00    +0.000 N 
ATOM     14  C   UNL     1       1.872   8.098  20.094  0.00  0.00    +0.000 C 
ATOM     15  C   UNL     1       2.327   6.728  19.541  0.00  0.00    +0.000 C 
ATOM     16  N   UNL     1       3.269   6.872  18.416  0.00  0.00    +0.000 N 
ATOM     17  C   UNL     1       4.417   6.105  18.384  0.00  0.00    +0.000 C 
ATOM     18  O   UNL     1       4.715   5.333  19.297  0.00  0.00    +0.000 OA
ATOM     19  C   UNL     1       2.788   7.758  17.339  0.00  0.00    +0.000 C 
ATOM     20  C   UNL     1       2.366   9.123  17.897  0.00  0.00    +0.000 C 
BRANCH  17  21
ATOM     21  C   UNL     1       5.354   6.297  17.209  0.00  0.00    +0.000 C 
BRANCH  21  22
ATOM     22  C   UNL     1       5.174   5.203  16.163  0.00  0.00    +0.000 C 
BRANCH  22  23
ATOM     23  C   UNL     1       6.487   4.903  15.485  0.00  0.00    +0.000 C 
ATOM     24  O   UNL     1       7.470   5.627  15.510  0.00  0.00    +0.000 OA
BRANCH  23  25
ATOM     25  O   UNL     1       6.468   3.728  14.821  0.00  0.00    +0.000 OA
ATOM     26  H   UNL     1       7.093   3.066  15.176  0.00  0.00    +0.000 HD
ENDBRANCH  23  25
ENDBRANCH  22  23
ENDBRANCH  21  22
ENDBRANCH  17  21
ENDBRANCH  10  13
BRANCH   1  28
ATOM     27  C   UNL     1      -3.486  10.278  14.697  0.00  0.00    +0.000 C 
ATOM     28  C   UNL     1      -2.749   9.687  15.890  0.00  0.00    +0.000 C 
ENDBRANCH   1  28
BRANCH   3  29
ATOM     29  C   UNL     1      -5.589  12.776  18.444  0.00  0.00    +0.000 C 
ATOM     30  O   UNL     1      -6.628  12.328  17.983  0.00  0.00    +0.000 OA
BRANCH  29  31
ATOM     31  O   UNL     1      -5.541  13.961  19.091  0.00  0.00    +0.000 OA
ATOM     32  H   UNL     1      -4.962  14.637  18.656  0.00  0.00    +0.000 HD
ENDBRANCH  29  31
ENDBRANCH   3  29
TORSDOF 8
ENDMDL
MODEL 6
REMARK VINA RESULT:      -7.3      2.527      9.901
REMARK  Name = 
REMARK  9 active torsions:
REMARK  status: ('A' for Active; 'I' for Inactive)
REMARK    1  A    between atoms: C_1  and  C_2
REMARK    2  A    between atoms: C_2  and  N_3
REMARK    3  A    between atoms: C_5  and  C_6
REMARK    4  A    between atoms: C_6  and  O_8
REMARK    5  A    between atoms: C_15  and  N_16
REMARK    6  A    between atoms: C_20  and  C_22
REMARK    7  A    between atoms: C_22  and  C_23
REMARK    8  A    between atoms: C_23  and  C_24
REMARK    9  A    between atoms: C_24  and  O_26
REMARK                            x       y       z     vdW  Elec       q    Type
REMARK                         _______ _______ _______ _____ _____    ______ ____
ROOT
ATOM      1  N   UNL     1       2.446   5.575  19.766  0.00  0.00    +0.000 N 
ATOM      2  C   UNL     1       3.227   4.624  19.114  0.00  0.00    +0.000 A 
ATOM      3  C   UNL     1       3.977   4.815  18.018  0.00  0.00    +0.000 A 
ATOM      4  C   UNL     1       3.992   6.175  17.456  0.00  0.00    +0.000 A 
ATOM      5  O   UNL     1       4.683   6.426  16.470  0.00  0.00    +0.000 OA
ATOM      6  C   UNL     1       3.147   7.207  18.094  0.00  0.00    +0.000 A 
ATOM      7  C   UNL     1       3.112   8.470  17.511  0.00  0.00    +0.000 A 
ATOM      8  C   UNL     1       2.291   9.438  18.060  0.00  0.00    +0.000 A 
ATOM      9  F   UNL     1       2.293  10.649  17.480  0.00  0.00    +0.000 F 
ATOM     10  C   UNL     1       1.498   9.198  19.199  0.00  0.00    +0.000 A 
ATOM     11  C   UNL     1       1.602   7.924  19.793  0.00  0.00    +0.000 A 
ATOM     12  C   UNL     1       2.391   6.890  19.244  0.00  0.00    +0.000 A 
ENDROOT
BRANCH  10  13
ATOM     13  N   UNL     1       0.659  10.174  19.699  0.00  0.00    +0.000 N 
ATOM     14  C   UNL     1      -0.138  11.089  18.869  0.00  0.00    +0.000 C 
ATOM     15  C   UNL     1      -1.539  11.250  19.502  0.00  0.00    +0.000 C 
ATOM     16  N   UNL     1      -1.463  11.612  20.929  0.00  0.00    +0.000 N 
ATOM     17  C   UNL     1      -2.259  12.629  21.420  0.00  0.00    +0.000 C 
ATOM     18  O   UNL     1      -3.002  13.288  20.691  0.00  0.00    +0.000 OA
ATOM     19  C   UNL     1      -0.607  10.718  21.731  0.00  0.00    +0.000 C 
ATOM     20  C   UNL     1       0.789  10.588  21.108  0.00  0.00    +0.000 C 
BRANCH  17  21
ATOM     21  C   UNL     1      -2.136  12.965  22.891  0.00  0.00    +0.000 C 
BRANCH  21  22
ATOM     22  C   UNL     1      -2.979  12.033  23.753  0.00  0.00    +0.000 C 
BRANCH  22  23
ATOM     23  C   UNL     1      -4.260  12.713  24.165  0.00  0.00    +0.000 C 
ATOM     24  O   UNL     1      -4.526  13.888  23.963  0.00  0.00    +0.000 OA
BRANCH  23  25
ATOM     25  O   UNL     1      -5.105  11.878  24.806  0.00  0.00    +0.000 OA
ATOM     26  H   UNL     1      -5.532  11.224  24.218  0.00  0.00    +0.000 HD
ENDBRANCH  23  25
ENDBRANCH  22  23
ENDBRANCH  21  22
ENDBRANCH  17  21
ENDBRANCH  10  13
BRANCH   1  28
ATOM     27  C   UNL     1       1.244   3.707  20.862  0.00  0.00    +0.000 C 
ATOM     28  C   UNL     1       1.600   5.186  20.912  0.00  0.00    +0.000 C 
ENDBRANCH   1  28
BRANCH   3  29
ATOM     29  C   UNL     1       4.714   3.683  17.423  0.00  0.00    +0.000 C 
ATOM     30  O   UNL     1       4.205   2.595  17.195  0.00  0.00    +0.000 OA
BRANCH  29  31
ATOM     31  O   UNL     1       6.007   3.946  17.134  0.00  0.00    +0.000 OA
ATOM     32  H   UNL     1       6.295   3.625  16.242  0.00  0.00    +0.000 HD
ENDBRANCH  29  31
ENDBRANCH   3  29
TORSDOF 8
ENDMDL
MODEL 7
REMARK VINA RESULT:      -7.1      3.042      9.688
REMARK  Name = 
REMARK  9 active torsions:
REMARK  status: ('A' for Active; 'I' for Inactive)
REMARK    1  A    between atoms: C_1  and  C_2
REMARK    2  A    between atoms: C_2  and  N_3
REMARK    3  A    between atoms: C_5  and  C_6
REMARK    4  A    between atoms: C_6  and  O_8
REMARK    5  A    between atoms: C_15  and  N_16
REMARK    6  A    between atoms: C_20  and  C_22
REMARK    7  A    between atoms: C_22  and  C_23
REMARK    8  A    between atoms: C_23  and  C_24
REMARK    9  A    between atoms: C_24  and  O_26
REMARK                            x       y       z     vdW  Elec       q    Type
REMARK                         _______ _______ _______ _____ _____    ______ ____
ROOT
ATOM      1  N   UNL     1       2.934   5.255  19.921  0.00  0.00    +0.000 N 
ATOM      2  C   UNL     1       3.813   4.535  19.115  0.00  0.00    +0.000 A 
ATOM      3  C   UNL     1       4.386   4.956  17.978  0.00  0.00    +0.000 A 
ATOM      4  C   UNL     1       4.072   6.328  17.546  0.00  0.00    +0.000 A 
ATOM      5  O   UNL     1       4.588   6.787  16.529  0.00  0.00    +0.000 OA
ATOM      6  C   UNL     1       3.113   7.114  18.352  0.00  0.00    +0.000 A 
ATOM      7  C   UNL     1       2.766   8.382  17.896  0.00  0.00    +0.000 A 
ATOM      8  C   UNL     1       1.835   9.117  18.605  0.00  0.00    +0.000 A 
ATOM      9  F   UNL     1       1.535  10.342  18.144  0.00  0.00    +0.000 F 
ATOM     10  C   UNL     1       1.233   8.636  19.785  0.00  0.00    +0.000 A 
ATOM     11  C   UNL     1       1.651   7.371  20.245  0.00  0.00    +0.000 A 
ATOM     12  C   UNL     1       2.564   6.565  19.532  0.00  0.00    +0.000 A 
ENDROOT
BRANCH  10  13
ATOM     13  N   UNL     1       0.277   9.380  20.448  0.00  0.00    +0.000 N 
ATOM     14  C   UNL     1      -0.367   8.972  21.705  0.00  0.00    +0.000 C 
ATOM     15  C   UNL     1      -0.493  10.205  22.629  0.00  0.00    +0.000 C 
ATOM     16  N   UNL     1      -1.130  11.345  21.945  0.00  0.00    +0.000 N 
ATOM     17  C   UNL     1      -2.128  12.054  22.584  0.00  0.00    +0.000 C 
ATOM     18  O   UNL     1      -2.549  11.735  23.697  0.00  0.00    +0.000 OA
ATOM     19  C   UNL     1      -0.507  11.697  20.655  0.00  0.00    +0.000 C 
ATOM     20  C   UNL     1      -0.413  10.471  19.737  0.00  0.00    +0.000 C 
BRANCH  17  21
ATOM     21  C   UNL     1      -2.754  13.212  21.834  0.00  0.00    +0.000 C 
BRANCH  21  22
ATOM     22  C   UNL     1      -2.608  14.522  22.599  0.00  0.00    +0.000 C 
BRANCH  22  23
ATOM     23  C   UNL     1      -1.156  14.802  22.892  0.00  0.00    +0.000 C 
ATOM     24  O   UNL     1      -0.651  14.786  24.004  0.00  0.00    +0.000 OA
BRANCH  23  25
ATOM     25  O   UNL     1      -0.451  15.090  21.778  0.00  0.00    +0.000 OA
ATOM     26  H   UNL     1       0.142  14.368  21.491  0.00  0.00    +0.000 HD
ENDBRANCH  23  25
ENDBRANCH  22  23
ENDBRANCH  21  22
ENDBRANCH  17  21
ENDBRANCH  10  13
BRANCH   1  28
ATOM     27  C   UNL     1       1.217   3.642  20.687  0.00  0.00    +0.000 C 
ATOM     28  C   UNL     1       2.311   4.617  21.098  0.00  0.00    +0.000 C 
ENDBRANCH   1  28
BRANCH   3  29
ATOM     29  C   UNL     1       5.264   4.047  17.215  0.00  0.00    +0.000 C 
ATOM     30  O   UNL     1       6.359   4.377  16.783  0.00  0.00    +0.000 OA
BRANCH  29  31
ATOM     31  O   UNL     1       4.767   2.803  17.038  0.00  0.00    +0.000 OA
ATOM     32  H   UNL     1       5.288   2.092  17.488  0.00  0.00    +0.000 HD
ENDBRANCH  29  31
ENDBRANCH   3  29
TORSDOF 8
ENDMDL
MODEL 8
REMARK VINA RESULT:      -7.0      3.626      9.122
REMARK  Name = 
REMARK  9 active torsions:
REMARK  status: ('A' for Active; 'I' for Inactive)
REMARK    1  A    between atoms: C_1  and  C_2
REMARK    2  A    between atoms: C_2  and  N_3
REMARK    3  A    between atoms: C_5  and  C_6
REMARK    4  A    between atoms: C_6  and  O_8
REMARK    5  A    between atoms: C_15  and  N_16
REMARK    6  A    between atoms: C_20  and  C_22
REMARK    7  A    between atoms: C_22  and  C_23
REMARK    8  A    between atoms: C_23  and  C_24
REMARK    9  A    between atoms: C_24  and  O_26
REMARK                            x       y       z     vdW  Elec       q    Type
REMARK                         _______ _______ _______ _____ _____    ______ ____
ROOT
ATOM      1  N   UNL     1       3.755   6.071  18.027  0.00  0.00    +0.000 N 
ATOM      2  C   UNL     1       4.178   4.764  18.254  0.00  0.00    +0.000 A 
ATOM      3  C   UNL     1       3.776   3.949  19.242  0.00  0.00    +0.000 A 
ATOM      4  C   UNL     1       2.768   4.485  20.171  0.00  0.00    +0.000 A 
ATOM      5  O   UNL     1       2.333   3.780  21.081  0.00  0.00    +0.000 OA
ATOM      6  C   UNL     1       2.319   5.882  19.991  0.00  0.00    +0.000 A 
ATOM      7  C   UNL     1       1.422   6.401  20.918  0.00  0.00    +0.000 A 
ATOM      8  C   UNL     1       1.024   7.720  20.799  0.00  0.00    +0.000 A 
ATOM      9  F   UNL     1       0.146   8.183  21.703  0.00  0.00    +0.000 F 
ATOM     10  C   UNL     1       1.483   8.556  19.762  0.00  0.00    +0.000 A 
ATOM     11  C   UNL     1       2.348   7.978  18.811  0.00  0.00    +0.000 A 
ATOM     12  C   UNL     1       2.817   6.651  18.916  0.00  0.00    +0.000 A 
ENDROOT
BRANCH  10  13
ATOM     13  N   UNL     1       1.098   9.880  19.695  0.00  0.00    +0.000 N 
ATOM     14  C   UNL     1       0.038  10.480  20.517  0.00  0.00    +0.000 C 
ATOM     15  C   UNL     1       0.494  11.882  20.982  0.00  0.00    +0.000 C 
ATOM     16  N   UNL     1       0.953  12.715  19.856  0.00  0.00    +0.000 N 
ATOM     17  C   UNL     1       0.522  14.024  19.754  0.00  0.00    +0.000 C 
ATOM     18  O   UNL     1      -0.283  14.512  20.549  0.00  0.00    +0.000 OA
ATOM     19  C   UNL     1       1.971  12.069  19.007  0.00  0.00    +0.000 C 
ATOM     20  C   UNL     1       1.495  10.691  18.529  0.00  0.00    +0.000 C 
BRANCH  17  21
ATOM     21  C   UNL     1       1.018  14.833  18.574  0.00  0.00    +0.000 C 
BRANCH  21  22
ATOM     22  C   UNL     1       2.056  15.865  18.998  0.00  0.00    +0.000 C 
BRANCH  22  23
ATOM     23  C   UNL     1       3.005  16.155  17.863  0.00  0.00    +0.000 C 
ATOM     24  O   UNL     1       3.317  17.272  17.479  0.00  0.00    +0.000 OA
BRANCH  23  25
ATOM     25  O   UNL     1       3.482  15.031  17.289  0.00  0.00    +0.000 OA
ATOM     26  H   UNL     1       3.742  15.147  16.353  0.00  0.00    +0.000 HD
ENDBRANCH  23  25
ENDBRANCH  22  23
ENDBRANCH  21  22
ENDBRANCH  17  21
ENDBRANCH  10  13
BRANCH   1  28
ATOM     27  C   UNL     1       5.164   6.003  15.992  0.00  0.00    +0.000 C 
ATOM     28  C   UNL     1       4.363   6.874  16.948  0.00  0.00    +0.000 C 
ENDBRANCH   1  28
BRANCH   3  29
ATOM     29  C   UNL     1       4.360   2.599  19.368  0.00  0.00    +0.000 C 
ATOM     30  O   UNL     1       5.129   2.282  20.263  0.00  0.00    +0.000 OA
BRANCH  29  31
ATOM     31  O   UNL     1       3.967   1.726  18.415  0.00  0.00    +0.000 OA
ATOM     32  H   UNL     1       3.059   1.356  18.555  0.00  0.00    +0.000 HD
ENDBRANCH  29  31
ENDBRANCH   3  29
TORSDOF 8
ENDMDL
MODEL 9
REMARK VINA RESULT:      -7.0      2.264      9.828
REMARK  Name = 
REMARK  9 active torsions:
REMARK  status: ('A' for Active; 'I' for Inactive)
REMARK    1  A    between atoms: C_1  and  C_2
REMARK    2  A    between atoms: C_2  and  N_3
REMARK    3  A    between atoms: C_5  and  C_6
REMARK    4  A    between atoms: C_6  and  O_8
REMARK    5  A    between atoms: C_15  and  N_16
REMARK    6  A    between atoms: C_20  and  C_22
REMARK    7  A    between atoms: C_22  and  C_23
REMARK    8  A    between atoms: C_23  and  C_24
REMARK    9  A    between atoms: C_24  and  O_26
REMARK                            x       y       z     vdW  Elec       q    Type
REMARK                         _______ _______ _______ _____ _____    ______ ____
ROOT
ATOM      1  N   UNL     1       3.463   5.209  19.275  0.00  0.00    +0.000 N 
ATOM      2  C   UNL     1       4.346   4.548  18.424  0.00  0.00    +0.000 A 
ATOM      3  C   UNL     1       4.897   5.037  17.302  0.00  0.00    +0.000 A 
ATOM      4  C   UNL     1       4.549   6.422  16.943  0.00  0.00    +0.000 A 
ATOM      5  O   UNL     1       5.043   6.942  15.945  0.00  0.00    +0.000 OA
ATOM      6  C   UNL     1       3.585   7.147  17.798  0.00  0.00    +0.000 A 
ATOM      7  C   UNL     1       3.206   8.428  17.410  0.00  0.00    +0.000 A 
ATOM      8  C   UNL     1       2.269   9.107  18.166  0.00  0.00    +0.000 A 
ATOM      9  F   UNL     1       1.939  10.347  17.769  0.00  0.00    +0.000 F 
ATOM     10  C   UNL     1       1.692   8.556  19.326  0.00  0.00    +0.000 A 
ATOM     11  C   UNL     1       2.141   7.278  19.718  0.00  0.00    +0.000 A 
ATOM     12  C   UNL     1       3.062   6.528  18.955  0.00  0.00    +0.000 A 
ENDROOT
BRANCH  10  13
ATOM     13  N   UNL     1       0.729   9.245  20.037  0.00  0.00    +0.000 N 
ATOM     14  C   UNL     1       0.164   8.799  21.318  0.00  0.00    +0.000 C 
ATOM     15  C   UNL     1       0.016  10.019  22.255  0.00  0.00    +0.000 C 
ATOM     16  N   UNL     1      -0.709  11.128  21.608  0.00  0.00    +0.000 N 
ATOM     17  C   UNL     1      -1.714  11.781  22.296  0.00  0.00    +0.000 C 
ATOM     18  O   UNL     1      -2.067  11.434  23.425  0.00  0.00    +0.000 OA
ATOM     19  C   UNL     1      -0.164  11.517  20.295  0.00  0.00    +0.000 C 
ATOM     20  C   UNL     1      -0.048  10.302  19.365  0.00  0.00    +0.000 C 
BRANCH  17  21
ATOM     21  C   UNL     1      -2.432  12.908  21.583  0.00  0.00    +0.000 C 
BRANCH  21  22
ATOM     22  C   UNL     1      -3.941  12.702  21.585  0.00  0.00    +0.000 C 
BRANCH  22  23
ATOM     23  C   UNL     1      -4.463  12.618  20.173  0.00  0.00    +0.000 C 
ATOM     24  O   UNL     1      -5.644  12.568  19.865  0.00  0.00    +0.000 OA
BRANCH  23  25
ATOM     25  O   UNL     1      -3.473  12.591  19.257  0.00  0.00    +0.000 OA
ATOM     26  H   UNL     1      -2.600  12.847  19.615  0.00  0.00    +0.000 HD
ENDBRANCH  23  25
ENDBRANCH  22  23
ENDBRANCH  21  22
ENDBRANCH  17  21
ENDBRANCH  10  13
BRANCH   1  28
ATOM     27  C   UNL     1       3.045   2.993  20.302  0.00  0.00    +0.000 C 
ATOM     28  C   UNL     1       2.868   4.500  20.425  0.00  0.00    +0.000 C 
ENDBRANCH   1  28
BRANCH   3  29
ATOM     29  C   UNL     1       5.784   4.186  16.485  0.00  0.00    +0.000 C 
ATOM     30  O   UNL     1       5.420   3.627  15.461  0.00  0.00    +0.000 OA
BRANCH  29  31
ATOM     31  O   UNL     1       7.047   4.080  16.952  0.00  0.00    +0.000 OA
ATOM     32  H   UNL     1       7.159   4.385  17.887  0.00  0.00    +0.000 HD
ENDBRANCH  29  31
ENDBRANCH   3  29
TORSDOF 8
ENDMDL
