MODEL 1
REMARK VINA RESULT:      -8.6      0.000      0.000
REMARK  Name = 
REMARK  9 active torsions:
REMARK  status: ('A' for Active; 'I' for Inactive)
REMARK    1  A    between atoms: C_1  and  C_2
REMARK    2  A    between atoms: C_2  and  C_3
REMARK    3  A    between atoms: C_10  and  C_11
REMARK    4  A    between atoms: C_11  and  O_12
REMARK    5  A    between atoms: C_11  and  C_13
REMARK    6  A    between atoms: C_15  and  C_16
REMARK    7  A    between atoms: C_17  and  C_18
REMARK    8  A    between atoms: C_28  and  O_29
REMARK    9  A    between atoms: O_29  and  C_30
REMARK                            x       y       z     vdW  Elec       q    Type
REMARK                         _______ _______ _______ _____ _____    ______ ____
ROOT
ATOM      1  C   UNL     1       5.132   6.416  17.015  0.00  0.00    +0.000 A 
ATOM      2  C   UNL     1       6.011   7.157  17.821  0.00  0.00    +0.000 A 
ATOM      3  C   UNL     1       7.330   7.317  17.441  0.00  0.00    +0.000 A 
ATOM      4  N   UNL     1       7.845   6.716  16.356  0.00  0.00    +0.000 NA
ATOM      5  C   UNL     1       7.051   5.912  15.637  0.00  0.00    +0.000 A 
ATOM      6  C   UNL     1       7.644   5.258  14.572  0.00  0.00    +0.000 A 
ATOM      7  C   UNL     1       6.935   4.369  13.762  0.00  0.00    +0.000 A 
ATOM      8  C   UNL     1       5.590   4.126  14.017  0.00  0.00    +0.000 A 
ATOM      9  C   UNL     1       4.961   4.819  15.063  0.00  0.00    +0.000 A 
ATOM     10  C   UNL     1       5.674   5.713  15.904  0.00  0.00    +0.000 A 
ENDROOT
BRANCH   3  11
ATOM     11  C   UNL     1       8.161   8.262  18.191  0.00  0.00    +0.000 C 
ATOM     12  C   UNL     1       8.489   9.493  17.773  0.00  0.00    +0.000 C 
BRANCH  12  13
ATOM     13  C   UNL     1       9.199  10.385  18.686  0.00  0.00    +0.000 A 
ATOM     14  C   UNL     1      10.188  11.247  18.206  0.00  0.00    +0.000 A 
ATOM     15  C   UNL     1      10.916  12.038  19.096  0.00  0.00    +0.000 A 
ATOM     16  C   UNL     1      10.661  11.963  20.467  0.00  0.00    +0.000 A 
ATOM     17  C   UNL     1       9.678  11.101  20.951  0.00  0.00    +0.000 A 
ATOM     18  C   UNL     1       8.949  10.311  20.062  0.00  0.00    +0.000 A 
ENDBRANCH  12  13
ENDBRANCH   3  11
BRANCH   8  19
ATOM     19  O   UNL     1       4.802   3.257  13.314  0.00  0.00    +0.000 OA
ATOM     20  C   UNL     1       5.066   3.143  11.918  0.00  0.00    +0.000 C 
ENDBRANCH   8  19
BRANCH   1  21
ATOM     21  C   UNL     1       3.667   6.515  17.397  0.00  0.00    +0.000 C 
BRANCH  21  29
ATOM     22  C   UNL     1       2.552   2.906  19.756  0.00  0.00    +0.000 C 
ATOM     23  C   UNL     1       1.542   4.014  19.367  0.00  0.00    +0.000 C 
ATOM     24  N   UNL     1       1.988   4.770  18.165  0.00  0.00    +0.000 NA
ATOM     25  C   UNL     1       2.331   3.781  17.111  0.00  0.00    +0.000 C 
ATOM     26  C   UNL     1       3.562   2.944  17.489  0.00  0.00    +0.000 C 
ATOM     27  C   UNL     1       3.869   3.161  18.981  0.00  0.00    +0.000 C 
ATOM     28  C   UNL     1       4.299   4.633  19.129  0.00  0.00    +0.000 C 
ATOM     29  C   UNL     1       3.203   5.572  18.563  0.00  0.00    +0.000 C 
BRANCH  22  31
ATOM     30  C   UNL     1       1.490   2.555  22.055  0.00  0.00    +0.000 C 
ATOM     31  C   UNL     1       2.776   2.786  21.273  0.00  0.00    +0.000 C 
ENDBRANCH  22  31
ENDBRANCH  21  29
BRANCH  21  32
ATOM     32  O   UNL     1       3.314   7.865  17.704  0.00  0.00    +0.000 OA
ATOM     33  H   UNL     1       2.530   8.042  17.146  0.00  0.00    +0.000 HD
ENDBRANCH  21  32
ENDBRANCH   1  21
TORSDOF 7
ENDMDL
MODEL 2
REMARK VINA RESULT:      -8.3      0.451      1.054
REMARK  Name = 
REMARK  9 active torsions:
REMARK  status: ('A' for Active; 'I' for Inactive)
REMARK    1  A    between atoms: C_1  and  C_2
REMARK    2  A    between atoms: C_2  and  C_3
REMARK    3  A    between atoms: C_10  and  C_11
REMARK    4  A    between atoms: C_11  and  O_12
REMARK    5  A    between atoms: C_11  and  C_13
REMARK    6  A    between atoms: C_15  and  C_16
REMARK    7  A    between atoms: C_17  and  C_18
REMARK    8  A    between atoms: C_28  and  O_29
REMARK    9  A    between atoms: O_29  and  C_30
REMARK                            x       y       z     vdW  Elec       q    Type
REMARK                         _______ _______ _______ _____ _____    ______ ____
ROOT
ATOM      1  C   UNL     1       5.147   6.304  17.048  0.00  0.00    +0.000 A 
ATOM      2  C   UNL     1       6.052   7.028  17.840  0.00  0.00    +0.000 A 
ATOM      3  C   UNL     1       7.356   7.201  17.417  0.00  0.00    +0.000 A 
ATOM      4  N   UNL     1       7.833   6.627  16.299  0.00  0.00    +0.000 NA
ATOM      5  C   UNL     1       7.016   5.838  15.590  0.00  0.00    +0.000 A 
ATOM      6  C   UNL     1       7.571   5.213  14.489  0.00  0.00    +0.000 A 
ATOM      7  C   UNL     1       6.835   4.342  13.684  0.00  0.00    +0.000 A 
ATOM      8  C   UNL     1       5.500   4.089  13.981  0.00  0.00    +0.000 A 
ATOM      9  C   UNL     1       4.908   4.755  15.065  0.00  0.00    +0.000 A 
ATOM     10  C   UNL     1       5.649   5.630  15.902  0.00  0.00    +0.000 A 
ENDROOT
BRANCH   3  11
ATOM     11  C   UNL     1       8.212   8.129  18.159  0.00  0.00    +0.000 C 
ATOM     12  C   UNL     1       8.440   9.405  17.813  0.00  0.00    +0.000 C 
BRANCH  12  13
ATOM     13  C   UNL     1       9.194  10.261  18.725  0.00  0.00    +0.000 A 
ATOM     14  C   UNL     1       8.906  10.264  20.092  0.00  0.00    +0.000 A 
ATOM     15  C   UNL     1       9.577  11.143  20.944  0.00  0.00    +0.000 A 
ATOM     16  C   UNL     1      10.530  12.024  20.430  0.00  0.00    +0.000 A 
ATOM     17  C   UNL     1      10.817  12.027  19.066  0.00  0.00    +0.000 A 
ATOM     18  C   UNL     1      10.149  11.148  18.213  0.00  0.00    +0.000 A 
ENDBRANCH  12  13
ENDBRANCH   3  11
BRANCH   8  19
ATOM     19  O   UNL     1       4.690   3.235  13.286  0.00  0.00    +0.000 OA
ATOM     20  C   UNL     1       4.839   3.226  11.868  0.00  0.00    +0.000 C 
ENDBRANCH   8  19
BRANCH   1  21
ATOM     21  C   UNL     1       3.695   6.389  17.485  0.00  0.00    +0.000 C 
BRANCH  21  29
ATOM     22  C   UNL     1       2.190   2.996  19.944  0.00  0.00    +0.000 C 
ATOM     23  C   UNL     1       1.518   4.392  19.917  0.00  0.00    +0.000 C 
ATOM     24  N   UNL     1       1.831   5.131  18.664  0.00  0.00    +0.000 NA
ATOM     25  C   UNL     1       1.535   4.227  17.522  0.00  0.00    +0.000 C 
ATOM     26  C   UNL     1       2.491   3.025  17.480  0.00  0.00    +0.000 C 
ATOM     27  C   UNL     1       3.250   2.950  18.816  0.00  0.00    +0.000 C 
ATOM     28  C   UNL     1       4.150   4.200  18.878  0.00  0.00    +0.000 C 
ATOM     29  C   UNL     1       3.298   5.483  18.702  0.00  0.00    +0.000 C 
BRANCH  22  31
ATOM     30  C   UNL     1       4.057   1.811  21.225  0.00  0.00    +0.000 C 
ATOM     31  C   UNL     1       2.774   2.623  21.317  0.00  0.00    +0.000 C 
ENDBRANCH  22  31
ENDBRANCH  21  29
BRANCH  21  32
ATOM     32  O   UNL     1       3.328   7.743  17.755  0.00  0.00    +0.000 OA
ATOM     33  H   UNL     1       4.172   8.236  17.710  0.00  0.00    +0.000 HD
ENDBRANCH  21  32
ENDBRANCH   1  21
TORSDOF 7
ENDMDL
MODEL 3
REMARK VINA RESULT:      -8.1      6.366      9.480
REMARK  Name = 
REMARK  9 active torsions:
REMARK  status: ('A' for Active; 'I' for Inactive)
REMARK    1  A    between atoms: C_1  and  C_2
REMARK    2  A    between atoms: C_2  and  C_3
REMARK    3  A    between atoms: C_10  and  C_11
REMARK    4  A    between atoms: C_11  and  O_12
REMARK    5  A    between atoms: C_11  and  C_13
REMARK    6  A    between atoms: C_15  and  C_16
REMARK    7  A    between atoms: C_17  and  C_18
REMARK    8  A    between atoms: C_28  and  O_29
REMARK    9  A    between atoms: O_29  and  C_30
REMARK                            x       y       z     vdW  Elec       q    Type
REMARK                         _______ _______ _______ _____ _____    ______ ____
ROOT
ATOM      1  C   UNL     1       0.344  10.207  18.989  0.00  0.00    +0.000 A 
ATOM      2  C   UNL     1       1.198   9.304  18.337  0.00  0.00    +0.000 A 
ATOM      3  C   UNL     1       1.779   8.269  19.045  0.00  0.00    +0.000 A 
ATOM      4  N   UNL     1       1.628   8.129  20.372  0.00  0.00    +0.000 NA
ATOM      5  C   UNL     1       0.910   9.048  21.031  0.00  0.00    +0.000 A 
ATOM      6  C   UNL     1       0.843   8.904  22.404  0.00  0.00    +0.000 A 
ATOM      7  C   UNL     1       0.151   9.810  23.211  0.00  0.00    +0.000 A 
ATOM      8  C   UNL     1      -0.500  10.892  22.630  0.00  0.00    +0.000 A 
ATOM      9  C   UNL     1      -0.483  11.025  21.233  0.00  0.00    +0.000 A 
ATOM     10  C   UNL     1       0.230  10.121  20.403  0.00  0.00    +0.000 A 
ENDROOT
BRANCH   3  11
ATOM     11  C   UNL     1       2.493   7.230  18.298  0.00  0.00    +0.000 C 
ATOM     12  C   UNL     1       3.598   7.434  17.566  0.00  0.00    +0.000 C 
BRANCH  12  13
ATOM     13  C   UNL     1       4.293   6.283  16.997  0.00  0.00    +0.000 A 
ATOM     14  C   UNL     1       5.250   6.459  15.995  0.00  0.00    +0.000 A 
ATOM     15  C   UNL     1       5.852   5.349  15.401  0.00  0.00    +0.000 A 
ATOM     16  C   UNL     1       5.492   4.061  15.803  0.00  0.00    +0.000 A 
ATOM     17  C   UNL     1       4.535   3.880  16.800  0.00  0.00    +0.000 A 
ATOM     18  C   UNL     1       3.933   4.989  17.395  0.00  0.00    +0.000 A 
ENDBRANCH  12  13
ENDBRANCH   3  11
BRANCH   8  19
ATOM     19  O   UNL     1      -1.181  11.859  23.317  0.00  0.00    +0.000 OA
ATOM     20  C   UNL     1      -2.603  11.832  23.214  0.00  0.00    +0.000 C 
ENDBRANCH   8  19
BRANCH   1  21
ATOM     21  C   UNL     1      -0.425  11.143  18.073  0.00  0.00    +0.000 C 
BRANCH  21  29
ATOM     22  C   UNL     1      -4.797  10.540  17.477  0.00  0.00    +0.000 C 
ATOM     23  C   UNL     1      -4.118  11.933  17.452  0.00  0.00    +0.000 C 
ATOM     24  N   UNL     1      -2.672  11.836  17.113  0.00  0.00    +0.000 NA
ATOM     25  C   UNL     1      -2.551  11.013  15.881  0.00  0.00    +0.000 C 
ATOM     26  C   UNL     1      -2.964   9.554  16.125  0.00  0.00    +0.000 C 
ATOM     27  C   UNL     1      -3.684   9.463  17.480  0.00  0.00    +0.000 C 
ATOM     28  C   UNL     1      -2.631   9.787  18.558  0.00  0.00    +0.000 C 
ATOM     29  C   UNL     1      -1.981  11.165  18.275  0.00  0.00    +0.000 C 
BRANCH  22  31
ATOM     30  C   UNL     1      -5.996  11.633  19.452  0.00  0.00    +0.000 C 
ATOM     31  C   UNL     1      -5.791  10.365  18.637  0.00  0.00    +0.000 C 
ENDBRANCH  22  31
ENDBRANCH  21  29
BRANCH  21  32
ATOM     32  O   UNL     1       0.089  12.473  18.164  0.00  0.00    +0.000 OA
ATOM     33  H   UNL     1       0.433  12.660  17.267  0.00  0.00    +0.000 HD
ENDBRANCH  21  32
ENDBRANCH   1  21
TORSDOF 7
ENDMDL
MODEL 4
REMARK VINA RESULT:      -8.1      6.384     10.172
REMARK  Name = 
REMARK  9 active torsions:
REMARK  status: ('A' for Active; 'I' for Inactive)
REMARK    1  A    between atoms: C_1  and  C_2
REMARK    2  A    between atoms: C_2  and  C_3
REMARK    3  A    between atoms: C_10  and  C_11
REMARK    4  A    between atoms: C_11  and  O_12
REMARK    5  A    between atoms: C_11  and  C_13
REMARK    6  A    between atoms: C_15  and  C_16
REMARK    7  A    between atoms: C_17  and  C_18
REMARK    8  A    between atoms: C_28  and  O_29
REMARK    9  A    between atoms: O_29  and  C_30
REMARK                            x       y       z     vdW  Elec       q    Type
REMARK                         _______ _______ _______ _____ _____    ______ ____
ROOT
ATOM      1  C   UNL     1       0.175  10.843  19.255  0.00  0.00    +0.000 A 
ATOM      2  C   UNL     1       1.067  10.080  18.485  0.00  0.00    +0.000 A 
ATOM      3  C   UNL     1       1.593   8.909  18.996  0.00  0.00    +0.000 A 
ATOM      4  N   UNL     1       1.353   8.499  20.252  0.00  0.00    +0.000 NA
ATOM      5  C   UNL     1       0.596   9.272  21.041  0.00  0.00    +0.000 A 
ATOM      6  C   UNL     1       0.436   8.846  22.346  0.00  0.00    +0.000 A 
ATOM      7  C   UNL     1      -0.304   9.577  23.278  0.00  0.00    +0.000 A 
ATOM      8  C   UNL     1      -0.909  10.769  22.896  0.00  0.00    +0.000 A 
ATOM      9  C   UNL     1      -0.798  11.190  21.562  0.00  0.00    +0.000 A 
ATOM     10  C   UNL     1      -0.035  10.466  20.609  0.00  0.00    +0.000 A 
ENDROOT
BRANCH   3  11
ATOM     11  C   UNL     1       2.351   8.036  18.097  0.00  0.00    +0.000 C 
ATOM     12  C   UNL     1       3.303   7.175  18.486  0.00  0.00    +0.000 C 
BRANCH  12  13
ATOM     13  C   UNL     1       3.872   6.258  17.502  0.00  0.00    +0.000 A 
ATOM     14  C   UNL     1       3.585   4.892  17.560  0.00  0.00    +0.000 A 
ATOM     15  C   UNL     1       4.196   4.012  16.665  0.00  0.00    +0.000 A 
ATOM     16  C   UNL     1       5.099   4.495  15.717  0.00  0.00    +0.000 A 
ATOM     17  C   UNL     1       5.392   5.857  15.658  0.00  0.00    +0.000 A 
ATOM     18  C   UNL     1       4.781   6.738  16.551  0.00  0.00    +0.000 A 
ENDBRANCH  12  13
ENDBRANCH   3  11
BRANCH   8  19
ATOM     19  O   UNL     1      -1.630  11.584  23.724  0.00  0.00    +0.000 OA
ATOM     20  C   UNL     1      -2.628  12.395  23.110  0.00  0.00    +0.000 C 
ENDBRANCH   8  19
BRANCH   1  21
ATOM     21  C   UNL     1      -0.526  11.964  18.508  0.00  0.00    +0.000 C 
BRANCH  21  29
ATOM     22  C   UNL     1       2.209  15.457  18.891  0.00  0.00    +0.000 C 
ATOM     23  C   UNL     1       0.717  15.584  18.495  0.00  0.00    +0.000 C 
ATOM     24  N   UNL     1      -0.081  14.422  18.971  0.00  0.00    +0.000 NA
ATOM     25  C   UNL     1       0.211  14.235  20.416  0.00  0.00    +0.000 C 
ATOM     26  C   UNL     1       1.664  13.798  20.655  0.00  0.00    +0.000 C 
ATOM     27  C   UNL     1       2.462  14.002  19.356  0.00  0.00    +0.000 C 
ATOM     28  C   UNL     1       1.887  13.006  18.328  0.00  0.00    +0.000 C 
ATOM     29  C   UNL     1       0.359  13.217  18.176  0.00  0.00    +0.000 C 
BRANCH  22  31
ATOM     30  C   UNL     1       4.574  15.314  17.932  0.00  0.00    +0.000 C 
ATOM     31  C   UNL     1       3.177  15.898  17.780  0.00  0.00    +0.000 C 
ENDBRANCH  22  31
ENDBRANCH  21  29
BRANCH  21  32
ATOM     32  O   UNL     1      -1.130  11.473  17.311  0.00  0.00    +0.000 OA
ATOM     33  H   UNL     1      -0.596  11.867  16.592  0.00  0.00    +0.000 HD
ENDBRANCH  21  32
ENDBRANCH   1  21
TORSDOF 7
ENDMDL
MODEL 5
REMARK VINA RESULT:      -7.9      3.586      7.042
REMARK  Name = 
REMARK  9 active torsions:
REMARK  status: ('A' for Active; 'I' for Inactive)
REMARK    1  A    between atoms: C_1  and  C_2
REMARK    2  A    between atoms: C_2  and  C_3
REMARK    3  A    between atoms: C_10  and  C_11
REMARK    4  A    between atoms: C_11  and  O_12
REMARK    5  A    between atoms: C_11  and  C_13
REMARK    6  A    between atoms: C_15  and  C_16
REMARK    7  A    between atoms: C_17  and  C_18
REMARK    8  A    between atoms: C_28  and  O_29
REMARK    9  A    between atoms: O_29  and  C_30
REMARK                            x       y       z     vdW  Elec       q    Type
REMARK                         _______ _______ _______ _____ _____    ______ ____
ROOT
ATOM      1  C   UNL     1       4.605   6.543  17.708  0.00  0.00    +0.000 A 
ATOM      2  C   UNL     1       3.789   7.663  17.482  0.00  0.00    +0.000 A 
ATOM      3  C   UNL     1       2.610   7.813  18.187  0.00  0.00    +0.000 A 
ATOM      4  N   UNL     1       2.154   6.878  19.036  0.00  0.00    +0.000 NA
ATOM      5  C   UNL     1       2.860   5.749  19.179  0.00  0.00    +0.000 A 
ATOM      6  C   UNL     1       2.316   4.786  20.008  0.00  0.00    +0.000 A 
ATOM      7  C   UNL     1       2.937   3.553  20.219  0.00  0.00    +0.000 A 
ATOM      8  C   UNL     1       4.143   3.272  19.587  0.00  0.00    +0.000 A 
ATOM      9  C   UNL     1       4.735   4.259  18.782  0.00  0.00    +0.000 A 
ATOM     10  C   UNL     1       4.106   5.509  18.547  0.00  0.00    +0.000 A 
ENDROOT
BRANCH   3  11
ATOM     11  C   UNL     1       1.892   9.086  18.080  0.00  0.00    +0.000 C 
ATOM     12  C   UNL     1       1.124   9.616  19.043  0.00  0.00    +0.000 C 
BRANCH  12  13
ATOM     13  C   UNL     1       0.588  10.962  18.860  0.00  0.00    +0.000 A 
ATOM     14  C   UNL     1      -0.779  11.156  18.647  0.00  0.00    +0.000 A 
ATOM     15  C   UNL     1      -1.271  12.438  18.395  0.00  0.00    +0.000 A 
ATOM     16  C   UNL     1      -0.397  13.525  18.348  0.00  0.00    +0.000 A 
ATOM     17  C   UNL     1       0.969  13.336  18.557  0.00  0.00    +0.000 A 
ATOM     18  C   UNL     1       1.462  12.055  18.810  0.00  0.00    +0.000 A 
ENDBRANCH  12  13
ENDBRANCH   3  11
BRANCH   8  19
ATOM     19  O   UNL     1       4.828   2.093  19.692  0.00  0.00    +0.000 OA
ATOM     20  C   UNL     1       5.029   1.587  21.010  0.00  0.00    +0.000 C 
ENDBRANCH   8  19
BRANCH   1  21
ATOM     21  C   UNL     1       5.980   6.606  17.069  0.00  0.00    +0.000 C 
BRANCH  21  29
ATOM     22  C   UNL     1       6.326   3.931  13.527  0.00  0.00    +0.000 C 
ATOM     23  C   UNL     1       7.408   4.967  13.920  0.00  0.00    +0.000 C 
ATOM     24  N   UNL     1       7.346   5.307  15.367  0.00  0.00    +0.000 NA
ATOM     25  C   UNL     1       7.335   4.032  16.131  0.00  0.00    +0.000 C 
ATOM     26  C   UNL     1       6.045   3.233  15.892  0.00  0.00    +0.000 C 
ATOM     27  C   UNL     1       5.304   3.837  14.687  0.00  0.00    +0.000 C 
ATOM     28  C   UNL     1       4.852   5.248  15.114  0.00  0.00    +0.000 C 
ATOM     29  C   UNL     1       6.069   6.079  15.594  0.00  0.00    +0.000 C 
BRANCH  22  31
ATOM     30  C   UNL     1       4.603   3.201  11.785  0.00  0.00    +0.000 C 
ATOM     31  C   UNL     1       5.656   4.228  12.174  0.00  0.00    +0.000 C 
ENDBRANCH  22  31
ENDBRANCH  21  29
BRANCH  21  32
ATOM     32  O   UNL     1       6.508   7.932  17.137  0.00  0.00    +0.000 OA
ATOM     33  H   UNL     1       6.117   8.305  17.953  0.00  0.00    +0.000 HD
ENDBRANCH  21  32
ENDBRANCH   1  21
TORSDOF 7
ENDMDL
MODEL 6
REMARK VINA RESULT:      -7.9      7.169     10.849
REMARK  Name = 
REMARK  9 active torsions:
REMARK  status: ('A' for Active; 'I' for Inactive)
REMARK    1  A    between atoms: C_1  and  C_2
REMARK    2  A    between atoms: C_2  and  C_3
REMARK    3  A    between atoms: C_10  and  C_11
REMARK    4  A    between atoms: C_11  and  O_12
REMARK    5  A    between atoms: C_11  and  C_13
REMARK    6  A    between atoms: C_15  and  C_16
REMARK    7  A    between atoms: C_17  and  C_18
REMARK    8  A    between atoms: C_28  and  O_29
REMARK    9  A    between atoms: O_29  and  C_30
REMARK                            x       y       z     vdW  Elec       q    Type
REMARK                         _______ _______ _______ _____ _____    ______ ____
ROOT
ATOM      1  C   UNL     1      -0.163  11.553  19.344  0.00  0.00    +0.000 A 
ATOM      2  C   UNL     1       0.720  10.693  18.673  0.00  0.00    +0.000 A 
ATOM      3  C   UNL     1       1.089   9.492  19.250  0.00  0.00    +0.000 A 
ATOM      4  N   UNL     1       0.699   9.137  20.485  0.00  0.00    +0.000 NA
ATOM      5  C   UNL     1      -0.051   9.995  21.188  0.00  0.00    +0.000 A 
ATOM      6  C   UNL     1      -0.367   9.618  22.479  0.00  0.00    +0.000 A 
ATOM      7  C   UNL     1      -1.117  10.436  23.327  0.00  0.00    +0.000 A 
ATOM      8  C   UNL     1      -1.573  11.668  22.871  0.00  0.00    +0.000 A 
ATOM      9  C   UNL     1      -1.303  12.044  21.546  0.00  0.00    +0.000 A 
ATOM     10  C   UNL     1      -0.528  11.230  20.680  0.00  0.00    +0.000 A 
ENDROOT
BRANCH   3  11
ATOM     11  C   UNL     1       1.841   8.532  18.439  0.00  0.00    +0.000 C 
ATOM     12  C   UNL     1       2.709   7.633  18.924  0.00  0.00    +0.000 C 
BRANCH  12  13
ATOM     13  C   UNL     1       3.276   6.636  18.019  0.00  0.00    +0.000 A 
ATOM     14  C   UNL     1       2.792   5.326  18.018  0.00  0.00    +0.000 A 
ATOM     15  C   UNL     1       3.392   4.361  17.207  0.00  0.00    +0.000 A 
ATOM     16  C   UNL     1       4.480   4.703  16.402  0.00  0.00    +0.000 A 
ATOM     17  C   UNL     1       4.969   6.009  16.402  0.00  0.00    +0.000 A 
ATOM     18  C   UNL     1       4.369   6.975  17.212  0.00  0.00    +0.000 A 
ENDBRANCH  12  13
ENDBRANCH   3  11
BRANCH   8  19
ATOM     19  O   UNL     1      -2.287  12.564  23.616  0.00  0.00    +0.000 OA
ATOM     20  C   UNL     1      -1.771  13.892  23.685  0.00  0.00    +0.000 C 
ENDBRANCH   8  19
BRANCH   1  21
ATOM     21  C   UNL     1      -0.687  12.713  18.518  0.00  0.00    +0.000 C 
BRANCH  21  29
ATOM     22  C   UNL     1       1.848  16.276  19.359  0.00  0.00    +0.000 C 
ATOM     23  C   UNL     1       0.589  16.321  18.458  0.00  0.00    +0.000 C 
ATOM     24  N   UNL     1      -0.358  15.218  18.778  0.00  0.00    +0.000 NA
ATOM     25  C   UNL     1      -0.588  15.232  20.246  0.00  0.00    +0.000 C 
ATOM     26  C   UNL     1       0.680  14.858  21.028  0.00  0.00    +0.000 C 
ATOM     27  C   UNL     1       1.882  14.900  20.070  0.00  0.00    +0.000 C 
ATOM     28  C   UNL     1       1.668  13.766  19.048  0.00  0.00    +0.000 C 
ATOM     29  C   UNL     1       0.294  13.926  18.350  0.00  0.00    +0.000 C 
BRANCH  22  31
ATOM     30  C   UNL     1       2.936  16.895  17.131  0.00  0.00    +0.000 C 
ATOM     31  C   UNL     1       3.153  16.582  18.604  0.00  0.00    +0.000 C 
ENDBRANCH  22  31
ENDBRANCH  21  29
BRANCH  21  32
ATOM     32  O   UNL     1      -1.118  12.264  17.232  0.00  0.00    +0.000 OA
ATOM     33  H   UNL     1      -1.482  13.066  16.806  0.00  0.00    +0.000 HD
ENDBRANCH  21  32
ENDBRANCH   1  21
TORSDOF 7
ENDMDL
MODEL 7
REMARK VINA RESULT:      -7.8      3.787      6.939
REMARK  Name = 
REMARK  9 active torsions:
REMARK  status: ('A' for Active; 'I' for Inactive)
REMARK    1  A    between atoms: C_1  and  C_2
REMARK    2  A    between atoms: C_2  and  C_3
REMARK    3  A    between atoms: C_10  and  C_11
REMARK    4  A    between atoms: C_11  and  O_12
REMARK    5  A    between atoms: C_11  and  C_13
REMARK    6  A    between atoms: C_15  and  C_16
REMARK    7  A    between atoms: C_17  and  C_18
REMARK    8  A    between atoms: C_28  and  O_29
REMARK    9  A    between atoms: O_29  and  C_30
REMARK                            x       y       z     vdW  Elec       q    Type
REMARK                         _______ _______ _______ _____ _____    ______ ____
ROOT
ATOM      1  C   UNL     1       4.312   6.781  17.915  0.00  0.00    +0.000 A 
ATOM      2  C   UNL     1       3.584   7.952  17.653  0.00  0.00    +0.000 A 
ATOM      3  C   UNL     1       2.416   8.209  18.345  0.00  0.00    +0.000 A 
ATOM      4  N   UNL     1       1.887   7.335  19.218  0.00  0.00    +0.000 NA
ATOM      5  C   UNL     1       2.507   6.161  19.397  0.00  0.00    +0.000 A 
ATOM      6  C   UNL     1       1.889   5.265  20.248  0.00  0.00    +0.000 A 
ATOM      7  C   UNL     1       2.415   3.996  20.497  0.00  0.00    +0.000 A 
ATOM      8  C   UNL     1       3.600   3.608  19.882  0.00  0.00    +0.000 A 
ATOM      9  C   UNL     1       4.267   4.524  19.053  0.00  0.00    +0.000 A 
ATOM     10  C   UNL     1       3.734   5.811  18.779  0.00  0.00    +0.000 A 
ENDROOT
BRANCH   3  11
ATOM     11  C   UNL     1       1.795   9.528  18.199  0.00  0.00    +0.000 C 
ATOM     12  C   UNL     1       1.135  10.177  19.169  0.00  0.00    +0.000 C 
BRANCH  12  13
ATOM     13  C   UNL     1       0.697  11.549  18.930  0.00  0.00    +0.000 A 
ATOM     14  C   UNL     1       1.629  12.587  18.856  0.00  0.00    +0.000 A 
ATOM     15  C   UNL     1       1.197  13.905  18.707  0.00  0.00    +0.000 A 
ATOM     16  C   UNL     1      -0.168  14.189  18.640  0.00  0.00    +0.000 A 
ATOM     17  C   UNL     1      -1.103  13.158  18.717  0.00  0.00    +0.000 A 
ATOM     18  C   UNL     1      -0.672  11.839  18.864  0.00  0.00    +0.000 A 
ENDBRANCH  12  13
ENDBRANCH   3  11
BRANCH   8  19
ATOM     19  O   UNL     1       4.194   2.385  20.024  0.00  0.00    +0.000 OA
ATOM     20  C   UNL     1       4.047   1.474  18.937  0.00  0.00    +0.000 C 
ENDBRANCH   8  19
BRANCH   1  21
ATOM     21  C   UNL     1       5.691   6.724  17.283  0.00  0.00    +0.000 C 
BRANCH  21  29
ATOM     22  C   UNL     1       6.191   3.836  13.931  0.00  0.00    +0.000 C 
ATOM     23  C   UNL     1       7.128   5.049  14.157  0.00  0.00    +0.000 C 
ATOM     24  N   UNL     1       7.117   5.498  15.576  0.00  0.00    +0.000 NA
ATOM     25  C   UNL     1       7.353   4.305  16.429  0.00  0.00    +0.000 C 
ATOM     26  C   UNL     1       6.186   3.309  16.356  0.00  0.00    +0.000 C 
ATOM     27  C   UNL     1       5.280   3.694  15.175  0.00  0.00    +0.000 C 
ATOM     28  C   UNL     1       4.649   5.054  15.533  0.00  0.00    +0.000 C 
ATOM     29  C   UNL     1       5.756   6.092  15.849  0.00  0.00    +0.000 C 
BRANCH  22  31
ATOM     30  C   UNL     1       5.464   2.644  11.790  0.00  0.00    +0.000 C 
ATOM     31  C   UNL     1       5.391   3.917  12.619  0.00  0.00    +0.000 C 
ENDBRANCH  22  31
ENDBRANCH  21  29
BRANCH  21  32
ATOM     32  O   UNL     1       6.292   8.020  17.264  0.00  0.00    +0.000 OA
ATOM     33  H   UNL     1       7.082   7.911  16.697  0.00  0.00    +0.000 HD
ENDBRANCH  21  32
ENDBRANCH   1  21
TORSDOF 7
ENDMDL
MODEL 8
REMARK VINA RESULT:      -7.7      7.277     10.957
REMARK  Name = 
REMARK  9 active torsions:
REMARK  status: ('A' for Active; 'I' for Inactive)
REMARK    1  A    between atoms: C_1  and  C_2
REMARK    2  A    between atoms: C_2  and  C_3
REMARK    3  A    between atoms: C_10  and  C_11
REMARK    4  A    between atoms: C_11  and  O_12
REMARK    5  A    between atoms: C_11  and  C_13
REMARK    6  A    between atoms: C_15  and  C_16
REMARK    7  A    between atoms: C_17  and  C_18
REMARK    8  A    between atoms: C_28  and  O_29
REMARK    9  A    between atoms: O_29  and  C_30
REMARK                            x       y       z     vdW  Elec       q    Type
REMARK                         _______ _______ _______ _____ _____    ______ ____
ROOT
ATOM      1  C   UNL     1      -0.197  11.655  19.442  0.00  0.00    +0.000 A 
ATOM      2  C   UNL     1       0.737  10.791  18.850  0.00  0.00    +0.000 A 
ATOM      3  C   UNL     1       1.092   9.616  19.486  0.00  0.00    +0.000 A 
ATOM      4  N   UNL     1       0.639   9.293  20.709  0.00  0.00    +0.000 NA
ATOM      5  C   UNL     1      -0.164  10.160  21.340  0.00  0.00    +0.000 A 
ATOM      6  C   UNL     1      -0.546   9.819  22.624  0.00  0.00    +0.000 A 
ATOM      7  C   UNL     1      -1.356  10.650  23.401  0.00  0.00    +0.000 A 
ATOM      8  C   UNL     1      -1.805  11.858  22.880  0.00  0.00    +0.000 A 
ATOM      9  C   UNL     1      -1.468  12.196  21.560  0.00  0.00    +0.000 A 
ATOM     10  C   UNL     1      -0.631  11.369  20.765  0.00  0.00    +0.000 A 
ENDROOT
BRANCH   3  11
ATOM     11  C   UNL     1       1.904   8.644  18.751  0.00  0.00    +0.000 C 
ATOM     12  C   UNL     1       2.395   7.508  19.268  0.00  0.00    +0.000 C 
BRANCH  12  13
ATOM     13  C   UNL     1       3.062   6.558  18.381  0.00  0.00    +0.000 A 
ATOM     14  C   UNL     1       4.086   6.982  17.531  0.00  0.00    +0.000 A 
ATOM     15  C   UNL     1       4.663   6.085  16.632  0.00  0.00    +0.000 A 
ATOM     16  C   UNL     1       4.214   4.765  16.576  0.00  0.00    +0.000 A 
ATOM     17  C   UNL     1       3.190   4.337  17.421  0.00  0.00    +0.000 A 
ATOM     18  C   UNL     1       2.613   5.233  18.321  0.00  0.00    +0.000 A 
ENDBRANCH  12  13
ENDBRANCH   3  11
BRANCH   8  19
ATOM     19  O   UNL     1      -2.576  12.765  23.553  0.00  0.00    +0.000 OA
ATOM     20  C   UNL     1      -3.826  12.295  24.050  0.00  0.00    +0.000 C 
ENDBRANCH   8  19
BRANCH   1  21
ATOM     21  C   UNL     1      -0.693  12.778  18.550  0.00  0.00    +0.000 C 
BRANCH  21  29
ATOM     22  C   UNL     1       1.822  16.369  19.331  0.00  0.00    +0.000 C 
ATOM     23  C   UNL     1       0.585  16.382  18.398  0.00  0.00    +0.000 C 
ATOM     24  N   UNL     1      -0.370  15.291  18.732  0.00  0.00    +0.000 NA
ATOM     25  C   UNL     1      -0.636  15.355  20.193  0.00  0.00    +0.000 C 
ATOM     26  C   UNL     1       0.612  15.008  21.018  0.00  0.00    +0.000 C 
ATOM     27  C   UNL     1       1.838  15.018  20.090  0.00  0.00    +0.000 C 
ATOM     28  C   UNL     1       1.649  13.850  19.102  0.00  0.00    +0.000 C 
ATOM     29  C   UNL     1       0.292  13.985  18.365  0.00  0.00    +0.000 C 
BRANCH  22  31
ATOM     30  C   UNL     1       2.965  16.909  17.110  0.00  0.00    +0.000 C 
ATOM     31  C   UNL     1       3.145  16.650  18.598  0.00  0.00    +0.000 C 
ENDBRANCH  22  31
ENDBRANCH  21  29
BRANCH  21  32
ATOM     32  O   UNL     1      -1.079  12.274  17.270  0.00  0.00    +0.000 OA
ATOM     33  H   UNL     1      -1.945  12.695  17.096  0.00  0.00    +0.000 HD
ENDBRANCH  21  32
ENDBRANCH   1  21
TORSDOF 7
ENDMDL
MODEL 9
REMARK VINA RESULT:      -7.6      7.066     10.489
REMARK  Name = 
REMARK  9 active torsions:
REMARK  status: ('A' for Active; 'I' for Inactive)
REMARK    1  A    between atoms: C_1  and  C_2
REMARK    2  A    between atoms: C_2  and  C_3
REMARK    3  A    between atoms: C_10  and  C_11
REMARK    4  A    between atoms: C_11  and  O_12
REMARK    5  A    between atoms: C_11  and  C_13
REMARK    6  A    between atoms: C_15  and  C_16
REMARK    7  A    between atoms: C_17  and  C_18
REMARK    8  A    between atoms: C_28  and  O_29
REMARK    9  A    between atoms: O_29  and  C_30
REMARK                            x       y       z     vdW  Elec       q    Type
REMARK                         _______ _______ _______ _____ _____    ______ ____
ROOT
ATOM      1  C   UNL     1       0.368  11.293  19.666  0.00  0.00    +0.000 A 
ATOM      2  C   UNL     1       1.304  10.314  19.297  0.00  0.00    +0.000 A 
ATOM      3  C   UNL     1       1.001   9.410  18.296  0.00  0.00    +0.000 A 
ATOM      4  N   UNL     1      -0.204   9.369  17.703  0.00  0.00    +0.000 NA
ATOM      5  C   UNL     1      -1.149  10.220  18.122  0.00  0.00    +0.000 A 
ATOM      6  C   UNL     1      -2.393  10.092  17.534  0.00  0.00    +0.000 A 
ATOM      7  C   UNL     1      -3.472  10.898  17.902  0.00  0.00    +0.000 A 
ATOM      8  C   UNL     1      -3.306  11.867  18.885  0.00  0.00    +0.000 A 
ATOM      9  C   UNL     1      -2.036  12.043  19.457  0.00  0.00    +0.000 A 
ATOM     10  C   UNL     1      -0.935  11.220  19.104  0.00  0.00    +0.000 A 
ENDROOT
BRANCH   3  11
ATOM     11  C   UNL     1       2.069   8.541  17.795  0.00  0.00    +0.000 C 
ATOM     12  C   UNL     1       2.485   7.416  18.393  0.00  0.00    +0.000 C 
BRANCH  12  13
ATOM     13  C   UNL     1       3.455   6.567  17.706  0.00  0.00    +0.000 A 
ATOM     14  C   UNL     1       4.483   7.137  16.950  0.00  0.00    +0.000 A 
ATOM     15  C   UNL     1       5.358   6.319  16.233  0.00  0.00    +0.000 A 
ATOM     16  C   UNL     1       5.203   4.933  16.266  0.00  0.00    +0.000 A 
ATOM     17  C   UNL     1       4.177   4.359  17.016  0.00  0.00    +0.000 A 
ATOM     18  C   UNL     1       3.302   5.176  17.734  0.00  0.00    +0.000 A 
ENDBRANCH  12  13
ENDBRANCH   3  11
BRANCH   8  19
ATOM     19  O   UNL     1      -4.293  12.692  19.349  0.00  0.00    +0.000 OA
ATOM     20  C   UNL     1      -4.474  12.738  20.763  0.00  0.00    +0.000 C 
ENDBRANCH   8  19
BRANCH   1  21
ATOM     21  C   UNL     1       0.897  12.375  20.590  0.00  0.00    +0.000 C 
BRANCH  21  29
ATOM     22  C   UNL     1       2.049  16.432  19.160  0.00  0.00    +0.000 C 
ATOM     23  C   UNL     1       1.224  16.185  20.448  0.00  0.00    +0.000 C 
ATOM     24  N   UNL     1       1.450  14.820  20.996  0.00  0.00    +0.000 NA
ATOM     25  C   UNL     1       2.918  14.612  21.095  0.00  0.00    +0.000 C 
ATOM     26  C   UNL     1       3.584  14.561  19.712  0.00  0.00    +0.000 C 
ATOM     27  C   UNL     1       2.581  15.065  18.661  0.00  0.00    +0.000 C 
ATOM     28  C   UNL     1       1.438  14.032  18.616  0.00  0.00    +0.000 C 
ATOM     29  C   UNL     1       0.834  13.839  20.030  0.00  0.00    +0.000 C 
BRANCH  22  31
ATOM     30  C   UNL     1      -0.228  17.227  18.313  0.00  0.00    +0.000 C 
ATOM     31  C   UNL     1       1.275  17.196  18.073  0.00  0.00    +0.000 C 
ENDBRANCH  22  31
ENDBRANCH  21  29
BRANCH  21  32
ATOM     32  O   UNL     1       0.243  12.319  21.859  0.00  0.00    +0.000 OA
ATOM     33  H   UNL     1       0.288  11.374  22.112  0.00  0.00    +0.000 HD
ENDBRANCH  21  32
ENDBRANCH   1  21
TORSDOF 7
ENDMDL
