MODEL 1
REMARK VINA RESULT:      -7.1      0.000      0.000
REMARK  Name = 
REMARK  8 active torsions:
REMARK  status: ('A' for Active; 'I' for Inactive)
REMARK    1  A    between atoms: C_1  and  C_2
REMARK    2  A    between atoms: C_2  and  N_3
REMARK    3  A    between atoms: N_3  and  C_4
REMARK    4  A    between atoms: N_3  and  C_6
REMARK    5  A    between atoms: C_4  and  C_5
REMARK    6  A    between atoms: C_9  and  C_10
REMARK    7  A    between atoms: N_14  and  C_15
REMARK    8  A    between atoms: C_18  and  O_19
REMARK                            x       y       z     vdW  Elec       q    Type
REMARK                         _______ _______ _______ _____ _____    ______ ____
ROOT
ATOM      1  C   UNL     1       0.699   9.218  20.653  0.00  0.00    +0.000 A 
ATOM      2  C   UNL     1       1.301   9.106  19.421  0.00  0.00    +0.000 A 
ATOM      3  N   UNL     1       1.994   7.938  19.340  0.00  0.00    +0.000 NA
ATOM      4  C   UNL     1       1.787   7.354  20.501  0.00  0.00    +0.000 A 
ATOM      5  N   UNL     1       2.147   6.127  20.925  0.00  0.00    +0.000 N 
ATOM      6  O   UNL     1       1.046   8.104  21.378  0.00  0.00    +0.000 OA
ATOM      7  H   UNL     1       1.980   5.907  21.897  0.00  0.00    +0.000 HD
ENDROOT
BRANCH   1  11
ATOM      8  C   UNL     1      -1.928  12.183  22.394  0.00  0.00    +0.000 A 
ATOM      9  C   UNL     1      -1.615  12.156  21.028  0.00  0.00    +0.000 A 
ATOM     10  C   UNL     1      -0.755  11.199  20.473  0.00  0.00    +0.000 A 
ATOM     11  C   UNL     1      -0.181  10.200  21.260  0.00  0.00    +0.000 A 
ATOM     12  C   UNL     1      -0.504  10.177  22.614  0.00  0.00    +0.000 A 
ATOM     13  C   UNL     1      -1.359  11.147  23.160  0.00  0.00    +0.000 A 
BRANCH   8  14
ATOM     14  N   UNL     1      -2.729  13.185  22.962  0.00  0.00    +0.000 N 
BRANCH  14  16
ATOM     15  C   UNL     1      -1.377  14.777  24.293  0.00  0.00    +0.000 C 
ATOM     16  C   UNL     1      -2.238  14.567  23.051  0.00  0.00    +0.000 C 
ENDBRANCH  14  16
BRANCH  14  17
ATOM     17  C   UNL     1      -4.130  12.855  23.274  0.00  0.00    +0.000 C 
ATOM     18  C   UNL     1      -4.443  12.477  24.711  0.00  0.00    +0.000 C 
ENDBRANCH  14  17
ENDBRANCH   8  14
ENDBRANCH   1  11
BRANCH   5  19
ATOM     19  C   UNL     1       2.310   5.000  20.087  0.00  0.00    +0.000 A 
ATOM     20  C   UNL     1       3.539   4.652  19.505  0.00  0.00    +0.000 A 
ATOM     21  C   UNL     1       3.690   3.496  18.736  0.00  0.00    +0.000 A 
ATOM     22  C   UNL     1       2.598   2.667  18.541  0.00  0.00    +0.000 A 
ATOM     23  C   UNL     1       1.366   2.980  19.100  0.00  0.00    +0.000 A 
ATOM     24  C   UNL     1       1.224   4.136  19.879  0.00  0.00    +0.000 A 
BRANCH  22  25
ATOM     25  O   UNL     1       2.708   1.524  17.809  0.00  0.00    +0.000 OA
ATOM     26  H   UNL     1       3.294   0.914  18.286  0.00  0.00    +0.000 HD
ENDBRANCH  22  25
ENDBRANCH   5  19
TORSDOF 6
ENDMDL
MODEL 2
REMARK VINA RESULT:      -7.1      3.780      9.907
REMARK  Name = 
REMARK  8 active torsions:
REMARK  status: ('A' for Active; 'I' for Inactive)
REMARK    1  A    between atoms: C_1  and  C_2
REMARK    2  A    between atoms: C_2  and  N_3
REMARK    3  A    between atoms: N_3  and  C_4
REMARK    4  A    between atoms: N_3  and  C_6
REMARK    5  A    between atoms: C_4  and  C_5
REMARK    6  A    between atoms: C_9  and  C_10
REMARK    7  A    between atoms: N_14  and  C_15
REMARK    8  A    between atoms: C_18  and  O_19
REMARK                            x       y       z     vdW  Elec       q    Type
REMARK                         _______ _______ _______ _____ _____    ______ ____
ROOT
ATOM      1  C   UNL     1       2.076   8.239  18.707  0.00  0.00    +0.000 A 
ATOM      2  C   UNL     1       1.466   8.517  19.908  0.00  0.00    +0.000 A 
ATOM      3  N   UNL     1       0.522   9.484  19.744  0.00  0.00    +0.000 NA
ATOM      4  C   UNL     1       0.558   9.759  18.458  0.00  0.00    +0.000 A 
ATOM      5  N   UNL     1      -0.238  10.564  17.727  0.00  0.00    +0.000 N 
ATOM      6  O   UNL     1       1.522   9.073  17.766  0.00  0.00    +0.000 OA
ATOM      7  H   UNL     1       0.023  10.720  16.763  0.00  0.00    +0.000 HD
ENDROOT
BRANCH   1  11
ATOM      8  C   UNL     1       5.111   5.448  17.394  0.00  0.00    +0.000 A 
ATOM      9  C   UNL     1       4.925   6.702  16.796  0.00  0.00    +0.000 A 
ATOM     10  C   UNL     1       3.933   7.596  17.220  0.00  0.00    +0.000 A 
ATOM     11  C   UNL     1       3.088   7.287  18.287  0.00  0.00    +0.000 A 
ATOM     12  C   UNL     1       3.275   6.065  18.926  0.00  0.00    +0.000 A 
ATOM     13  C   UNL     1       4.265   5.173  18.486  0.00  0.00    +0.000 A 
BRANCH   8  14
ATOM     14  N   UNL     1       6.054   4.523  16.922  0.00  0.00    +0.000 N 
BRANCH  14  16
ATOM     15  C   UNL     1       6.241   4.032  14.501  0.00  0.00    +0.000 C 
ATOM     16  C   UNL     1       5.698   3.579  15.853  0.00  0.00    +0.000 C 
ENDBRANCH  14  16
BRANCH  14  17
ATOM     17  C   UNL     1       7.447   4.661  17.381  0.00  0.00    +0.000 C 
ATOM     18  C   UNL     1       7.677   5.471  18.645  0.00  0.00    +0.000 C 
ENDBRANCH  14  17
ENDBRANCH   8  14
ENDBRANCH   1  11
BRANCH   5  19
ATOM     19  C   UNL     1      -1.594  10.841  18.020  0.00  0.00    +0.000 A 
ATOM     20  C   UNL     1      -1.992  11.848  18.913  0.00  0.00    +0.000 A 
ATOM     21  C   UNL     1      -3.337  12.148  19.135  0.00  0.00    +0.000 A 
ATOM     22  C   UNL     1      -4.309  11.433  18.456  0.00  0.00    +0.000 A 
ATOM     23  C   UNL     1      -3.953  10.427  17.566  0.00  0.00    +0.000 A 
ATOM     24  C   UNL     1      -2.601  10.139  17.341  0.00  0.00    +0.000 A 
BRANCH  22  25
ATOM     25  O   UNL     1      -5.633  11.703  18.635  0.00  0.00    +0.000 OA
ATOM     26  H   UNL     1      -6.049  11.766  17.759  0.00  0.00    +0.000 HD
ENDBRANCH  22  25
ENDBRANCH   5  19
TORSDOF 6
ENDMDL
MODEL 3
REMARK VINA RESULT:      -7.0      0.162      1.324
REMARK  Name = 
REMARK  8 active torsions:
REMARK  status: ('A' for Active; 'I' for Inactive)
REMARK    1  A    between atoms: C_1  and  C_2
REMARK    2  A    between atoms: C_2  and  N_3
REMARK    3  A    between atoms: N_3  and  C_4
REMARK    4  A    between atoms: N_3  and  C_6
REMARK    5  A    between atoms: C_4  and  C_5
REMARK    6  A    between atoms: C_9  and  C_10
REMARK    7  A    between atoms: N_14  and  C_15
REMARK    8  A    between atoms: C_18  and  O_19
REMARK                            x       y       z     vdW  Elec       q    Type
REMARK                         _______ _______ _______ _____ _____    ______ ____
ROOT
ATOM      1  C   UNL     1       0.631   9.260  20.622  0.00  0.00    +0.000 A 
ATOM      2  C   UNL     1       1.267   9.124  19.410  0.00  0.00    +0.000 A 
ATOM      3  N   UNL     1       1.969   7.958  19.375  0.00  0.00    +0.000 NA
ATOM      4  C   UNL     1       1.732   7.400  20.543  0.00  0.00    +0.000 A 
ATOM      5  N   UNL     1       2.087   6.185  21.004  0.00  0.00    +0.000 N 
ATOM      6  O   UNL     1       0.962   8.164  21.381  0.00  0.00    +0.000 OA
ATOM      7  H   UNL     1       1.893   5.986  21.976  0.00  0.00    +0.000 HD
ENDROOT
BRANCH   1  11
ATOM      8  C   UNL     1      -2.064  12.245  22.220  0.00  0.00    +0.000 A 
ATOM      9  C   UNL     1      -1.768  12.145  20.854  0.00  0.00    +0.000 A 
ATOM     10  C   UNL     1      -0.886  11.182  20.345  0.00  0.00    +0.000 A 
ATOM     11  C   UNL     1      -0.271  10.250  21.182  0.00  0.00    +0.000 A 
ATOM     12  C   UNL     1      -0.575  10.300  22.539  0.00  0.00    +0.000 A 
ATOM     13  C   UNL     1      -1.453  11.275  23.039  0.00  0.00    +0.000 A 
BRANCH   8  14
ATOM     14  N   UNL     1      -2.887  13.256  22.739  0.00  0.00    +0.000 N 
BRANCH  14  16
ATOM     15  C   UNL     1      -4.285  12.577  24.668  0.00  0.00    +0.000 C 
ATOM     16  C   UNL     1      -4.251  12.946  23.188  0.00  0.00    +0.000 C 
ENDBRANCH  14  16
BRANCH  14  17
ATOM     17  C   UNL     1      -2.280  14.572  23.004  0.00  0.00    +0.000 C 
ATOM     18  C   UNL     1      -1.291  14.654  24.153  0.00  0.00    +0.000 C 
ENDBRANCH  14  17
ENDBRANCH   8  14
ENDBRANCH   1  11
BRANCH   5  19
ATOM     19  C   UNL     1       2.278   5.039  20.196  0.00  0.00    +0.000 A 
ATOM     20  C   UNL     1       3.517   4.705  19.629  0.00  0.00    +0.000 A 
ATOM     21  C   UNL     1       3.698   3.533  18.891  0.00  0.00    +0.000 A 
ATOM     22  C   UNL     1       2.626   2.675  18.714  0.00  0.00    +0.000 A 
ATOM     23  C   UNL     1       1.384   2.974  19.259  0.00  0.00    +0.000 A 
ATOM     24  C   UNL     1       1.213   4.146  20.006  0.00  0.00    +0.000 A 
BRANCH  22  25
ATOM     25  O   UNL     1       2.764   1.515  18.012  0.00  0.00    +0.000 OA
ATOM     26  H   UNL     1       2.265   1.602  17.183  0.00  0.00    +0.000 HD
ENDBRANCH  22  25
ENDBRANCH   5  19
TORSDOF 6
ENDMDL
MODEL 4
REMARK VINA RESULT:      -6.9      3.744      9.858
REMARK  Name = 
REMARK  8 active torsions:
REMARK  status: ('A' for Active; 'I' for Inactive)
REMARK    1  A    between atoms: C_1  and  C_2
REMARK    2  A    between atoms: C_2  and  N_3
REMARK    3  A    between atoms: N_3  and  C_4
REMARK    4  A    between atoms: N_3  and  C_6
REMARK    5  A    between atoms: C_4  and  C_5
REMARK    6  A    between atoms: C_9  and  C_10
REMARK    7  A    between atoms: N_14  and  C_15
REMARK    8  A    between atoms: C_18  and  O_19
REMARK                            x       y       z     vdW  Elec       q    Type
REMARK                         _______ _______ _______ _____ _____    ______ ____
ROOT
ATOM      1  C   UNL     1       1.944   8.400  18.756  0.00  0.00    +0.000 A 
ATOM      2  C   UNL     1       1.329   8.622  19.967  0.00  0.00    +0.000 A 
ATOM      3  N   UNL     1       0.375   9.584  19.840  0.00  0.00    +0.000 NA
ATOM      4  C   UNL     1       0.409   9.912  18.566  0.00  0.00    +0.000 A 
ATOM      5  N   UNL     1      -0.395  10.737  17.867  0.00  0.00    +0.000 N 
ATOM      6  O   UNL     1       1.382   9.265  17.849  0.00  0.00    +0.000 OA
ATOM      7  H   UNL     1      -0.134  10.935  16.911  0.00  0.00    +0.000 HD
ENDROOT
BRANCH   1  11
ATOM      8  C   UNL     1       4.982   5.606  17.459  0.00  0.00    +0.000 A 
ATOM      9  C   UNL     1       4.168   5.375  18.576  0.00  0.00    +0.000 A 
ATOM     10  C   UNL     1       3.193   6.289  18.995  0.00  0.00    +0.000 A 
ATOM     11  C   UNL     1       2.967   7.477  18.299  0.00  0.00    +0.000 A 
ATOM     12  C   UNL     1       3.735   7.717  17.163  0.00  0.00    +0.000 A 
ATOM     13  C   UNL     1       4.715   6.798  16.757  0.00  0.00    +0.000 A 
BRANCH   8  14
ATOM     14  N   UNL     1       6.009   4.727  17.082  0.00  0.00    +0.000 N 
BRANCH  14  16
ATOM     15  C   UNL     1       7.667   5.973  18.435  0.00  0.00    +0.000 C 
ATOM     16  C   UNL     1       7.228   4.616  17.894  0.00  0.00    +0.000 C 
ENDBRANCH  14  16
BRANCH  14  17
ATOM     17  C   UNL     1       5.743   3.787  15.979  0.00  0.00    +0.000 C 
ATOM     18  C   UNL     1       6.334   4.134  14.623  0.00  0.00    +0.000 C 
ENDBRANCH  14  17
ENDBRANCH   8  14
ENDBRANCH   1  11
BRANCH   5  19
ATOM     19  C   UNL     1      -1.754  10.986  18.169  0.00  0.00    +0.000 A 
ATOM     20  C   UNL     1      -2.166  11.978  19.073  0.00  0.00    +0.000 A 
ATOM     21  C   UNL     1      -3.516  12.251  19.303  0.00  0.00    +0.000 A 
ATOM     22  C   UNL     1      -4.478  11.524  18.622  0.00  0.00    +0.000 A 
ATOM     23  C   UNL     1      -4.108  10.533  17.722  0.00  0.00    +0.000 A 
ATOM     24  C   UNL     1      -2.752  10.272  17.488  0.00  0.00    +0.000 A 
BRANCH  22  25
ATOM     25  O   UNL     1      -5.805  11.768  18.809  0.00  0.00    +0.000 OA
ATOM     26  H   UNL     1      -6.180  12.068  17.964  0.00  0.00    +0.000 HD
ENDBRANCH  22  25
ENDBRANCH   5  19
TORSDOF 6
ENDMDL
MODEL 5
REMARK VINA RESULT:      -6.9      3.710      9.859
REMARK  Name = 
REMARK  8 active torsions:
REMARK  status: ('A' for Active; 'I' for Inactive)
REMARK    1  A    between atoms: C_1  and  C_2
REMARK    2  A    between atoms: C_2  and  N_3
REMARK    3  A    between atoms: N_3  and  C_4
REMARK    4  A    between atoms: N_3  and  C_6
REMARK    5  A    between atoms: C_4  and  C_5
REMARK    6  A    between atoms: C_9  and  C_10
REMARK    7  A    between atoms: N_14  and  C_15
REMARK    8  A    between atoms: C_18  and  O_19
REMARK                            x       y       z     vdW  Elec       q    Type
REMARK                         _______ _______ _______ _____ _____    ______ ____
ROOT
ATOM      1  C   UNL     1       1.810   8.489  18.833  0.00  0.00    +0.000 A 
ATOM      2  C   UNL     1       1.225   8.776  20.045  0.00  0.00    +0.000 A 
ATOM      3  N   UNL     1       0.267   9.730  19.890  0.00  0.00    +0.000 NA
ATOM      4  C   UNL     1       0.269   9.988  18.600  0.00  0.00    +0.000 A 
ATOM      5  N   UNL     1      -0.553  10.775  17.878  0.00  0.00    +0.000 N 
ATOM      6  O   UNL     1       1.225   9.304  17.895  0.00  0.00    +0.000 OA
ATOM      7  H   UNL     1      -0.316  10.921  16.906  0.00  0.00    +0.000 HD
ENDROOT
BRANCH   1  11
ATOM      8  C   UNL     1       4.818   5.628  17.611  0.00  0.00    +0.000 A 
ATOM      9  C   UNL     1       3.999   5.434  18.732  0.00  0.00    +0.000 A 
ATOM     10  C   UNL     1       3.034   6.370  19.127  0.00  0.00    +0.000 A 
ATOM     11  C   UNL     1       2.824   7.544  18.401  0.00  0.00    +0.000 A 
ATOM     12  C   UNL     1       3.596   7.746  17.261  0.00  0.00    +0.000 A 
ATOM     13  C   UNL     1       4.567   6.806  16.880  0.00  0.00    +0.000 A 
BRANCH   8  14
ATOM     14  N   UNL     1       5.835   4.728  17.259  0.00  0.00    +0.000 N 
BRANCH  14  16
ATOM     15  C   UNL     1       6.780   4.449  14.986  0.00  0.00    +0.000 C 
ATOM     16  C   UNL     1       5.752   3.966  16.005  0.00  0.00    +0.000 C 
ENDBRANCH  14  16
BRANCH  14  17
ATOM     17  C   UNL     1       7.064   4.722  18.071  0.00  0.00    +0.000 C 
ATOM     18  C   UNL     1       7.639   6.074  18.457  0.00  0.00    +0.000 C 
ENDBRANCH  14  17
ENDBRANCH   8  14
ENDBRANCH   1  11
BRANCH   5  19
ATOM     19  C   UNL     1      -1.905  11.039  18.199  0.00  0.00    +0.000 A 
ATOM     20  C   UNL     1      -2.291  12.024  19.122  0.00  0.00    +0.000 A 
ATOM     21  C   UNL     1      -3.634  12.313  19.372  0.00  0.00    +0.000 A 
ATOM     22  C   UNL     1      -4.615  11.611  18.692  0.00  0.00    +0.000 A 
ATOM     23  C   UNL     1      -4.270  10.627  17.774  0.00  0.00    +0.000 A 
ATOM     24  C   UNL     1      -2.921  10.349  17.520  0.00  0.00    +0.000 A 
BRANCH  22  25
ATOM     25  O   UNL     1      -5.936  11.872  18.899  0.00  0.00    +0.000 OA
ATOM     26  H   UNL     1      -6.103  12.797  18.654  0.00  0.00    +0.000 HD
ENDBRANCH  22  25
ENDBRANCH   5  19
TORSDOF 6
ENDMDL
MODEL 6
REMARK VINA RESULT:      -6.9      0.313      1.703
REMARK  Name = 
REMARK  8 active torsions:
REMARK  status: ('A' for Active; 'I' for Inactive)
REMARK    1  A    between atoms: C_1  and  C_2
REMARK    2  A    between atoms: C_2  and  N_3
REMARK    3  A    between atoms: N_3  and  C_4
REMARK    4  A    between atoms: N_3  and  C_6
REMARK    5  A    between atoms: C_4  and  C_5
REMARK    6  A    between atoms: C_9  and  C_10
REMARK    7  A    between atoms: N_14  and  C_15
REMARK    8  A    between atoms: C_18  and  O_19
REMARK                            x       y       z     vdW  Elec       q    Type
REMARK                         _______ _______ _______ _____ _____    ______ ____
ROOT
ATOM      1  C   UNL     1       0.686   9.313  20.607  0.00  0.00    +0.000 A 
ATOM      2  C   UNL     1       1.283   9.158  19.377  0.00  0.00    +0.000 A 
ATOM      3  N   UNL     1       1.950   7.973  19.325  0.00  0.00    +0.000 NA
ATOM      4  C   UNL     1       1.730   7.422  20.499  0.00  0.00    +0.000 A 
ATOM      5  N   UNL     1       2.063   6.198  20.952  0.00  0.00    +0.000 N 
ATOM      6  O   UNL     1       1.007   8.209  21.358  0.00  0.00    +0.000 OA
ATOM      7  H   UNL     1       1.892   6.005  21.930  0.00  0.00    +0.000 HD
ENDROOT
BRANCH   1  11
ATOM      8  C   UNL     1      -1.866  12.304  22.415  0.00  0.00    +0.000 A 
ATOM      9  C   UNL     1      -1.268  11.272  23.152  0.00  0.00    +0.000 A 
ATOM     10  C   UNL     1      -0.451  10.301  22.557  0.00  0.00    +0.000 A 
ATOM     11  C   UNL     1      -0.171  10.329  21.191  0.00  0.00    +0.000 A 
ATOM     12  C   UNL     1      -0.720  11.364  20.439  0.00  0.00    +0.000 A 
ATOM     13  C   UNL     1      -1.545  12.326  21.044  0.00  0.00    +0.000 A 
BRANCH   8  14
ATOM     14  N   UNL     1      -2.744  13.231  22.996  0.00  0.00    +0.000 N 
BRANCH  14  16
ATOM     15  C   UNL     1      -4.430  12.450  24.635  0.00  0.00    +0.000 C 
ATOM     16  C   UNL     1      -4.159  12.889  23.199  0.00  0.00    +0.000 C 
ENDBRANCH  14  16
BRANCH  14  17
ATOM     17  C   UNL     1      -2.169  14.459  23.572  0.00  0.00    +0.000 C 
ATOM     18  C   UNL     1      -2.393  15.749  22.803  0.00  0.00    +0.000 C 
ENDBRANCH  14  17
ENDBRANCH   8  14
ENDBRANCH   1  11
BRANCH   5  19
ATOM     19  C   UNL     1       2.199   5.047  20.141  0.00  0.00    +0.000 A 
ATOM     20  C   UNL     1       3.359   4.767  19.402  0.00  0.00    +0.000 A 
ATOM     21  C   UNL     1       3.495   3.590  18.662  0.00  0.00    +0.000 A 
ATOM     22  C   UNL     1       2.459   2.672  18.657  0.00  0.00    +0.000 A 
ATOM     23  C   UNL     1       1.296   2.916  19.374  0.00  0.00    +0.000 A 
ATOM     24  C   UNL     1       1.169   4.094  20.123  0.00  0.00    +0.000 A 
BRANCH  22  25
ATOM     25  O   UNL     1       2.559   1.506  17.958  0.00  0.00    +0.000 OA
ATOM     26  H   UNL     1       2.991   0.848  18.528  0.00  0.00    +0.000 HD
ENDBRANCH  22  25
ENDBRANCH   5  19
TORSDOF 6
ENDMDL
MODEL 7
REMARK VINA RESULT:      -6.9      0.352      1.941
REMARK  Name = 
REMARK  8 active torsions:
REMARK  status: ('A' for Active; 'I' for Inactive)
REMARK    1  A    between atoms: C_1  and  C_2
REMARK    2  A    between atoms: C_2  and  N_3
REMARK    3  A    between atoms: N_3  and  C_4
REMARK    4  A    between atoms: N_3  and  C_6
REMARK    5  A    between atoms: C_4  and  C_5
REMARK    6  A    between atoms: C_9  and  C_10
REMARK    7  A    between atoms: N_14  and  C_15
REMARK    8  A    between atoms: C_18  and  O_19
REMARK                            x       y       z     vdW  Elec       q    Type
REMARK                         _______ _______ _______ _____ _____    ______ ____
ROOT
ATOM      1  C   UNL     1       0.738   9.213  20.684  0.00  0.00    +0.000 A 
ATOM      2  C   UNL     1       1.317   9.047  19.447  0.00  0.00    +0.000 A 
ATOM      3  N   UNL     1       1.958   7.848  19.385  0.00  0.00    +0.000 NA
ATOM      4  C   UNL     1       1.741   7.301  20.562  0.00  0.00    +0.000 A 
ATOM      5  N   UNL     1       2.053   6.069  21.010  0.00  0.00    +0.000 N 
ATOM      6  O   UNL     1       1.045   8.102  21.430  0.00  0.00    +0.000 OA
ATOM      7  H   UNL     1       1.890   5.879  21.989  0.00  0.00    +0.000 HD
ENDROOT
BRANCH   1  11
ATOM      8  C   UNL     1      -1.737  12.250  22.522  0.00  0.00    +0.000 A 
ATOM      9  C   UNL     1      -1.279  11.123  23.217  0.00  0.00    +0.000 A 
ATOM     10  C   UNL     1      -0.486  10.138  22.612  0.00  0.00    +0.000 A 
ATOM     11  C   UNL     1      -0.090  10.247  21.279  0.00  0.00    +0.000 A 
ATOM     12  C   UNL     1      -0.498  11.375  20.573  0.00  0.00    +0.000 A 
ATOM     13  C   UNL     1      -1.300  12.350  21.187  0.00  0.00    +0.000 A 
BRANCH   8  14
ATOM     14  N   UNL     1      -2.592  13.197  23.106  0.00  0.00    +0.000 N 
BRANCH  14  16
ATOM     15  C   UNL     1      -4.417  12.462  24.609  0.00  0.00    +0.000 C 
ATOM     16  C   UNL     1      -4.033  12.932  23.210  0.00  0.00    +0.000 C 
ENDBRANCH  14  16
BRANCH  14  17
ATOM     17  C   UNL     1      -1.981  14.355  23.781  0.00  0.00    +0.000 C 
ATOM     18  C   UNL     1      -2.467  15.731  23.361  0.00  0.00    +0.000 C 
ENDBRANCH  14  17
ENDBRANCH   8  14
ENDBRANCH   1  11
BRANCH   5  19
ATOM     19  C   UNL     1       2.155   4.917  20.197  0.00  0.00    +0.000 A 
ATOM     20  C   UNL     1       1.076   4.048  19.966  0.00  0.00    +0.000 A 
ATOM     21  C   UNL     1       1.182   2.954  19.105  0.00  0.00    +0.000 A 
ATOM     22  C   UNL     1       2.383   2.717  18.458  0.00  0.00    +0.000 A 
ATOM     23  C   UNL     1       3.472   3.553  18.664  0.00  0.00    +0.000 A 
ATOM     24  C   UNL     1       3.356   4.655  19.521  0.00  0.00    +0.000 A 
BRANCH  22  25
ATOM     25  O   UNL     1       2.522   1.668  17.600  0.00  0.00    +0.000 OA
ATOM     26  H   UNL     1       3.342   1.198  17.827  0.00  0.00    +0.000 HD
ENDBRANCH  22  25
ENDBRANCH   5  19
TORSDOF 6
ENDMDL
MODEL 8
REMARK VINA RESULT:      -6.9      0.369      1.511
REMARK  Name = 
REMARK  8 active torsions:
REMARK  status: ('A' for Active; 'I' for Inactive)
REMARK    1  A    between atoms: C_1  and  C_2
REMARK    2  A    between atoms: C_2  and  N_3
REMARK    3  A    between atoms: N_3  and  C_4
REMARK    4  A    between atoms: N_3  and  C_6
REMARK    5  A    between atoms: C_4  and  C_5
REMARK    6  A    between atoms: C_9  and  C_10
REMARK    7  A    between atoms: N_14  and  C_15
REMARK    8  A    between atoms: C_18  and  O_19
REMARK                            x       y       z     vdW  Elec       q    Type
REMARK                         _______ _______ _______ _____ _____    ______ ____
ROOT
ATOM      1  C   UNL     1       0.694   9.252  20.642  0.00  0.00    +0.000 A 
ATOM      2  C   UNL     1       1.305   9.070  19.423  0.00  0.00    +0.000 A 
ATOM      3  N   UNL     1       1.953   7.874  19.396  0.00  0.00    +0.000 NA
ATOM      4  C   UNL     1       1.710   7.344  20.575  0.00  0.00    +0.000 A 
ATOM      5  N   UNL     1       2.017   6.121  21.050  0.00  0.00    +0.000 N 
ATOM      6  O   UNL     1       0.988   8.154  21.413  0.00  0.00    +0.000 OA
ATOM      7  H   UNL     1       1.830   5.945  22.028  0.00  0.00    +0.000 HD
ENDROOT
BRANCH   1  11
ATOM      8  C   UNL     1      -1.834  12.308  22.374  0.00  0.00    +0.000 A 
ATOM      9  C   UNL     1      -1.278  11.266  23.130  0.00  0.00    +0.000 A 
ATOM     10  C   UNL     1      -0.469  10.275  22.560  0.00  0.00    +0.000 A 
ATOM     11  C   UNL     1      -0.155  10.290  21.200  0.00  0.00    +0.000 A 
ATOM     12  C   UNL     1      -0.661  11.333  20.431  0.00  0.00    +0.000 A 
ATOM     13  C   UNL     1      -1.479  12.316  21.011  0.00  0.00    +0.000 A 
BRANCH   8  14
ATOM     14  N   UNL     1      -2.706  13.257  22.929  0.00  0.00    +0.000 N 
BRANCH  14  16
ATOM     15  C   UNL     1      -3.111  15.542  22.064  0.00  0.00    +0.000 C 
ATOM     16  C   UNL     1      -2.306  14.668  23.021  0.00  0.00    +0.000 C 
ENDBRANCH  14  16
BRANCH  14  17
ATOM     17  C   UNL     1      -4.087  12.837  23.225  0.00  0.00    +0.000 C 
ATOM     18  C   UNL     1      -4.396  12.458  24.662  0.00  0.00    +0.000 C 
ENDBRANCH  14  17
ENDBRANCH   8  14
ENDBRANCH   1  11
BRANCH   5  19
ATOM     19  C   UNL     1       2.145   4.956  20.258  0.00  0.00    +0.000 A 
ATOM     20  C   UNL     1       1.092   4.049  20.059  0.00  0.00    +0.000 A 
ATOM     21  C   UNL     1       1.221   2.943  19.218  0.00  0.00    +0.000 A 
ATOM     22  C   UNL     1       2.420   2.732  18.558  0.00  0.00    +0.000 A 
ATOM     23  C   UNL     1       3.484   3.607  18.732  0.00  0.00    +0.000 A 
ATOM     24  C   UNL     1       3.345   4.721  19.570  0.00  0.00    +0.000 A 
BRANCH  22  25
ATOM     25  O   UNL     1       2.582   1.671  17.718  0.00  0.00    +0.000 OA
ATOM     26  H   UNL     1       2.818   0.895  18.253  0.00  0.00    +0.000 HD
ENDBRANCH  22  25
ENDBRANCH   5  19
TORSDOF 6
ENDMDL
MODEL 9
REMARK VINA RESULT:      -6.9      0.446      1.192
REMARK  Name = 
REMARK  8 active torsions:
REMARK  status: ('A' for Active; 'I' for Inactive)
REMARK    1  A    between atoms: C_1  and  C_2
REMARK    2  A    between atoms: C_2  and  N_3
REMARK    3  A    between atoms: N_3  and  C_4
REMARK    4  A    between atoms: N_3  and  C_6
REMARK    5  A    between atoms: C_4  and  C_5
REMARK    6  A    between atoms: C_9  and  C_10
REMARK    7  A    between atoms: N_14  and  C_15
REMARK    8  A    between atoms: C_18  and  O_19
REMARK                            x       y       z     vdW  Elec       q    Type
REMARK                         _______ _______ _______ _____ _____    ______ ____
ROOT
ATOM      1  C   UNL     1       0.630   9.340  20.526  0.00  0.00    +0.000 A 
ATOM      2  C   UNL     1       1.209   9.147  19.293  0.00  0.00    +0.000 A 
ATOM      3  N   UNL     1       1.905   7.978  19.278  0.00  0.00    +0.000 NA
ATOM      4  C   UNL     1       1.723   7.474  20.480  0.00  0.00    +0.000 A 
ATOM      5  N   UNL     1       2.097   6.280  20.979  0.00  0.00    +0.000 N 
ATOM      6  O   UNL     1       0.995   8.279  21.318  0.00  0.00    +0.000 OA
ATOM      7  H   UNL     1       1.949   6.126  21.967  0.00  0.00    +0.000 HD
ENDROOT
BRANCH   1  11
ATOM      8  C   UNL     1      -1.963  12.343  22.254  0.00  0.00    +0.000 A 
ATOM      9  C   UNL     1      -1.270  11.403  23.029  0.00  0.00    +0.000 A 
ATOM     10  C   UNL     1      -0.439  10.427  22.462  0.00  0.00    +0.000 A 
ATOM     11  C   UNL     1      -0.243  10.358  21.082  0.00  0.00    +0.000 A 
ATOM     12  C   UNL     1      -0.888  11.303  20.289  0.00  0.00    +0.000 A 
ATOM     13  C   UNL     1      -1.725  12.270  20.868  0.00  0.00    +0.000 A 
BRANCH   8  14
ATOM     14  N   UNL     1      -2.852  13.272  22.816  0.00  0.00    +0.000 N 
BRANCH  14  16
ATOM     15  C   UNL     1      -3.347  15.502  21.859  0.00  0.00    +0.000 C 
ATOM     16  C   UNL     1      -2.511  14.700  22.851  0.00  0.00    +0.000 C 
ENDBRANCH  14  16
BRANCH  14  17
ATOM     17  C   UNL     1      -4.202  12.803  23.177  0.00  0.00    +0.000 C 
ATOM     18  C   UNL     1      -4.448  12.481  24.641  0.00  0.00    +0.000 C 
ENDBRANCH  14  17
ENDBRANCH   8  14
ENDBRANCH   1  11
BRANCH   5  19
ATOM     19  C   UNL     1       2.248   5.099  20.216  0.00  0.00    +0.000 A 
ATOM     20  C   UNL     1       3.472   4.707  19.650  0.00  0.00    +0.000 A 
ATOM     21  C   UNL     1       3.612   3.502  18.958  0.00  0.00    +0.000 A 
ATOM     22  C   UNL     1       2.515   2.668  18.826  0.00  0.00    +0.000 A 
ATOM     23  C   UNL     1       1.288   3.023  19.371  0.00  0.00    +0.000 A 
ATOM     24  C   UNL     1       1.157   4.229  20.073  0.00  0.00    +0.000 A 
BRANCH  22  25
ATOM     25  O   UNL     1       2.614   1.477  18.170  0.00  0.00    +0.000 OA
ATOM     26  H   UNL     1       3.455   1.062  18.423  0.00  0.00    +0.000 HD
ENDBRANCH  22  25
ENDBRANCH   5  19
TORSDOF 6
ENDMDL
