MODEL 1
REMARK VINA RESULT:      -7.8      0.000      0.000
REMARK  Name = 
REMARK  9 active torsions:
REMARK  status: ('A' for Active; 'I' for Inactive)
REMARK    1  A    between atoms: C_1  and  C_2
REMARK    2  A    between atoms: C_8  and  C_9
REMARK    3  A    between atoms: C_9  and  O_10
REMARK    4  A    between atoms: O_10  and  C_11
REMARK    5  A    between atoms: C_14  and  S_15
REMARK    6  A    between atoms: S_15  and  C_18
REMARK    7  A    between atoms: C_18  and  C_19
REMARK    8  A    between atoms: C_19  and  C_20
REMARK    9  A    between atoms: N_22  and  O_23
REMARK                            x       y       z     vdW  Elec       q    Type
REMARK                         _______ _______ _______ _____ _____    ______ ____
ROOT
ATOM      1  C   UNL     1       2.161   7.844  19.101  0.00  0.00    +0.000 A 
ATOM      2  C   UNL     1       2.972   7.758  17.966  0.00  0.00    +0.000 A 
ATOM      3  C   UNL     1       3.750   6.623  17.745  0.00  0.00    +0.000 A 
ATOM      4  C   UNL     1       3.750   5.589  18.683  0.00  0.00    +0.000 A 
ATOM      5  C   UNL     1       2.967   5.673  19.835  0.00  0.00    +0.000 A 
ATOM      6  C   UNL     1       2.179   6.809  20.042  0.00  0.00    +0.000 A 
ENDROOT
BRANCH   4   7
ATOM      7  S   UNL     1       4.760   4.162  18.374  0.00  0.00    +0.000 S 
ATOM      8  O   UNL     1       6.019   4.343  19.073  0.00  0.00    +0.000 OA
ATOM      9  O   UNL     1       3.932   2.998  18.616  0.00  0.00    +0.000 OA
BRANCH   7  10
ATOM     10  C   UNL     1       5.099   4.253  16.631  0.00  0.00    +0.000 C 
BRANCH  10  11
ATOM     11  C   UNL     1       6.514   4.742  16.379  0.00  0.00    +0.000 C 
BRANCH  11  12
ATOM     12  C   UNL     1       6.868   4.602  14.921  0.00  0.00    +0.000 C 
ATOM     13  O   UNL     1       7.649   5.343  14.332  0.00  0.00    +0.000 OA
ATOM     14  N   UNL     1       6.228   3.565  14.293  0.00  0.00    +0.000 N 
ATOM     15  H   UNL     1       5.609   2.894  14.736  0.00  0.00    +0.000 HD
BRANCH  14  16
ATOM     16  O   UNL     1       6.528   3.367  12.928  0.00  0.00    +0.000 OA
ATOM     17  H   UNL     1       7.505   3.265  12.936  0.00  0.00    +0.000 HD
ENDBRANCH  14  16
ENDBRANCH  11  12
ENDBRANCH  10  11
ENDBRANCH   7  10
ENDBRANCH   4   7
BRANCH   1  18
ATOM     18  O   UNL     1       1.318   8.888  19.380  0.00  0.00    +0.000 OA
BRANCH  18  19
ATOM     19  C   UNL     1       1.169   9.849  18.334  0.00  0.00    +0.000 C 
BRANCH  19  27
ATOM     20  C   UNL     1       0.428  12.154  20.118  0.00  0.00    +0.000 C 
ATOM     21  C   UNL     1      -0.575  11.510  19.199  0.00  0.00    +0.000 A 
ATOM     22  C   UNL     1      -1.888  12.003  19.171  0.00  0.00    +0.000 A 
ATOM     23  C   UNL     1      -2.843  11.409  18.352  0.00  0.00    +0.000 A 
ATOM     24  F   UNL     1      -4.093  11.893  18.342  0.00  0.00    +0.000 F 
ATOM     25  C   UNL     1      -2.523  10.326  17.549  0.00  0.00    +0.000 A 
ATOM     26  C   UNL     1      -1.219   9.832  17.554  0.00  0.00    +0.000 A 
ATOM     27  C   UNL     1      -0.234  10.412  18.376  0.00  0.00    +0.000 A 
ENDBRANCH  19  27
ENDBRANCH  18  19
ENDBRANCH   1  18
TORSDOF 8
ENDMDL
MODEL 2
REMARK VINA RESULT:      -7.8      2.436      3.232
REMARK  Name = 
REMARK  9 active torsions:
REMARK  status: ('A' for Active; 'I' for Inactive)
REMARK    1  A    between atoms: C_1  and  C_2
REMARK    2  A    between atoms: C_8  and  C_9
REMARK    3  A    between atoms: C_9  and  O_10
REMARK    4  A    between atoms: O_10  and  C_11
REMARK    5  A    between atoms: C_14  and  S_15
REMARK    6  A    between atoms: S_15  and  C_18
REMARK    7  A    between atoms: C_18  and  C_19
REMARK    8  A    between atoms: C_19  and  C_20
REMARK    9  A    between atoms: N_22  and  O_23
REMARK                            x       y       z     vdW  Elec       q    Type
REMARK                         _______ _______ _______ _____ _____    ______ ____
ROOT
ATOM      1  C   UNL     1       3.608   6.648  18.610  0.00  0.00    +0.000 A 
ATOM      2  C   UNL     1       4.029   7.253  17.422  0.00  0.00    +0.000 A 
ATOM      3  C   UNL     1       5.053   6.681  16.669  0.00  0.00    +0.000 A 
ATOM      4  C   UNL     1       5.688   5.525  17.127  0.00  0.00    +0.000 A 
ATOM      5  C   UNL     1       5.298   4.926  18.325  0.00  0.00    +0.000 A 
ATOM      6  C   UNL     1       4.260   5.498  19.068  0.00  0.00    +0.000 A 
ENDROOT
BRANCH   4   7
ATOM      7  S   UNL     1       6.995   4.830  16.148  0.00  0.00    +0.000 S 
ATOM      8  O   UNL     1       7.481   5.861  15.250  0.00  0.00    +0.000 OA
ATOM      9  O   UNL     1       7.893   4.153  17.062  0.00  0.00    +0.000 OA
BRANCH   7  10
ATOM     10  C   UNL     1       6.176   3.602  15.158  0.00  0.00    +0.000 C 
BRANCH  10  11
ATOM     11  C   UNL     1       5.668   4.203  13.860  0.00  0.00    +0.000 C 
BRANCH  11  12
ATOM     12  C   UNL     1       6.478   3.698  12.694  0.00  0.00    +0.000 C 
ATOM     13  O   UNL     1       7.337   4.360  12.119  0.00  0.00    +0.000 OA
ATOM     14  N   UNL     1       6.166   2.418  12.315  0.00  0.00    +0.000 N 
ATOM     15  H   UNL     1       5.499   1.808  12.778  0.00  0.00    +0.000 HD
BRANCH  14  16
ATOM     16  O   UNL     1       6.900   1.877  11.238  0.00  0.00    +0.000 OA
ATOM     17  H   UNL     1       6.899   0.916  11.441  0.00  0.00    +0.000 HD
ENDBRANCH  14  16
ENDBRANCH  11  12
ENDBRANCH  10  11
ENDBRANCH   7  10
ENDBRANCH   4   7
BRANCH   1  18
ATOM     18  O   UNL     1       2.575   7.097  19.390  0.00  0.00    +0.000 OA
BRANCH  18  19
ATOM     19  C   UNL     1       1.905   8.262  18.906  0.00  0.00    +0.000 C 
BRANCH  19  27
ATOM     20  C   UNL     1       0.665  10.987  18.627  0.00  0.00    +0.000 C 
ATOM     21  C   UNL     1       0.608  10.220  19.921  0.00  0.00    +0.000 A 
ATOM     22  C   UNL     1      -0.046  10.791  21.023  0.00  0.00    +0.000 A 
ATOM     23  C   UNL     1      -0.090  10.116  22.239  0.00  0.00    +0.000 A 
ATOM     24  F   UNL     1      -0.717  10.680  23.280  0.00  0.00    +0.000 F 
ATOM     25  C   UNL     1       0.506   8.875  22.390  0.00  0.00    +0.000 A 
ATOM     26  C   UNL     1       1.147   8.286  21.301  0.00  0.00    +0.000 A 
ATOM     27  C   UNL     1       1.210   8.948  20.059  0.00  0.00    +0.000 A 
ENDBRANCH  19  27
ENDBRANCH  18  19
ENDBRANCH   1  18
TORSDOF 8
ENDMDL
MODEL 3
REMARK VINA RESULT:      -7.8      1.930      2.599
REMARK  Name = 
REMARK  9 active torsions:
REMARK  status: ('A' for Active; 'I' for Inactive)
REMARK    1  A    between atoms: C_1  and  C_2
REMARK    2  A    between atoms: C_8  and  C_9
REMARK    3  A    between atoms: C_9  and  O_10
REMARK    4  A    between atoms: O_10  and  C_11
REMARK    5  A    between atoms: C_14  and  S_15
REMARK    6  A    between atoms: S_15  and  C_18
REMARK    7  A    between atoms: C_18  and  C_19
REMARK    8  A    between atoms: C_19  and  C_20
REMARK    9  A    between atoms: N_22  and  O_23
REMARK                            x       y       z     vdW  Elec       q    Type
REMARK                         _______ _______ _______ _____ _____    ______ ____
ROOT
ATOM      1  C   UNL     1       1.233   9.567  19.183  0.00  0.00    +0.000 A 
ATOM      2  C   UNL     1       1.401   8.548  20.124  0.00  0.00    +0.000 A 
ATOM      3  C   UNL     1       2.172   7.429  19.815  0.00  0.00    +0.000 A 
ATOM      4  C   UNL     1       2.741   7.308  18.546  0.00  0.00    +0.000 A 
ATOM      5  C   UNL     1       2.557   8.303  17.586  0.00  0.00    +0.000 A 
ATOM      6  C   UNL     1       1.794   9.430  17.909  0.00  0.00    +0.000 A 
ENDROOT
BRANCH   4   7
ATOM      7  S   UNL     1       3.708   5.864  18.183  0.00  0.00    +0.000 S 
ATOM      8  O   UNL     1       4.642   5.663  19.276  0.00  0.00    +0.000 OA
ATOM      9  O   UNL     1       2.781   4.821  17.793  0.00  0.00    +0.000 OA
BRANCH   7  10
ATOM     10  C   UNL     1       4.652   6.335  16.753  0.00  0.00    +0.000 C 
BRANCH  10  11
ATOM     11  C   UNL     1       6.020   6.855  17.153  0.00  0.00    +0.000 C 
BRANCH  11  12
ATOM     12  C   UNL     1       7.080   5.825  16.863  0.00  0.00    +0.000 C 
ATOM     13  O   UNL     1       7.663   5.726  15.787  0.00  0.00    +0.000 OA
ATOM     14  N   UNL     1       7.340   4.985  17.915  0.00  0.00    +0.000 N 
ATOM     15  H   UNL     1       6.924   5.046  18.839  0.00  0.00    +0.000 HD
BRANCH  14  16
ATOM     16  O   UNL     1       8.336   4.005  17.716  0.00  0.00    +0.000 OA
ATOM     17  H   UNL     1       9.161   4.538  17.709  0.00  0.00    +0.000 HD
ENDBRANCH  14  16
ENDBRANCH  11  12
ENDBRANCH  10  11
ENDBRANCH   7  10
ENDBRANCH   4   7
BRANCH   1  18
ATOM     18  O   UNL     1       0.545  10.730  19.407  0.00  0.00    +0.000 OA
BRANCH  18  19
ATOM     19  C   UNL     1      -0.773  10.568  19.936  0.00  0.00    +0.000 C 
BRANCH  19  27
ATOM     20  C   UNL     1      -2.991  12.599  20.020  0.00  0.00    +0.000 C 
ATOM     21  C   UNL     1      -2.805  11.677  18.844  0.00  0.00    +0.000 A 
ATOM     22  C   UNL     1      -3.687  11.773  17.758  0.00  0.00    +0.000 A 
ATOM     23  C   UNL     1      -3.557  10.915  16.670  0.00  0.00    +0.000 A 
ATOM     24  F   UNL     1      -4.411  11.021  15.644  0.00  0.00    +0.000 F 
ATOM     25  C   UNL     1      -2.560   9.953  16.634  0.00  0.00    +0.000 A 
ATOM     26  C   UNL     1      -1.665   9.854  17.698  0.00  0.00    +0.000 A 
ATOM     27  C   UNL     1      -1.777  10.707  18.813  0.00  0.00    +0.000 A 
ENDBRANCH  19  27
ENDBRANCH  18  19
ENDBRANCH   1  18
TORSDOF 8
ENDMDL
MODEL 4
REMARK VINA RESULT:      -7.7      1.589      1.957
REMARK  Name = 
REMARK  9 active torsions:
REMARK  status: ('A' for Active; 'I' for Inactive)
REMARK    1  A    between atoms: C_1  and  C_2
REMARK    2  A    between atoms: C_8  and  C_9
REMARK    3  A    between atoms: C_9  and  O_10
REMARK    4  A    between atoms: O_10  and  C_11
REMARK    5  A    between atoms: C_14  and  S_15
REMARK    6  A    between atoms: S_15  and  C_18
REMARK    7  A    between atoms: C_18  and  C_19
REMARK    8  A    between atoms: C_19  and  C_20
REMARK    9  A    between atoms: N_22  and  O_23
REMARK                            x       y       z     vdW  Elec       q    Type
REMARK                         _______ _______ _______ _____ _____    ______ ____
ROOT
ATOM      1  C   UNL     1       2.203   7.852  19.037  0.00  0.00    +0.000 A 
ATOM      2  C   UNL     1       3.037   7.747  17.919  0.00  0.00    +0.000 A 
ATOM      3  C   UNL     1       3.749   6.572  17.685  0.00  0.00    +0.000 A 
ATOM      4  C   UNL     1       3.663   5.516  18.593  0.00  0.00    +0.000 A 
ATOM      5  C   UNL     1       2.858   5.617  19.728  0.00  0.00    +0.000 A 
ATOM      6  C   UNL     1       2.135   6.794  19.949  0.00  0.00    +0.000 A 
ENDROOT
BRANCH   4   7
ATOM      7  S   UNL     1       4.592   4.039  18.269  0.00  0.00    +0.000 S 
ATOM      8  O   UNL     1       5.599   3.905  19.305  0.00  0.00    +0.000 OA
ATOM      9  O   UNL     1       3.633   2.982  18.019  0.00  0.00    +0.000 OA
BRANCH   7  10
ATOM     10  C   UNL     1       5.437   4.396  16.746  0.00  0.00    +0.000 C 
BRANCH  10  11
ATOM     11  C   UNL     1       6.942   4.377  16.943  0.00  0.00    +0.000 C 
BRANCH  11  12
ATOM     12  C   UNL     1       7.449   5.760  17.262  0.00  0.00    +0.000 C 
ATOM     13  O   UNL     1       7.505   6.674  16.445  0.00  0.00    +0.000 OA
ATOM     14  N   UNL     1       7.858   5.914  18.561  0.00  0.00    +0.000 N 
ATOM     15  H   UNL     1       7.794   5.211  19.291  0.00  0.00    +0.000 HD
BRANCH  14  16
ATOM     16  O   UNL     1       8.329   7.192  18.932  0.00  0.00    +0.000 OA
ATOM     17  H   UNL     1       9.006   6.980  19.612  0.00  0.00    +0.000 HD
ENDBRANCH  14  16
ENDBRANCH  11  12
ENDBRANCH  10  11
ENDBRANCH   7  10
ENDBRANCH   4   7
BRANCH   1  18
ATOM     18  O   UNL     1       1.419   8.938  19.325  0.00  0.00    +0.000 OA
BRANCH  18  19
ATOM     19  C   UNL     1       1.153   9.809  18.224  0.00  0.00    +0.000 C 
BRANCH  19  27
ATOM     20  C   UNL     1       0.558  12.036  20.157  0.00  0.00    +0.000 C 
ATOM     21  C   UNL     1      -0.508  11.451  19.269  0.00  0.00    +0.000 A 
ATOM     22  C   UNL     1      -1.812  11.964  19.343  0.00  0.00    +0.000 A 
ATOM     23  C   UNL     1      -2.824  11.424  18.555  0.00  0.00    +0.000 A 
ATOM     24  F   UNL     1      -4.063  11.926  18.642  0.00  0.00    +0.000 F 
ATOM     25  C   UNL     1      -2.570  10.376  17.685  0.00  0.00    +0.000 A 
ATOM     26  C   UNL     1      -1.277   9.864  17.588  0.00  0.00    +0.000 A 
ATOM     27  C   UNL     1      -0.235  10.390  18.377  0.00  0.00    +0.000 A 
ENDBRANCH  19  27
ENDBRANCH  18  19
ENDBRANCH   1  18
TORSDOF 8
ENDMDL
MODEL 5
REMARK VINA RESULT:      -7.7      1.226      2.061
REMARK  Name = 
REMARK  9 active torsions:
REMARK  status: ('A' for Active; 'I' for Inactive)
REMARK    1  A    between atoms: C_1  and  C_2
REMARK    2  A    between atoms: C_8  and  C_9
REMARK    3  A    between atoms: C_9  and  O_10
REMARK    4  A    between atoms: O_10  and  C_11
REMARK    5  A    between atoms: C_14  and  S_15
REMARK    6  A    between atoms: S_15  and  C_18
REMARK    7  A    between atoms: C_18  and  C_19
REMARK    8  A    between atoms: C_19  and  C_20
REMARK    9  A    between atoms: N_22  and  O_23
REMARK                            x       y       z     vdW  Elec       q    Type
REMARK                         _______ _______ _______ _____ _____    ______ ____
ROOT
ATOM      1  C   UNL     1       2.181   8.067  18.868  0.00  0.00    +0.000 A 
ATOM      2  C   UNL     1       3.015   7.903  17.758  0.00  0.00    +0.000 A 
ATOM      3  C   UNL     1       3.719   6.714  17.580  0.00  0.00    +0.000 A 
ATOM      4  C   UNL     1       3.622   5.701  18.537  0.00  0.00    +0.000 A 
ATOM      5  C   UNL     1       2.816   5.862  19.664  0.00  0.00    +0.000 A 
ATOM      6  C   UNL     1       2.101   7.053  19.828  0.00  0.00    +0.000 A 
ENDROOT
BRANCH   4   7
ATOM      7  S   UNL     1       4.540   4.203  18.284  0.00  0.00    +0.000 S 
ATOM      8  O   UNL     1       5.804   4.327  18.986  0.00  0.00    +0.000 OA
ATOM      9  O   UNL     1       3.638   3.103  18.559  0.00  0.00    +0.000 OA
BRANCH   7  10
ATOM     10  C   UNL     1       4.893   4.213  16.542  0.00  0.00    +0.000 C 
BRANCH  10  11
ATOM     11  C   UNL     1       6.362   3.931  16.285  0.00  0.00    +0.000 C 
BRANCH  11  12
ATOM     12  C   UNL     1       7.080   5.195  15.890  0.00  0.00    +0.000 C 
ATOM     13  O   UNL     1       7.464   5.437  14.749  0.00  0.00    +0.000 OA
ATOM     14  N   UNL     1       7.281   6.066  16.929  0.00  0.00    +0.000 N 
ATOM     15  H   UNL     1       6.949   5.942  17.880  0.00  0.00    +0.000 HD
BRANCH  14  16
ATOM     16  O   UNL     1       7.934   7.279  16.625  0.00  0.00    +0.000 OA
ATOM     17  H   UNL     1       7.693   7.849  17.387  0.00  0.00    +0.000 HD
ENDBRANCH  14  16
ENDBRANCH  11  12
ENDBRANCH  10  11
ENDBRANCH   7  10
ENDBRANCH   4   7
BRANCH   1  18
ATOM     18  O   UNL     1       1.404   9.171  19.103  0.00  0.00    +0.000 OA
BRANCH  18  19
ATOM     19  C   UNL     1       0.462   9.486  18.076  0.00  0.00    +0.000 C 
BRANCH  19  27
ATOM     20  C   UNL     1      -2.158   9.982  16.685  0.00  0.00    +0.000 C 
ATOM     21  C   UNL     1      -1.811  10.657  17.986  0.00  0.00    +0.000 A 
ATOM     22  C   UNL     1      -2.738  11.536  18.564  0.00  0.00    +0.000 A 
ATOM     23  C   UNL     1      -2.434  12.195  19.751  0.00  0.00    +0.000 A 
ATOM     24  F   UNL     1      -3.332  13.033  20.287  0.00  0.00    +0.000 F 
ATOM     25  C   UNL     1      -1.217  12.001  20.385  0.00  0.00    +0.000 A 
ATOM     26  C   UNL     1      -0.289  11.120  19.831  0.00  0.00    +0.000 A 
ATOM     27  C   UNL     1      -0.571  10.442  18.629  0.00  0.00    +0.000 A 
ENDBRANCH  19  27
ENDBRANCH  18  19
ENDBRANCH   1  18
TORSDOF 8
ENDMDL
MODEL 6
REMARK VINA RESULT:      -7.7      2.083      2.939
REMARK  Name = 
REMARK  9 active torsions:
REMARK  status: ('A' for Active; 'I' for Inactive)
REMARK    1  A    between atoms: C_1  and  C_2
REMARK    2  A    between atoms: C_8  and  C_9
REMARK    3  A    between atoms: C_9  and  O_10
REMARK    4  A    between atoms: O_10  and  C_11
REMARK    5  A    between atoms: C_14  and  S_15
REMARK    6  A    between atoms: S_15  and  C_18
REMARK    7  A    between atoms: C_18  and  C_19
REMARK    8  A    between atoms: C_19  and  C_20
REMARK    9  A    between atoms: N_22  and  O_23
REMARK                            x       y       z     vdW  Elec       q    Type
REMARK                         _______ _______ _______ _____ _____    ______ ____
ROOT
ATOM      1  C   UNL     1       1.699   6.592  20.403  0.00  0.00    +0.000 A 
ATOM      2  C   UNL     1       1.962   5.300  20.866  0.00  0.00    +0.000 A 
ATOM      3  C   UNL     1       2.894   4.496  20.213  0.00  0.00    +0.000 A 
ATOM      4  C   UNL     1       3.535   4.970  19.067  0.00  0.00    +0.000 A 
ATOM      5  C   UNL     1       3.262   6.247  18.575  0.00  0.00    +0.000 A 
ATOM      6  C   UNL     1       2.335   7.052  19.245  0.00  0.00    +0.000 A 
ENDROOT
BRANCH   4   7
ATOM      7  S   UNL     1       4.710   3.916  18.254  0.00  0.00    +0.000 S 
ATOM      8  O   UNL     1       6.005   4.126  18.874  0.00  0.00    +0.000 OA
ATOM      9  O   UNL     1       4.118   2.595  18.190  0.00  0.00    +0.000 OA
BRANCH   7  10
ATOM     10  C   UNL     1       4.794   4.570  16.604  0.00  0.00    +0.000 C 
BRANCH  10  11
ATOM     11  C   UNL     1       6.019   4.047  15.875  0.00  0.00    +0.000 C 
BRANCH  11  12
ATOM     12  C   UNL     1       7.002   5.161  15.630  0.00  0.00    +0.000 C 
ATOM     13  O   UNL     1       7.658   5.280  14.599  0.00  0.00    +0.000 OA
ATOM     14  N   UNL     1       7.114   6.042  16.674  0.00  0.00    +0.000 N 
ATOM     15  H   UNL     1       6.567   6.021  17.529  0.00  0.00    +0.000 HD
BRANCH  14  16
ATOM     16  O   UNL     1       8.007   7.121  16.502  0.00  0.00    +0.000 OA
ATOM     17  H   UNL     1       8.830   6.785  16.920  0.00  0.00    +0.000 HD
ENDBRANCH  14  16
ENDBRANCH  11  12
ENDBRANCH  10  11
ENDBRANCH   7  10
ENDBRANCH   4   7
BRANCH   1  18
ATOM     18  O   UNL     1       0.846   7.479  21.005  0.00  0.00    +0.000 OA
BRANCH  18  19
ATOM     19  C   UNL     1       1.472   8.608  21.617  0.00  0.00    +0.000 C 
BRANCH  19  27
ATOM     20  C   UNL     1       0.941  10.539  19.373  0.00  0.00    +0.000 C 
ATOM     21  C   UNL     1       0.197  10.619  20.679  0.00  0.00    +0.000 A 
ATOM     22  C   UNL     1      -0.773  11.618  20.850  0.00  0.00    +0.000 A 
ATOM     23  C   UNL     1      -1.457  11.733  22.056  0.00  0.00    +0.000 A 
ATOM     24  F   UNL     1      -2.378  12.695  22.200  0.00  0.00    +0.000 F 
ATOM     25  C   UNL     1      -1.199  10.870  23.110  0.00  0.00    +0.000 A 
ATOM     26  C   UNL     1      -0.248   9.863  22.952  0.00  0.00    +0.000 A 
ATOM     27  C   UNL     1       0.461   9.726  21.743  0.00  0.00    +0.000 A 
ENDBRANCH  19  27
ENDBRANCH  18  19
ENDBRANCH   1  18
TORSDOF 8
ENDMDL
MODEL 7
REMARK VINA RESULT:      -7.7      4.720      8.811
REMARK  Name = 
REMARK  9 active torsions:
REMARK  status: ('A' for Active; 'I' for Inactive)
REMARK    1  A    between atoms: C_1  and  C_2
REMARK    2  A    between atoms: C_8  and  C_9
REMARK    3  A    between atoms: C_9  and  O_10
REMARK    4  A    between atoms: O_10  and  C_11
REMARK    5  A    between atoms: C_14  and  S_15
REMARK    6  A    between atoms: S_15  and  C_18
REMARK    7  A    between atoms: C_18  and  C_19
REMARK    8  A    between atoms: C_19  and  C_20
REMARK    9  A    between atoms: N_22  and  O_23
REMARK                            x       y       z     vdW  Elec       q    Type
REMARK                         _______ _______ _______ _____ _____    ______ ____
ROOT
ATOM      1  C   UNL     1       2.345   6.887  19.073  0.00  0.00    +0.000 A 
ATOM      2  C   UNL     1       2.224   7.889  18.105  0.00  0.00    +0.000 A 
ATOM      3  C   UNL     1       1.723   9.141  18.453  0.00  0.00    +0.000 A 
ATOM      4  C   UNL     1       1.301   9.380  19.763  0.00  0.00    +0.000 A 
ATOM      5  C   UNL     1       1.390   8.381  20.732  0.00  0.00    +0.000 A 
ATOM      6  C   UNL     1       1.907   7.131  20.379  0.00  0.00    +0.000 A 
ENDROOT
BRANCH   4   7
ATOM      7  S   UNL     1       0.658  10.985  20.168  0.00  0.00    +0.000 S 
ATOM      8  O   UNL     1       0.671  11.121  21.613  0.00  0.00    +0.000 OA
ATOM      9  O   UNL     1       1.344  11.940  19.322  0.00  0.00    +0.000 OA
BRANCH   7  10
ATOM     10  C   UNL     1      -1.041  10.902  19.654  0.00  0.00    +0.000 C 
BRANCH  10  11
ATOM     11  C   UNL     1      -1.263  11.703  18.384  0.00  0.00    +0.000 C 
BRANCH  11  12
ATOM     12  C   UNL     1      -1.985  10.872  17.356  0.00  0.00    +0.000 C 
ATOM     13  O   UNL     1      -2.310   9.701  17.528  0.00  0.00    +0.000 OA
ATOM     14  N   UNL     1      -2.246  11.540  16.187  0.00  0.00    +0.000 N 
ATOM     15  H   UNL     1      -2.042  12.517  16.004  0.00  0.00    +0.000 HD
BRANCH  14  16
ATOM     16  O   UNL     1      -2.936  10.823  15.186  0.00  0.00    +0.000 OA
ATOM     17  H   UNL     1      -3.530  10.242  15.710  0.00  0.00    +0.000 HD
ENDBRANCH  14  16
ENDBRANCH  11  12
ENDBRANCH  10  11
ENDBRANCH   7  10
ENDBRANCH   4   7
BRANCH   1  18
ATOM     18  O   UNL     1       2.878   5.645  18.847  0.00  0.00    +0.000 OA
BRANCH  18  19
ATOM     19  C   UNL     1       4.234   5.477  19.263  0.00  0.00    +0.000 C 
BRANCH  19  27
ATOM     20  C   UNL     1       7.235   5.665  19.340  0.00  0.00    +0.000 C 
ATOM     21  C   UNL     1       6.500   5.239  18.097  0.00  0.00    +0.000 A 
ATOM     22  C   UNL     1       7.236   4.917  16.948  0.00  0.00    +0.000 A 
ATOM     23  C   UNL     1       6.582   4.546  15.776  0.00  0.00    +0.000 A 
ATOM     24  F   UNL     1       7.303   4.244  14.688  0.00  0.00    +0.000 F 
ATOM     25  C   UNL     1       5.199   4.487  15.718  0.00  0.00    +0.000 A 
ATOM     26  C   UNL     1       4.452   4.790  16.855  0.00  0.00    +0.000 A 
ATOM     27  C   UNL     1       5.089   5.171  18.053  0.00  0.00    +0.000 A 
ENDBRANCH  19  27
ENDBRANCH  18  19
ENDBRANCH   1  18
TORSDOF 8
ENDMDL
MODEL 8
REMARK VINA RESULT:      -7.7      0.773      1.363
REMARK  Name = 
REMARK  9 active torsions:
REMARK  status: ('A' for Active; 'I' for Inactive)
REMARK    1  A    between atoms: C_1  and  C_2
REMARK    2  A    between atoms: C_8  and  C_9
REMARK    3  A    between atoms: C_9  and  O_10
REMARK    4  A    between atoms: O_10  and  C_11
REMARK    5  A    between atoms: C_14  and  S_15
REMARK    6  A    between atoms: S_15  and  C_18
REMARK    7  A    between atoms: C_18  and  C_19
REMARK    8  A    between atoms: C_19  and  C_20
REMARK    9  A    between atoms: N_22  and  O_23
REMARK                            x       y       z     vdW  Elec       q    Type
REMARK                         _______ _______ _______ _____ _____    ______ ____
ROOT
ATOM      1  C   UNL     1       1.971   7.565  19.639  0.00  0.00    +0.000 A 
ATOM      2  C   UNL     1       1.960   6.438  20.466  0.00  0.00    +0.000 A 
ATOM      3  C   UNL     1       2.721   5.319  20.136  0.00  0.00    +0.000 A 
ATOM      4  C   UNL     1       3.463   5.309  18.953  0.00  0.00    +0.000 A 
ATOM      5  C   UNL     1       3.461   6.415  18.103  0.00  0.00    +0.000 A 
ATOM      6  C   UNL     1       2.705   7.540  18.448  0.00  0.00    +0.000 A 
ENDROOT
BRANCH   4   7
ATOM      7  S   UNL     1       4.413   3.862  18.559  0.00  0.00    +0.000 S 
ATOM      8  O   UNL     1       5.671   3.942  19.277  0.00  0.00    +0.000 OA
ATOM      9  O   UNL     1       3.533   2.722  18.719  0.00  0.00    +0.000 OA
BRANCH   7  10
ATOM     10  C   UNL     1       4.773   4.051  16.828  0.00  0.00    +0.000 C 
BRANCH  10  11
ATOM     11  C   UNL     1       6.230   4.421  16.615  0.00  0.00    +0.000 C 
BRANCH  11  12
ATOM     12  C   UNL     1       6.492   4.709  15.159  0.00  0.00    +0.000 C 
ATOM     13  O   UNL     1       5.722   4.407  14.252  0.00  0.00    +0.000 OA
ATOM     14  N   UNL     1       7.686   5.340  14.926  0.00  0.00    +0.000 N 
ATOM     15  H   UNL     1       8.340   5.653  15.636  0.00  0.00    +0.000 HD
BRANCH  14  16
ATOM     16  O   UNL     1       7.987   5.655  13.583  0.00  0.00    +0.000 OA
ATOM     17  H   UNL     1       7.099   5.673  13.164  0.00  0.00    +0.000 HD
ENDBRANCH  14  16
ENDBRANCH  11  12
ENDBRANCH  10  11
ENDBRANCH   7  10
ENDBRANCH   4   7
BRANCH   1  18
ATOM     18  O   UNL     1       1.305   8.732  19.903  0.00  0.00    +0.000 OA
BRANCH  18  19
ATOM     19  C   UNL     1       1.349   9.710  18.861  0.00  0.00    +0.000 C 
BRANCH  19  27
ATOM     20  C   UNL     1       0.333  11.992  20.536  0.00  0.00    +0.000 C 
ATOM     21  C   UNL     1      -0.501  11.379  19.442  0.00  0.00    +0.000 A 
ATOM     22  C   UNL     1      -1.783  11.891  19.196  0.00  0.00    +0.000 A 
ATOM     23  C   UNL     1      -2.587  11.327  18.210  0.00  0.00    +0.000 A 
ATOM     24  F   UNL     1      -3.810  11.828  17.992  0.00  0.00    +0.000 F 
ATOM     25  C   UNL     1      -2.143  10.254  17.454  0.00  0.00    +0.000 A 
ATOM     26  C   UNL     1      -0.865   9.742  17.676  0.00  0.00    +0.000 A 
ATOM     27  C   UNL     1      -0.033  10.292  18.669  0.00  0.00    +0.000 A 
ENDBRANCH  19  27
ENDBRANCH  18  19
ENDBRANCH   1  18
TORSDOF 8
ENDMDL
MODEL 9
REMARK VINA RESULT:      -7.6      0.500      1.095
REMARK  Name = 
REMARK  9 active torsions:
REMARK  status: ('A' for Active; 'I' for Inactive)
REMARK    1  A    between atoms: C_1  and  C_2
REMARK    2  A    between atoms: C_8  and  C_9
REMARK    3  A    between atoms: C_9  and  O_10
REMARK    4  A    between atoms: O_10  and  C_11
REMARK    5  A    between atoms: C_14  and  S_15
REMARK    6  A    between atoms: S_15  and  C_18
REMARK    7  A    between atoms: C_18  and  C_19
REMARK    8  A    between atoms: C_19  and  C_20
REMARK    9  A    between atoms: N_22  and  O_23
REMARK                            x       y       z     vdW  Elec       q    Type
REMARK                         _______ _______ _______ _____ _____    ______ ____
ROOT
ATOM      1  C   UNL     1       2.157   7.773  19.110  0.00  0.00    +0.000 A 
ATOM      2  C   UNL     1       2.215   6.662  19.956  0.00  0.00    +0.000 A 
ATOM      3  C   UNL     1       3.053   5.591  19.651  0.00  0.00    +0.000 A 
ATOM      4  C   UNL     1       3.802   5.612  18.473  0.00  0.00    +0.000 A 
ATOM      5  C   UNL     1       3.733   6.701  17.604  0.00  0.00    +0.000 A 
ATOM      6  C   UNL     1       2.901   7.778  17.925  0.00  0.00    +0.000 A 
ENDROOT
BRANCH   4   7
ATOM      7  S   UNL     1       4.851   4.226  18.109  0.00  0.00    +0.000 S 
ATOM      8  O   UNL     1       5.710   4.000  19.257  0.00  0.00    +0.000 OA
ATOM      9  O   UNL     1       3.997   3.173  17.597  0.00  0.00    +0.000 OA
BRANCH   7  10
ATOM     10  C   UNL     1       5.877   4.809  16.780  0.00  0.00    +0.000 C 
BRANCH  10  11
ATOM     11  C   UNL     1       6.177   3.692  15.798  0.00  0.00    +0.000 C 
BRANCH  11  12
ATOM     12  C   UNL     1       6.704   4.256  14.504  0.00  0.00    +0.000 C 
ATOM     13  O   UNL     1       7.398   5.265  14.429  0.00  0.00    +0.000 OA
ATOM     14  N   UNL     1       6.330   3.542  13.395  0.00  0.00    +0.000 N 
ATOM     15  H   UNL     1       5.797   2.678  13.398  0.00  0.00    +0.000 HD
BRANCH  14  16
ATOM     16  O   UNL     1       6.804   4.007  12.150  0.00  0.00    +0.000 OA
ATOM     17  H   UNL     1       6.404   4.901  12.089  0.00  0.00    +0.000 HD
ENDBRANCH  14  16
ENDBRANCH  11  12
ENDBRANCH  10  11
ENDBRANCH   7  10
ENDBRANCH   4   7
BRANCH   1  18
ATOM     18  O   UNL     1       1.413   8.898  19.350  0.00  0.00    +0.000 OA
BRANCH  18  19
ATOM     19  C   UNL     1       1.196   9.740  18.216  0.00  0.00    +0.000 C 
BRANCH  19  27
ATOM     20  C   UNL     1       0.452  12.044  20.002  0.00  0.00    +0.000 C 
ATOM     21  C   UNL     1      -0.554  11.388  19.093  0.00  0.00    +0.000 A 
ATOM     22  C   UNL     1      -1.871  11.870  19.078  0.00  0.00    +0.000 A 
ATOM     23  C   UNL     1      -2.829  11.266  18.268  0.00  0.00    +0.000 A 
ATOM     24  F   UNL     1      -4.082  11.739  18.269  0.00  0.00    +0.000 F 
ATOM     25  C   UNL     1      -2.507  10.183  17.466  0.00  0.00    +0.000 A 
ATOM     26  C   UNL     1      -1.199   9.701  17.459  0.00  0.00    +0.000 A 
ATOM     27  C   UNL     1      -0.211  10.291  18.270  0.00  0.00    +0.000 A 
ENDBRANCH  19  27
ENDBRANCH  18  19
ENDBRANCH   1  18
TORSDOF 8
ENDMDL
