MODEL 1
REMARK VINA RESULT:      -7.8      0.000      0.000
REMARK  Name = 
REMARK  4 active torsions:
REMARK  status: ('A' for Active; 'I' for Inactive)
REMARK    1  A    between atoms: C_2  and  C_3
REMARK    2  A    between atoms: C_3  and  C_4
REMARK    3  A    between atoms: N_17  and  C_18
REMARK    4  A    between atoms: C_18  and  C_19
REMARK                            x       y       z     vdW  Elec       q    Type
REMARK                         _______ _______ _______ _____ _____    ______ ____
ROOT
ATOM      1  O   UNL     1       4.520   4.553  15.179  0.00  0.00    +0.000 OA
ATOM      2  C   UNL     1       4.895   3.961  16.196  0.00  0.00    +0.000 C 
ATOM      3  N   UNL     1       3.992   3.330  17.052  0.00  0.00    +0.000 N 
ATOM      4  C   UNL     1       4.368   2.626  18.284  0.00  0.00    +0.000 C 
ATOM      5  C   UNL     1       3.801   3.262  19.566  0.00  0.00    +0.000 C 
ATOM      6  C   UNL     1       2.349   2.841  19.816  0.00  0.00    +0.000 C 
ATOM      7  C   UNL     1       1.334   3.712  19.080  0.00  0.00    +0.000 C 
ATOM      8  C   UNL     1       1.997   4.551  17.982  0.00  0.00    +0.000 C 
ATOM      9  C   UNL     1       2.565   3.622  16.866  0.00  0.00    +0.000 C 
ATOM     10  N   UNL     1       3.032   5.388  18.619  0.00  0.00    +0.000 N 
ATOM     11  C   UNL     1       3.954   4.775  19.467  0.00  0.00    +0.000 C 
ATOM     12  O   UNL     1       4.892   5.357  20.005  0.00  0.00    +0.000 OA
ENDROOT
BRANCH   2  13
ATOM     13  C   UNL     1       6.377   3.920  16.532  0.00  0.00    +0.000 C 
BRANCH  13  14
ATOM     14  C   UNL     1       6.894   5.158  17.223  0.00  0.00    +0.000 A 
ATOM     15  C   UNL     1       7.667   5.093  18.386  0.00  0.00    +0.000 A 
ATOM     16  C   UNL     1       8.149   6.273  18.935  0.00  0.00    +0.000 A 
ATOM     17  N   UNL     1       7.923   7.494  18.409  0.00  0.00    +0.000 NA
ATOM     18  C   UNL     1       7.190   7.539  17.278  0.00  0.00    +0.000 A 
ATOM     19  C   UNL     1       6.664   6.415  16.652  0.00  0.00    +0.000 A 
ENDBRANCH  13  14
ENDBRANCH   2  13
BRANCH  10  20
ATOM     20  C   UNL     1       3.337   6.709  18.069  0.00  0.00    +0.000 C 
BRANCH  20  21
ATOM     21  C   UNL     1       2.468   7.833  18.581  0.00  0.00    +0.000 A 
ATOM     22  C   UNL     1       1.998   8.834  17.718  0.00  0.00    +0.000 A 
ATOM     23  C   UNL     1       1.094   9.801  18.169  0.00  0.00    +0.000 A 
ATOM     24  C   UNL     1       0.640   9.774  19.487  0.00  0.00    +0.000 A 
ATOM     25  C   UNL     1       1.092   8.783  20.355  0.00  0.00    +0.000 A 
ATOM     26  C   UNL     1       2.002   7.821  19.906  0.00  0.00    +0.000 A 
ENDBRANCH  20  21
ENDBRANCH  10  20
TORSDOF 4
ENDMDL
MODEL 2
REMARK VINA RESULT:      -7.7      0.132      1.325
REMARK  Name = 
REMARK  4 active torsions:
REMARK  status: ('A' for Active; 'I' for Inactive)
REMARK    1  A    between atoms: C_2  and  C_3
REMARK    2  A    between atoms: C_3  and  C_4
REMARK    3  A    between atoms: N_17  and  C_18
REMARK    4  A    between atoms: C_18  and  C_19
REMARK                            x       y       z     vdW  Elec       q    Type
REMARK                         _______ _______ _______ _____ _____    ______ ____
ROOT
ATOM      1  O   UNL     1       4.634   4.667  15.190  0.00  0.00    +0.000 OA
ATOM      2  C   UNL     1       4.989   4.023  16.182  0.00  0.00    +0.000 C 
ATOM      3  N   UNL     1       4.070   3.354  16.990  0.00  0.00    +0.000 N 
ATOM      4  C   UNL     1       4.422   2.587  18.192  0.00  0.00    +0.000 C 
ATOM      5  C   UNL     1       3.835   3.161  19.494  0.00  0.00    +0.000 C 
ATOM      6  C   UNL     1       2.377   2.733  19.698  0.00  0.00    +0.000 C 
ATOM      7  C   UNL     1       1.377   3.644  18.988  0.00  0.00    +0.000 C 
ATOM      8  C   UNL     1       2.063   4.535  17.945  0.00  0.00    +0.000 C 
ATOM      9  C   UNL     1       2.647   3.661  16.794  0.00  0.00    +0.000 C 
ATOM     10  N   UNL     1       3.089   5.334  18.642  0.00  0.00    +0.000 N 
ATOM     11  C   UNL     1       3.994   4.676  19.474  0.00  0.00    +0.000 C 
ATOM     12  O   UNL     1       4.924   5.226  20.056  0.00  0.00    +0.000 OA
ENDROOT
BRANCH   2  13
ATOM     13  C   UNL     1       6.465   3.959  16.541  0.00  0.00    +0.000 C 
BRANCH  13  14
ATOM     14  C   UNL     1       7.008   5.217  17.172  0.00  0.00    +0.000 A 
ATOM     15  C   UNL     1       6.796   6.482  16.613  0.00  0.00    +0.000 A 
ATOM     16  C   UNL     1       7.284   7.597  17.281  0.00  0.00    +0.000 A 
ATOM     17  N   UNL     1       7.951   7.541  18.451  0.00  0.00    +0.000 NA
ATOM     18  C   UNL     1       8.131   6.316  18.986  0.00  0.00    +0.000 A 
ATOM     19  C   UNL     1       7.682   5.141  18.397  0.00  0.00    +0.000 A 
ENDBRANCH  13  14
ENDBRANCH   2  13
BRANCH  10  20
ATOM     20  C   UNL     1       3.408   6.679  18.164  0.00  0.00    +0.000 C 
BRANCH  20  21
ATOM     21  C   UNL     1       2.445   7.760  18.599  0.00  0.00    +0.000 A 
ATOM     22  C   UNL     1       1.949   7.801  19.910  0.00  0.00    +0.000 A 
ATOM     23  C   UNL     1       1.158   8.871  20.342  0.00  0.00    +0.000 A 
ATOM     24  C   UNL     1       0.861   9.918  19.471  0.00  0.00    +0.000 A 
ATOM     25  C   UNL     1       1.352   9.895  18.168  0.00  0.00    +0.000 A 
ATOM     26  C   UNL     1       2.136   8.822  17.733  0.00  0.00    +0.000 A 
ENDBRANCH  20  21
ENDBRANCH  10  20
TORSDOF 4
ENDMDL
MODEL 3
REMARK VINA RESULT:      -7.5      1.259      1.555
REMARK  Name = 
REMARK  4 active torsions:
REMARK  status: ('A' for Active; 'I' for Inactive)
REMARK    1  A    between atoms: C_2  and  C_3
REMARK    2  A    between atoms: C_3  and  C_4
REMARK    3  A    between atoms: N_17  and  C_18
REMARK    4  A    between atoms: C_18  and  C_19
REMARK                            x       y       z     vdW  Elec       q    Type
REMARK                         _______ _______ _______ _____ _____    ______ ____
ROOT
ATOM      1  O   UNL     1       2.407   3.544  16.081  0.00  0.00    +0.000 OA
ATOM      2  C   UNL     1       3.212   3.152  16.931  0.00  0.00    +0.000 C 
ATOM      3  N   UNL     1       2.801   2.746  18.200  0.00  0.00    +0.000 N 
ATOM      4  C   UNL     1       3.706   2.287  19.262  0.00  0.00    +0.000 C 
ATOM      5  C   UNL     1       3.719   3.192  20.507  0.00  0.00    +0.000 C 
ATOM      6  C   UNL     1       2.540   2.893  21.439  0.00  0.00    +0.000 C 
ATOM      7  C   UNL     1       1.265   3.643  21.057  0.00  0.00    +0.000 C 
ATOM      8  C   UNL     1       1.347   4.214  19.637  0.00  0.00    +0.000 C 
ATOM      9  C   UNL     1       1.421   3.057  18.596  0.00  0.00    +0.000 C 
ATOM     10  N   UNL     1       2.514   5.116  19.583  0.00  0.00    +0.000 N 
ATOM     11  C   UNL     1       3.740   4.646  20.052  0.00  0.00    +0.000 C 
ATOM     12  O   UNL     1       4.790   5.282  20.003  0.00  0.00    +0.000 OA
ENDROOT
BRANCH   2  13
ATOM     13  C   UNL     1       4.694   3.114  16.593  0.00  0.00    +0.000 C 
BRANCH  13  14
ATOM     14  C   UNL     1       5.408   4.431  16.773  0.00  0.00    +0.000 A 
ATOM     15  C   UNL     1       6.686   4.514  17.335  0.00  0.00    +0.000 A 
ATOM     16  C   UNL     1       7.298   5.758  17.421  0.00  0.00    +0.000 A 
ATOM     17  N   UNL     1       6.737   6.903  16.986  0.00  0.00    +0.000 NA
ATOM     18  C   UNL     1       5.512   6.804  16.430  0.00  0.00    +0.000 A 
ATOM     19  C   UNL     1       4.817   5.608  16.299  0.00  0.00    +0.000 A 
ENDBRANCH  13  14
ENDBRANCH   2  13
BRANCH  10  20
ATOM     20  C   UNL     1       2.487   6.285  18.704  0.00  0.00    +0.000 C 
BRANCH  20  21
ATOM     21  C   UNL     1       1.981   7.557  19.343  0.00  0.00    +0.000 A 
ATOM     22  C   UNL     1       1.721   8.700  18.572  0.00  0.00    +0.000 A 
ATOM     23  C   UNL     1       1.135   9.832  19.148  0.00  0.00    +0.000 A 
ATOM     24  C   UNL     1       0.793   9.834  20.499  0.00  0.00    +0.000 A 
ATOM     25  C   UNL     1       1.040   8.704  21.276  0.00  0.00    +0.000 A 
ATOM     26  C   UNL     1       1.631   7.575  20.704  0.00  0.00    +0.000 A 
ENDBRANCH  20  21
ENDBRANCH  10  20
TORSDOF 4
ENDMDL
MODEL 4
REMARK VINA RESULT:      -7.4      1.403      1.875
REMARK  Name = 
REMARK  4 active torsions:
REMARK  status: ('A' for Active; 'I' for Inactive)
REMARK    1  A    between atoms: C_2  and  C_3
REMARK    2  A    between atoms: C_3  and  C_4
REMARK    3  A    between atoms: N_17  and  C_18
REMARK    4  A    between atoms: C_18  and  C_19
REMARK                            x       y       z     vdW  Elec       q    Type
REMARK                         _______ _______ _______ _____ _____    ______ ____
ROOT
ATOM      1  O   UNL     1       2.605   3.368  16.006  0.00  0.00    +0.000 OA
ATOM      2  C   UNL     1       3.234   2.904  16.963  0.00  0.00    +0.000 C 
ATOM      3  N   UNL     1       2.630   2.684  18.200  0.00  0.00    +0.000 N 
ATOM      4  C   UNL     1       3.322   2.155  19.382  0.00  0.00    +0.000 C 
ATOM      5  C   UNL     1       3.385   3.139  20.563  0.00  0.00    +0.000 C 
ATOM      6  C   UNL     1       2.085   3.138  21.375  0.00  0.00    +0.000 C 
ATOM      7  C   UNL     1       1.020   4.075  20.808  0.00  0.00    +0.000 C 
ATOM      8  C   UNL     1       1.349   4.506  19.374  0.00  0.00    +0.000 C 
ATOM      9  C   UNL     1       1.303   3.274  18.420  0.00  0.00    +0.000 C 
ATOM     10  N   UNL     1       2.666   5.171  19.396  0.00  0.00    +0.000 N 
ATOM     11  C   UNL     1       3.728   4.523  20.026  0.00  0.00    +0.000 C 
ATOM     12  O   UNL     1       4.879   4.950  20.056  0.00  0.00    +0.000 OA
ENDROOT
BRANCH   2  13
ATOM     13  C   UNL     1       4.707   2.569  16.795  0.00  0.00    +0.000 C 
BRANCH  13  14
ATOM     14  C   UNL     1       5.556   3.716  16.305  0.00  0.00    +0.000 A 
ATOM     15  C   UNL     1       6.055   4.695  17.170  0.00  0.00    +0.000 A 
ATOM     16  C   UNL     1       6.871   5.691  16.651  0.00  0.00    +0.000 A 
ATOM     17  N   UNL     1       7.224   5.774  15.353  0.00  0.00    +0.000 NA
ATOM     18  C   UNL     1       6.749   4.813  14.535  0.00  0.00    +0.000 A 
ATOM     19  C   UNL     1       5.927   3.775  14.956  0.00  0.00    +0.000 A 
ENDBRANCH  13  14
ENDBRANCH   2  13
BRANCH  10  20
ATOM     20  C   UNL     1       2.949   6.250  18.450  0.00  0.00    +0.000 C 
BRANCH  20  21
ATOM     21  C   UNL     1       2.327   7.583  18.793  0.00  0.00    +0.000 A 
ATOM     22  C   UNL     1       2.097   8.550  17.803  0.00  0.00    +0.000 A 
ATOM     23  C   UNL     1       1.408   9.730  18.102  0.00  0.00    +0.000 A 
ATOM     24  C   UNL     1       0.933   9.955  19.393  0.00  0.00    +0.000 A 
ATOM     25  C   UNL     1       1.149   9.003  20.386  0.00  0.00    +0.000 A 
ATOM     26  C   UNL     1       1.843   7.826  20.089  0.00  0.00    +0.000 A 
ENDBRANCH  20  21
ENDBRANCH  10  20
TORSDOF 4
ENDMDL
MODEL 5
REMARK VINA RESULT:      -7.3      1.196      1.948
REMARK  Name = 
REMARK  4 active torsions:
REMARK  status: ('A' for Active; 'I' for Inactive)
REMARK    1  A    between atoms: C_2  and  C_3
REMARK    2  A    between atoms: C_3  and  C_4
REMARK    3  A    between atoms: N_17  and  C_18
REMARK    4  A    between atoms: C_18  and  C_19
REMARK                            x       y       z     vdW  Elec       q    Type
REMARK                         _______ _______ _______ _____ _____    ______ ____
ROOT
ATOM      1  O   UNL     1       2.586   3.357  16.028  0.00  0.00    +0.000 OA
ATOM      2  C   UNL     1       3.354   3.050  16.945  0.00  0.00    +0.000 C 
ATOM      3  N   UNL     1       2.885   2.734  18.220  0.00  0.00    +0.000 N 
ATOM      4  C   UNL     1       3.743   2.379  19.358  0.00  0.00    +0.000 C 
ATOM      5  C   UNL     1       3.675   3.378  20.527  0.00  0.00    +0.000 C 
ATOM      6  C   UNL     1       2.455   3.127  21.420  0.00  0.00    +0.000 C 
ATOM      7  C   UNL     1       1.188   3.816  20.918  0.00  0.00    +0.000 C 
ATOM      8  C   UNL     1       1.333   4.277  19.463  0.00  0.00    +0.000 C 
ATOM      9  C   UNL     1       1.482   3.044  18.521  0.00  0.00    +0.000 C 
ATOM     10  N   UNL     1       2.485   5.198  19.396  0.00  0.00    +0.000 N 
ATOM     11  C   UNL     1       3.693   4.793  19.961  0.00  0.00    +0.000 C 
ATOM     12  O   UNL     1       4.732   5.446  19.914  0.00  0.00    +0.000 OA
ENDROOT
BRANCH   2  13
ATOM     13  C   UNL     1       4.852   3.019  16.685  0.00  0.00    +0.000 C 
BRANCH  13  14
ATOM     14  C   UNL     1       5.521   4.370  16.734  0.00  0.00    +0.000 A 
ATOM     15  C   UNL     1       4.912   5.521  16.224  0.00  0.00    +0.000 A 
ATOM     16  C   UNL     1       5.569   6.737  16.353  0.00  0.00    +0.000 A 
ATOM     17  N   UNL     1       6.768   6.885  16.950  0.00  0.00    +0.000 NA
ATOM     18  C   UNL     1       7.335   5.768  17.452  0.00  0.00    +0.000 A 
ATOM     19  C   UNL     1       6.758   4.506  17.374  0.00  0.00    +0.000 A 
ENDBRANCH  13  14
ENDBRANCH   2  13
BRANCH  10  20
ATOM     20  C   UNL     1       2.482   6.294  18.428  0.00  0.00    +0.000 C 
BRANCH  20  21
ATOM     21  C   UNL     1       1.878   7.587  18.924  0.00  0.00    +0.000 A 
ATOM     22  C   UNL     1       1.593   7.776  20.285  0.00  0.00    +0.000 A 
ATOM     23  C   UNL     1       1.151   9.017  20.756  0.00  0.00    +0.000 A 
ATOM     24  C   UNL     1       0.998  10.087  19.876  0.00  0.00    +0.000 A 
ATOM     25  C   UNL     1       1.283   9.916  18.523  0.00  0.00    +0.000 A 
ATOM     26  C   UNL     1       1.717   8.675  18.050  0.00  0.00    +0.000 A 
ENDBRANCH  20  21
ENDBRANCH  10  20
TORSDOF 4
ENDMDL
MODEL 6
REMARK VINA RESULT:      -7.0      1.039      1.774
REMARK  Name = 
REMARK  4 active torsions:
REMARK  status: ('A' for Active; 'I' for Inactive)
REMARK    1  A    between atoms: C_2  and  C_3
REMARK    2  A    between atoms: C_3  and  C_4
REMARK    3  A    between atoms: N_17  and  C_18
REMARK    4  A    between atoms: C_18  and  C_19
REMARK                            x       y       z     vdW  Elec       q    Type
REMARK                         _______ _______ _______ _____ _____    ______ ____
ROOT
ATOM      1  O   UNL     1       3.904   5.866  16.398  0.00  0.00    +0.000 OA
ATOM      2  C   UNL     1       4.206   4.713  16.718  0.00  0.00    +0.000 C 
ATOM      3  N   UNL     1       3.242   3.786  17.117  0.00  0.00    +0.000 N 
ATOM      4  C   UNL     1       3.534   2.407  17.528  0.00  0.00    +0.000 C 
ATOM      5  C   UNL     1       3.179   2.103  18.995  0.00  0.00    +0.000 C 
ATOM      6  C   UNL     1       1.688   1.796  19.167  0.00  0.00    +0.000 C 
ATOM      7  C   UNL     1       0.832   3.048  19.346  0.00  0.00    +0.000 C 
ATOM      8  C   UNL     1       1.591   4.316  18.940  0.00  0.00    +0.000 C 
ATOM      9  C   UNL     1       1.897   4.293  17.412  0.00  0.00    +0.000 C 
ATOM     10  N   UNL     1       2.808   4.397  19.772  0.00  0.00    +0.000 N 
ATOM     11  C   UNL     1       3.630   3.275  19.857  0.00  0.00    +0.000 C 
ATOM     12  O   UNL     1       4.695   3.243  20.469  0.00  0.00    +0.000 OA
ENDROOT
BRANCH   2  13
ATOM     13  C   UNL     1       5.665   4.287  16.686  0.00  0.00    +0.000 C 
BRANCH  13  14
ATOM     14  C   UNL     1       6.608   5.239  17.380  0.00  0.00    +0.000 A 
ATOM     15  C   UNL     1       6.931   6.490  16.844  0.00  0.00    +0.000 A 
ATOM     16  C   UNL     1       7.765   7.331  17.567  0.00  0.00    +0.000 A 
ATOM     17  N   UNL     1       8.286   7.020  18.770  0.00  0.00    +0.000 NA
ATOM     18  C   UNL     1       7.952   5.819  19.282  0.00  0.00    +0.000 A 
ATOM     19  C   UNL     1       7.125   4.907  18.638  0.00  0.00    +0.000 A 
ENDBRANCH  13  14
ENDBRANCH   2  13
BRANCH  10  20
ATOM     20  C   UNL     1       3.344   5.705  20.147  0.00  0.00    +0.000 C 
BRANCH  20  21
ATOM     21  C   UNL     1       2.415   6.873  19.905  0.00  0.00    +0.000 A 
ATOM     22  C   UNL     1       1.566   7.342  20.918  0.00  0.00    +0.000 A 
ATOM     23  C   UNL     1       0.801   8.499  20.730  0.00  0.00    +0.000 A 
ATOM     24  C   UNL     1       0.882   9.205  19.531  0.00  0.00    +0.000 A 
ATOM     25  C   UNL     1       1.726   8.754  18.518  0.00  0.00    +0.000 A 
ATOM     26  C   UNL     1       2.485   7.595  18.703  0.00  0.00    +0.000 A 
ENDBRANCH  20  21
ENDBRANCH  10  20
TORSDOF 4
ENDMDL
MODEL 7
REMARK VINA RESULT:      -6.7      2.060      2.874
REMARK  Name = 
REMARK  4 active torsions:
REMARK  status: ('A' for Active; 'I' for Inactive)
REMARK    1  A    between atoms: C_2  and  C_3
REMARK    2  A    between atoms: C_3  and  C_4
REMARK    3  A    between atoms: N_17  and  C_18
REMARK    4  A    between atoms: C_18  and  C_19
REMARK                            x       y       z     vdW  Elec       q    Type
REMARK                         _______ _______ _______ _____ _____    ______ ____
ROOT
ATOM      1  O   UNL     1       3.899   5.662  16.220  0.00  0.00    +0.000 OA
ATOM      2  C   UNL     1       4.190   4.504  16.536  0.00  0.00    +0.000 C 
ATOM      3  N   UNL     1       3.230   3.606  17.002  0.00  0.00    +0.000 N 
ATOM      4  C   UNL     1       3.512   2.224  17.411  0.00  0.00    +0.000 C 
ATOM      5  C   UNL     1       3.238   1.945  18.900  0.00  0.00    +0.000 C 
ATOM      6  C   UNL     1       1.752   1.677  19.164  0.00  0.00    +0.000 C 
ATOM      7  C   UNL     1       0.939   2.953  19.379  0.00  0.00    +0.000 C 
ATOM      8  C   UNL     1       1.704   4.197  18.914  0.00  0.00    +0.000 C 
ATOM      9  C   UNL     1       1.917   4.151  17.371  0.00  0.00    +0.000 C 
ATOM     10  N   UNL     1       2.970   4.256  19.671  0.00  0.00    +0.000 N 
ATOM     11  C   UNL     1       3.768   3.114  19.720  0.00  0.00    +0.000 C 
ATOM     12  O   UNL     1       4.867   3.061  20.267  0.00  0.00    +0.000 OA
ENDROOT
BRANCH   2  13
ATOM     13  C   UNL     1       5.634   4.041  16.422  0.00  0.00    +0.000 C 
BRANCH  13  14
ATOM     14  C   UNL     1       6.210   4.133  15.030  0.00  0.00    +0.000 A 
ATOM     15  C   UNL     1       5.668   3.427  13.952  0.00  0.00    +0.000 A 
ATOM     16  C   UNL     1       6.223   3.603  12.692  0.00  0.00    +0.000 A 
ATOM     17  N   UNL     1       7.258   4.427  12.434  0.00  0.00    +0.000 NA
ATOM     18  C   UNL     1       7.758   5.115  13.481  0.00  0.00    +0.000 A 
ATOM     19  C   UNL     1       7.274   5.008  14.779  0.00  0.00    +0.000 A 
ENDBRANCH  13  14
ENDBRANCH   2  13
BRANCH  10  20
ATOM     20  C   UNL     1       3.560   5.553  19.998  0.00  0.00    +0.000 C 
BRANCH  20  21
ATOM     21  C   UNL     1       2.659   6.744  19.767  0.00  0.00    +0.000 A 
ATOM     22  C   UNL     1       1.830   7.233  20.788  0.00  0.00    +0.000 A 
ATOM     23  C   UNL     1       1.093   8.408  20.610  0.00  0.00    +0.000 A 
ATOM     24  C   UNL     1       1.181   9.115  19.412  0.00  0.00    +0.000 A 
ATOM     25  C   UNL     1       2.004   8.645  18.390  0.00  0.00    +0.000 A 
ATOM     26  C   UNL     1       2.735   7.467  18.565  0.00  0.00    +0.000 A 
ENDBRANCH  20  21
ENDBRANCH  10  20
TORSDOF 4
ENDMDL
MODEL 8
REMARK VINA RESULT:      -6.6      2.589      6.617
REMARK  Name = 
REMARK  4 active torsions:
REMARK  status: ('A' for Active; 'I' for Inactive)
REMARK    1  A    between atoms: C_2  and  C_3
REMARK    2  A    between atoms: C_3  and  C_4
REMARK    3  A    between atoms: N_17  and  C_18
REMARK    4  A    between atoms: C_18  and  C_19
REMARK                            x       y       z     vdW  Elec       q    Type
REMARK                         _______ _______ _______ _____ _____    ______ ____
ROOT
ATOM      1  O   UNL     1       2.523   5.897  17.489  0.00  0.00    +0.000 OA
ATOM      2  C   UNL     1       3.392   5.195  18.017  0.00  0.00    +0.000 C 
ATOM      3  N   UNL     1       4.606   5.730  18.447  0.00  0.00    +0.000 N 
ATOM      4  C   UNL     1       5.687   4.950  19.063  0.00  0.00    +0.000 C 
ATOM      5  C   UNL     1       6.986   4.922  18.238  0.00  0.00    +0.000 C 
ATOM      6  C   UNL     1       7.827   6.184  18.457  0.00  0.00    +0.000 C 
ATOM      7  C   UNL     1       7.420   7.344  17.550  0.00  0.00    +0.000 C 
ATOM      8  C   UNL     1       6.047   7.108  16.910  0.00  0.00    +0.000 C 
ATOM      9  C   UNL     1       4.939   7.091  18.008  0.00  0.00    +0.000 C 
ATOM     10  N   UNL     1       6.119   5.849  16.142  0.00  0.00    +0.000 N 
ATOM     11  C   UNL     1       6.627   4.714  16.772  0.00  0.00    +0.000 C 
ATOM     12  O   UNL     1       6.681   3.602  16.255  0.00  0.00    +0.000 OA
ENDROOT
BRANCH   2  13
ATOM     13  C   UNL     1       3.139   3.707  18.200  0.00  0.00    +0.000 C 
BRANCH  13  14
ATOM     14  C   UNL     1       2.628   3.325  19.567  0.00  0.00    +0.000 A 
ATOM     15  C   UNL     1       1.343   3.663  20.002  0.00  0.00    +0.000 A 
ATOM     16  C   UNL     1       0.927   3.231  21.254  0.00  0.00    +0.000 A 
ATOM     17  N   UNL     1       1.688   2.491  22.086  0.00  0.00    +0.000 NA
ATOM     18  C   UNL     1       2.917   2.158  21.644  0.00  0.00    +0.000 A 
ATOM     19  C   UNL     1       3.426   2.542  20.409  0.00  0.00    +0.000 A 
ENDBRANCH  13  14
ENDBRANCH   2  13
BRANCH  10  20
ATOM     20  C   UNL     1       5.316   5.694  14.930  0.00  0.00    +0.000 C 
BRANCH  20  21
ATOM     21  C   UNL     1       5.950   4.855  13.844  0.00  0.00    +0.000 A 
ATOM     22  C   UNL     1       5.260   3.779  13.266  0.00  0.00    +0.000 A 
ATOM     23  C   UNL     1       5.800   3.085  12.178  0.00  0.00    +0.000 A 
ATOM     24  C   UNL     1       7.033   3.463  11.649  0.00  0.00    +0.000 A 
ATOM     25  C   UNL     1       7.728   4.533  12.208  0.00  0.00    +0.000 A 
ATOM     26  C   UNL     1       7.192   5.222  13.300  0.00  0.00    +0.000 A 
ENDBRANCH  20  21
ENDBRANCH  10  20
TORSDOF 4
ENDMDL
MODEL 9
REMARK VINA RESULT:      -6.5      2.085      5.830
REMARK  Name = 
REMARK  4 active torsions:
REMARK  status: ('A' for Active; 'I' for Inactive)
REMARK    1  A    between atoms: C_2  and  C_3
REMARK    2  A    between atoms: C_3  and  C_4
REMARK    3  A    between atoms: N_17  and  C_18
REMARK    4  A    between atoms: C_18  and  C_19
REMARK                            x       y       z     vdW  Elec       q    Type
REMARK                         _______ _______ _______ _____ _____    ______ ____
ROOT
ATOM      1  O   UNL     1       3.825   7.272  18.453  0.00  0.00    +0.000 OA
ATOM      2  C   UNL     1       2.941   6.735  19.128  0.00  0.00    +0.000 C 
ATOM      3  N   UNL     1       3.203   5.627  19.933  0.00  0.00    +0.000 N 
ATOM      4  C   UNL     1       2.197   4.931  20.745  0.00  0.00    +0.000 C 
ATOM      5  C   UNL     1       1.949   3.473  20.318  0.00  0.00    +0.000 C 
ATOM      6  C   UNL     1       3.007   2.524  20.891  0.00  0.00    +0.000 C 
ATOM      7  C   UNL     1       4.266   2.435  20.030  0.00  0.00    +0.000 C 
ATOM      8  C   UNL     1       4.338   3.578  19.011  0.00  0.00    +0.000 C 
ATOM      9  C   UNL     1       4.490   4.944  19.746  0.00  0.00    +0.000 C 
ATOM     10  N   UNL     1       3.127   3.506  18.169  0.00  0.00    +0.000 N 
ATOM     11  C   UNL     1       1.885   3.415  18.797  0.00  0.00    +0.000 C 
ATOM     12  O   UNL     1       0.810   3.409  18.204  0.00  0.00    +0.000 OA
ENDROOT
BRANCH   2  13
ATOM     13  C   UNL     1       1.526   7.289  19.079  0.00  0.00    +0.000 C 
BRANCH  13  14
ATOM     14  C   UNL     1       1.303   8.506  19.943  0.00  0.00    +0.000 A 
ATOM     15  C   UNL     1       1.057   9.770  19.398  0.00  0.00    +0.000 A 
ATOM     16  C   UNL     1       0.811  10.832  20.259  0.00  0.00    +0.000 A 
ATOM     17  N   UNL     1       0.786  10.721  21.602  0.00  0.00    +0.000 NA
ATOM     18  C   UNL     1       1.008   9.492  22.111  0.00  0.00    +0.000 A 
ATOM     19  C   UNL     1       1.264   8.368  21.335  0.00  0.00    +0.000 A 
ENDBRANCH  13  14
ENDBRANCH   2  13
BRANCH  10  20
ATOM     20  C   UNL     1       3.190   3.930  16.771  0.00  0.00    +0.000 C 
BRANCH  20  21
ATOM     21  C   UNL     1       4.564   4.327  16.282  0.00  0.00    +0.000 A 
ATOM     22  C   UNL     1       5.449   3.372  15.762  0.00  0.00    +0.000 A 
ATOM     23  C   UNL     1       6.669   3.761  15.196  0.00  0.00    +0.000 A 
ATOM     24  C   UNL     1       7.013   5.110  15.136  0.00  0.00    +0.000 A 
ATOM     25  C   UNL     1       6.142   6.071  15.643  0.00  0.00    +0.000 A 
ATOM     26  C   UNL     1       4.927   5.682  16.215  0.00  0.00    +0.000 A 
ENDBRANCH  20  21
ENDBRANCH  10  20
TORSDOF 4
ENDMDL
