MODEL 1
REMARK VINA RESULT:      -9.5      0.000      0.000
REMARK  Name = 
REMARK  6 active torsions:
REMARK  status: ('A' for Active; 'I' for Inactive)
REMARK    1  A    between atoms: C_4  and  C_5
REMARK    2  A    between atoms: C_9  and  O_10
REMARK    3  A    between atoms: O_10  and  C_11
REMARK    4  A    between atoms: C_11  and  C_12
REMARK    5  A    between atoms: N_24  and  C_25
REMARK    6  A    between atoms: C_25  and  C_26
REMARK                            x       y       z     vdW  Elec       q    Type
REMARK                         _______ _______ _______ _____ _____    ______ ____
ROOT
ATOM      1  C   UNL     1       2.385   7.199  19.389  0.00  0.00    +0.000 A 
ATOM      2  C   UNL     1       2.849   7.538  18.109  0.00  0.00    +0.000 A 
ATOM      3  C   UNL     1       2.521   8.754  17.517  0.00  0.00    +0.000 A 
ATOM      4  C   UNL     1       1.688   9.665  18.180  0.00  0.00    +0.000 A 
ATOM      5  C   UNL     1       1.161   9.368  19.430  0.00  0.00    +0.000 A 
ATOM      6  C   UNL     1       1.527   8.131  20.035  0.00  0.00    +0.000 A 
ENDROOT
BRANCH   1  10
ATOM      7  O   UNL     1       1.405   3.076  18.309  0.00  0.00    +0.000 OA
ATOM      8  C   UNL     1       2.129   3.911  18.829  0.00  0.00    +0.000 C 
ATOM      9  O   UNL     1       1.675   4.858  19.706  0.00  0.00    +0.000 OA
ATOM     10  C   UNL     1       2.723   5.822  19.982  0.00  0.00    +0.000 C 
ATOM     11  C   UNL     1       3.987   5.104  19.490  0.00  0.00    +0.000 C 
ATOM     12  N   UNL     1       3.484   4.028  18.676  0.00  0.00    +0.000 N 
BRANCH  12  13
ATOM     13  C   UNL     1       4.305   3.172  17.801  0.00  0.00    +0.000 C 
BRANCH  13  14
ATOM     14  C   UNL     1       5.193   3.856  16.753  0.00  0.00    +0.000 A 
ATOM     15  C   UNL     1       6.175   4.756  17.141  0.00  0.00    +0.000 A 
ATOM     16  C   UNL     1       6.931   5.388  16.163  0.00  0.00    +0.000 A 
ATOM     17  C   UNL     1       6.812   5.006  14.827  0.00  0.00    +0.000 A 
ATOM     18  C   UNL     1       7.689   5.543  13.872  0.00  0.00    +0.000 A 
ATOM     19  C   UNL     1       7.712   5.040  12.579  0.00  0.00    +0.000 A 
ATOM     20  C   UNL     1       6.814   4.038  12.227  0.00  0.00    +0.000 A 
ATOM     21  C   UNL     1       5.882   3.561  13.168  0.00  0.00    +0.000 A 
ATOM     22  C   UNL     1       5.865   4.016  14.493  0.00  0.00    +0.000 A 
ATOM     23  N   UNL     1       5.029   3.495  15.438  0.00  0.00    +0.000 NA
ENDBRANCH  13  14
ENDBRANCH  12  13
ENDBRANCH   1  10
BRANCH   5  24
ATOM     24  O   UNL     1       0.325  10.213  20.129  0.00  0.00    +0.000 OA
BRANCH  24  25
ATOM     25  C   UNL     1      -0.131  11.419  19.448  0.00  0.00    +0.000 C 
BRANCH  25  26
ATOM     26  C   UNL     1      -1.573  11.374  18.921  0.00  0.00    +0.000 A 
ATOM     27  C   UNL     1      -1.930  10.465  17.929  0.00  0.00    +0.000 A 
ATOM     28  C   UNL     1      -3.252  10.424  17.504  0.00  0.00    +0.000 A 
ATOM     29  C   UNL     1      -4.228  11.187  18.140  0.00  0.00    +0.000 A 
ATOM     30  C   UNL     1      -5.584  11.050  17.780  0.00  0.00    +0.000 A 
ATOM     31  C   UNL     1      -6.578  11.680  18.519  0.00  0.00    +0.000 A 
ATOM     32  C   UNL     1      -6.211  12.494  19.582  0.00  0.00    +0.000 A 
ATOM     33  C   UNL     1      -4.851  12.686  19.885  0.00  0.00    +0.000 A 
ATOM     34  C   UNL     1      -3.827  12.033  19.192  0.00  0.00    +0.000 A 
ATOM     35  N   UNL     1      -2.515  12.153  19.545  0.00  0.00    +0.000 NA
ENDBRANCH  25  26
ENDBRANCH  24  25
ENDBRANCH   5  24
TORSDOF 6
ENDMDL
MODEL 2
REMARK VINA RESULT:      -9.1      3.754      6.333
REMARK  Name = 
REMARK  6 active torsions:
REMARK  status: ('A' for Active; 'I' for Inactive)
REMARK    1  A    between atoms: C_4  and  C_5
REMARK    2  A    between atoms: C_9  and  O_10
REMARK    3  A    between atoms: O_10  and  C_11
REMARK    4  A    between atoms: C_11  and  C_12
REMARK    5  A    between atoms: N_24  and  C_25
REMARK    6  A    between atoms: C_25  and  C_26
REMARK                            x       y       z     vdW  Elec       q    Type
REMARK                         _______ _______ _______ _____ _____    ______ ____
ROOT
ATOM      1  C   UNL     1      -1.333  10.909  18.529  0.00  0.00    +0.000 A 
ATOM      2  C   UNL     1      -1.723   9.905  17.629  0.00  0.00    +0.000 A 
ATOM      3  C   UNL     1      -3.043   9.787  17.203  0.00  0.00    +0.000 A 
ATOM      4  C   UNL     1      -4.027  10.657  17.689  0.00  0.00    +0.000 A 
ATOM      5  C   UNL     1      -3.712  11.643  18.615  0.00  0.00    +0.000 A 
ATOM      6  C   UNL     1      -2.353  11.769  19.022  0.00  0.00    +0.000 A 
ENDROOT
BRANCH   1  10
ATOM      7  O   UNL     1       0.602  10.529  22.432  0.00  0.00    +0.000 OA
ATOM      8  C   UNL     1       0.606  10.440  21.215  0.00  0.00    +0.000 C 
ATOM      9  O   UNL     1       0.199  11.449  20.385  0.00  0.00    +0.000 OA
ATOM     10  C   UNL     1       0.122  10.969  19.019  0.00  0.00    +0.000 C 
ATOM     11  C   UNL     1       0.932   9.666  19.068  0.00  0.00    +0.000 C 
ATOM     12  N   UNL     1       1.040   9.374  20.474  0.00  0.00    +0.000 N 
BRANCH  12  13
ATOM     13  C   UNL     1       1.545   8.111  21.040  0.00  0.00    +0.000 C 
BRANCH  13  14
ATOM     14  C   UNL     1       1.773   6.933  20.083  0.00  0.00    +0.000 A 
ATOM     15  C   UNL     1       2.539   7.095  18.937  0.00  0.00    +0.000 A 
ATOM     16  C   UNL     1       2.688   6.019  18.072  0.00  0.00    +0.000 A 
ATOM     17  C   UNL     1       2.210   4.759  18.429  0.00  0.00    +0.000 A 
ATOM     18  C   UNL     1       2.502   3.652  17.618  0.00  0.00    +0.000 A 
ATOM     19  C   UNL     1       2.199   2.367  18.048  0.00  0.00    +0.000 A 
ATOM     20  C   UNL     1       1.550   2.197  19.266  0.00  0.00    +0.000 A 
ATOM     21  C   UNL     1       1.187   3.318  20.036  0.00  0.00    +0.000 A 
ATOM     22  C   UNL     1       1.520   4.623  19.651  0.00  0.00    +0.000 A 
ATOM     23  N   UNL     1       1.256   5.711  20.435  0.00  0.00    +0.000 NA
ENDBRANCH  13  14
ENDBRANCH  12  13
ENDBRANCH   1  10
BRANCH   5  24
ATOM     24  O   UNL     1      -4.635  12.521  19.143  0.00  0.00    +0.000 OA
BRANCH  24  25
ATOM     25  C   UNL     1      -5.282  12.143  20.393  0.00  0.00    +0.000 C 
BRANCH  25  26
ATOM     26  C   UNL     1      -4.880  12.971  21.622  0.00  0.00    +0.000 A 
ATOM     27  C   UNL     1      -3.674  12.723  22.272  0.00  0.00    +0.000 A 
ATOM     28  C   UNL     1      -3.322  13.518  23.356  0.00  0.00    +0.000 A 
ATOM     29  C   UNL     1      -4.097  14.619  23.712  0.00  0.00    +0.000 A 
ATOM     30  C   UNL     1      -3.670  15.488  24.737  0.00  0.00    +0.000 A 
ATOM     31  C   UNL     1      -4.348  16.675  24.984  0.00  0.00    +0.000 A 
ATOM     32  C   UNL     1      -5.487  16.965  24.245  0.00  0.00    +0.000 A 
ATOM     33  C   UNL     1      -5.950  16.055  23.278  0.00  0.00    +0.000 A 
ATOM     34  C   UNL     1      -5.268  14.873  22.971  0.00  0.00    +0.000 A 
ATOM     35  N   UNL     1      -5.670  14.036  21.972  0.00  0.00    +0.000 NA
ENDBRANCH  25  26
ENDBRANCH  24  25
ENDBRANCH   5  24
TORSDOF 6
ENDMDL
MODEL 3
REMARK VINA RESULT:      -9.1      3.550     11.760
REMARK  Name = 
REMARK  6 active torsions:
REMARK  status: ('A' for Active; 'I' for Inactive)
REMARK    1  A    between atoms: C_4  and  C_5
REMARK    2  A    between atoms: C_9  and  O_10
REMARK    3  A    between atoms: O_10  and  C_11
REMARK    4  A    between atoms: C_11  and  C_12
REMARK    5  A    between atoms: N_24  and  C_25
REMARK    6  A    between atoms: C_25  and  C_26
REMARK                            x       y       z     vdW  Elec       q    Type
REMARK                         _______ _______ _______ _____ _____    ______ ____
ROOT
ATOM      1  C   UNL     1       0.245  10.844  19.380  0.00  0.00    +0.000 A 
ATOM      2  C   UNL     1       0.925  12.069  19.292  0.00  0.00    +0.000 A 
ATOM      3  C   UNL     1       2.057  12.214  18.496  0.00  0.00    +0.000 A 
ATOM      4  C   UNL     1       2.566  11.122  17.779  0.00  0.00    +0.000 A 
ATOM      5  C   UNL     1       1.964   9.873  17.862  0.00  0.00    +0.000 A 
ATOM      6  C   UNL     1       0.791   9.747  18.659  0.00  0.00    +0.000 A 
ENDROOT
BRANCH   1  10
ATOM      7  O   UNL     1      -0.249  10.329  23.695  0.00  0.00    +0.000 OA
ATOM      8  C   UNL     1      -0.642  10.709  22.603  0.00  0.00    +0.000 C 
ATOM      9  O   UNL     1      -0.644   9.918  21.487  0.00  0.00    +0.000 OA
ATOM     10  C   UNL     1      -0.967  10.712  20.316  0.00  0.00    +0.000 C 
ATOM     11  C   UNL     1      -1.566  11.989  20.922  0.00  0.00    +0.000 C 
ATOM     12  N   UNL     1      -1.174  11.935  22.307  0.00  0.00    +0.000 N 
BRANCH  12  13
ATOM     13  C   UNL     1      -1.323  13.039  23.272  0.00  0.00    +0.000 C 
BRANCH  13  14
ATOM     14  C   UNL     1      -2.699  13.706  23.395  0.00  0.00    +0.000 A 
ATOM     15  C   UNL     1      -2.891  15.010  22.961  0.00  0.00    +0.000 A 
ATOM     16  C   UNL     1      -4.138  15.597  23.128  0.00  0.00    +0.000 A 
ATOM     17  C   UNL     1      -5.218  14.837  23.576  0.00  0.00    +0.000 A 
ATOM     18  C   UNL     1      -6.502  15.401  23.593  0.00  0.00    +0.000 A 
ATOM     19  C   UNL     1      -7.613  14.609  23.855  0.00  0.00    +0.000 A 
ATOM     20  C   UNL     1      -7.429  13.265  24.158  0.00  0.00    +0.000 A 
ATOM     21  C   UNL     1      -6.130  12.725  24.219  0.00  0.00    +0.000 A 
ATOM     22  C   UNL     1      -4.994  13.486  23.915  0.00  0.00    +0.000 A 
ATOM     23  N   UNL     1      -3.738  12.951  23.880  0.00  0.00    +0.000 NA
ENDBRANCH  13  14
ENDBRANCH  12  13
ENDBRANCH   1  10
BRANCH   5  24
ATOM     24  O   UNL     1       2.423   8.757  17.194  0.00  0.00    +0.000 OA
BRANCH  24  25
ATOM     25  C   UNL     1       3.476   7.979  17.835  0.00  0.00    +0.000 C 
BRANCH  25  26
ATOM     26  C   UNL     1       3.145   6.500  18.086  0.00  0.00    +0.000 A 
ATOM     27  C   UNL     1       3.796   5.504  17.364  0.00  0.00    +0.000 A 
ATOM     28  C   UNL     1       3.504   4.175  17.645  0.00  0.00    +0.000 A 
ATOM     29  C   UNL     1       2.670   3.839  18.708  0.00  0.00    +0.000 A 
ATOM     30  C   UNL     1       2.472   2.488  19.058  0.00  0.00    +0.000 A 
ATOM     31  C   UNL     1       1.779   2.152  20.215  0.00  0.00    +0.000 A 
ATOM     32  C   UNL     1       1.233   3.167  20.990  0.00  0.00    +0.000 A 
ATOM     33  C   UNL     1       1.369   4.508  20.590  0.00  0.00    +0.000 A 
ATOM     34  C   UNL     1       2.098   4.886  19.458  0.00  0.00    +0.000 A 
ATOM     35  N   UNL     1       2.302   6.192  19.122  0.00  0.00    +0.000 NA
ENDBRANCH  25  26
ENDBRANCH  24  25
ENDBRANCH   5  24
TORSDOF 6
ENDMDL
MODEL 4
REMARK VINA RESULT:      -9.1      3.070     10.096
REMARK  Name = 
REMARK  6 active torsions:
REMARK  status: ('A' for Active; 'I' for Inactive)
REMARK    1  A    between atoms: C_4  and  C_5
REMARK    2  A    between atoms: C_9  and  O_10
REMARK    3  A    between atoms: O_10  and  C_11
REMARK    4  A    between atoms: C_11  and  C_12
REMARK    5  A    between atoms: N_24  and  C_25
REMARK    6  A    between atoms: C_25  and  C_26
REMARK                            x       y       z     vdW  Elec       q    Type
REMARK                         _______ _______ _______ _____ _____    ______ ____
ROOT
ATOM      1  C   UNL     1       2.084   5.737  19.689  0.00  0.00    +0.000 A 
ATOM      2  C   UNL     1       1.269   5.073  20.620  0.00  0.00    +0.000 A 
ATOM      3  C   UNL     1       0.842   3.766  20.405  0.00  0.00    +0.000 A 
ATOM      4  C   UNL     1       1.195   3.086  19.232  0.00  0.00    +0.000 A 
ATOM      5  C   UNL     1       1.962   3.706  18.253  0.00  0.00    +0.000 A 
ATOM      6  C   UNL     1       2.414   5.034  18.498  0.00  0.00    +0.000 A 
ENDROOT
BRANCH   1  10
ATOM      7  O   UNL     1       1.814   9.424  17.352  0.00  0.00    +0.000 OA
ATOM      8  C   UNL     1       1.867   8.822  18.414  0.00  0.00    +0.000 C 
ATOM      9  O   UNL     1       2.812   7.874  18.695  0.00  0.00    +0.000 OA
ATOM     10  C   UNL     1       2.485   7.200  19.937  0.00  0.00    +0.000 C 
ATOM     11  C   UNL     1       1.458   8.143  20.578  0.00  0.00    +0.000 C 
ATOM     12  N   UNL     1       1.051   9.003  19.498  0.00  0.00    +0.000 N 
BRANCH  12  13
ATOM     13  C   UNL     1      -0.080   9.947  19.546  0.00  0.00    +0.000 C 
BRANCH  13  14
ATOM     14  C   UNL     1       0.208  11.395  19.963  0.00  0.00    +0.000 A 
ATOM     15  C   UNL     1      -0.078  11.828  21.250  0.00  0.00    +0.000 A 
ATOM     16  C   UNL     1       0.156  13.157  21.579  0.00  0.00    +0.000 A 
ATOM     17  C   UNL     1       0.814  13.997  20.682  0.00  0.00    +0.000 A 
ATOM     18  C   UNL     1       1.180  15.290  21.085  0.00  0.00    +0.000 A 
ATOM     19  C   UNL     1       1.997  16.072  20.279  0.00  0.00    +0.000 A 
ATOM     20  C   UNL     1       2.397  15.580  19.042  0.00  0.00    +0.000 A 
ATOM     21  C   UNL     1       1.958  14.314  18.609  0.00  0.00    +0.000 A 
ATOM     22  C   UNL     1       1.173  13.483  19.418  0.00  0.00    +0.000 A 
ATOM     23  N   UNL     1       0.819  12.217  19.048  0.00  0.00    +0.000 NA
ENDBRANCH  13  14
ENDBRANCH  12  13
ENDBRANCH   1  10
BRANCH   5  24
ATOM     24  O   UNL     1       2.330   3.099  17.071  0.00  0.00    +0.000 OA
BRANCH  24  25
ATOM     25  C   UNL     1       3.721   2.681  16.938  0.00  0.00    +0.000 C 
BRANCH  25  26
ATOM     26  C   UNL     1       4.750   3.819  16.880  0.00  0.00    +0.000 A 
ATOM     27  C   UNL     1       4.717   4.743  15.839  0.00  0.00    +0.000 A 
ATOM     28  C   UNL     1       5.637   5.784  15.839  0.00  0.00    +0.000 A 
ATOM     29  C   UNL     1       6.496   5.975  16.919  0.00  0.00    +0.000 A 
ATOM     30  C   UNL     1       7.343   7.100  16.963  0.00  0.00    +0.000 A 
ATOM     31  C   UNL     1       8.079   7.386  18.107  0.00  0.00    +0.000 A 
ATOM     32  C   UNL     1       8.011   6.513  19.185  0.00  0.00    +0.000 A 
ATOM     33  C   UNL     1       7.223   5.351  19.101  0.00  0.00    +0.000 A 
ATOM     34  C   UNL     1       6.435   5.055  17.984  0.00  0.00    +0.000 A 
ATOM     35  N   UNL     1       5.604   3.974  17.942  0.00  0.00    +0.000 NA
ENDBRANCH  25  26
ENDBRANCH  24  25
ENDBRANCH   5  24
TORSDOF 6
ENDMDL
MODEL 5
REMARK VINA RESULT:      -9.1      1.465      1.948
REMARK  Name = 
REMARK  6 active torsions:
REMARK  status: ('A' for Active; 'I' for Inactive)
REMARK    1  A    between atoms: C_4  and  C_5
REMARK    2  A    between atoms: C_9  and  O_10
REMARK    3  A    between atoms: O_10  and  C_11
REMARK    4  A    between atoms: C_11  and  C_12
REMARK    5  A    between atoms: N_24  and  C_25
REMARK    6  A    between atoms: C_25  and  C_26
REMARK                            x       y       z     vdW  Elec       q    Type
REMARK                         _______ _______ _______ _____ _____    ______ ____
ROOT
ATOM      1  C   UNL     1       2.371   6.799  19.520  0.00  0.00    +0.000 A 
ATOM      2  C   UNL     1       2.580   7.165  18.181  0.00  0.00    +0.000 A 
ATOM      3  C   UNL     1       2.222   8.425  17.710  0.00  0.00    +0.000 A 
ATOM      4  C   UNL     1       1.613   9.356  18.562  0.00  0.00    +0.000 A 
ATOM      5  C   UNL     1       1.340   9.036  19.886  0.00  0.00    +0.000 A 
ATOM      6  C   UNL     1       1.735   7.753  20.361  0.00  0.00    +0.000 A 
ENDROOT
BRANCH   1  10
ATOM      7  O   UNL     1       1.334   2.778  18.145  0.00  0.00    +0.000 OA
ATOM      8  C   UNL     1       2.081   3.567  18.703  0.00  0.00    +0.000 C 
ATOM      9  O   UNL     1       1.664   4.440  19.671  0.00  0.00    +0.000 OA
ATOM     10  C   UNL     1       2.726   5.378  19.985  0.00  0.00    +0.000 C 
ATOM     11  C   UNL     1       3.968   4.701  19.387  0.00  0.00    +0.000 C 
ATOM     12  N   UNL     1       3.429   3.696  18.508  0.00  0.00    +0.000 N 
BRANCH  12  13
ATOM     13  C   UNL     1       4.213   2.914  17.535  0.00  0.00    +0.000 C 
BRANCH  13  14
ATOM     14  C   UNL     1       5.130   3.677  16.570  0.00  0.00    +0.000 A 
ATOM     15  C   UNL     1       6.083   4.562  17.055  0.00  0.00    +0.000 A 
ATOM     16  C   UNL     1       6.866   5.267  16.151  0.00  0.00    +0.000 A 
ATOM     17  C   UNL     1       6.804   4.973  14.789  0.00  0.00    +0.000 A 
ATOM     18  C   UNL     1       7.709   5.583  13.907  0.00  0.00    +0.000 A 
ATOM     19  C   UNL     1       7.789   5.167  12.585  0.00  0.00    +0.000 A 
ATOM     20  C   UNL     1       6.921   4.180  12.133  0.00  0.00    +0.000 A 
ATOM     21  C   UNL     1       5.961   3.630  13.003  0.00  0.00    +0.000 A 
ATOM     22  C   UNL     1       5.886   3.996  14.353  0.00  0.00    +0.000 A 
ATOM     23  N   UNL     1       5.022   3.403  15.229  0.00  0.00    +0.000 NA
ENDBRANCH  13  14
ENDBRANCH  12  13
ENDBRANCH   1  10
BRANCH   5  24
ATOM     24  O   UNL     1       0.730   9.900  20.771  0.00  0.00    +0.000 OA
BRANCH  24  25
ATOM     25  C   UNL     1       0.503  11.269  20.323  0.00  0.00    +0.000 C 
BRANCH  25  26
ATOM     26  C   UNL     1      -0.894  11.836  20.615  0.00  0.00    +0.000 A 
ATOM     27  C   UNL     1      -1.799  12.040  19.578  0.00  0.00    +0.000 A 
ATOM     28  C   UNL     1      -3.069  12.515  19.881  0.00  0.00    +0.000 A 
ATOM     29  C   UNL     1      -3.473  12.671  21.205  0.00  0.00    +0.000 A 
ATOM     30  C   UNL     1      -4.799  13.041  21.505  0.00  0.00    +0.000 A 
ATOM     31  C   UNL     1      -5.254  13.036  22.818  0.00  0.00    +0.000 A 
ATOM     32  C   UNL     1      -4.365  12.717  23.835  0.00  0.00    +0.000 A 
ATOM     33  C   UNL     1      -3.024  12.425  23.532  0.00  0.00    +0.000 A 
ATOM     34  C   UNL     1      -2.542  12.376  22.221  0.00  0.00    +0.000 A 
ATOM     35  N   UNL     1      -1.263  12.006  21.925  0.00  0.00    +0.000 NA
ENDBRANCH  25  26
ENDBRANCH  24  25
ENDBRANCH   5  24
TORSDOF 6
ENDMDL
MODEL 6
REMARK VINA RESULT:      -9.0      3.287     11.371
REMARK  Name = 
REMARK  6 active torsions:
REMARK  status: ('A' for Active; 'I' for Inactive)
REMARK    1  A    between atoms: C_4  and  C_5
REMARK    2  A    between atoms: C_9  and  O_10
REMARK    3  A    between atoms: O_10  and  C_11
REMARK    4  A    between atoms: C_11  and  C_12
REMARK    5  A    between atoms: N_24  and  C_25
REMARK    6  A    between atoms: C_25  and  C_26
REMARK                            x       y       z     vdW  Elec       q    Type
REMARK                         _______ _______ _______ _____ _____    ______ ____
ROOT
ATOM      1  C   UNL     1      -0.724  10.888  19.800  0.00  0.00    +0.000 A 
ATOM      2  C   UNL     1      -1.260  11.449  20.970  0.00  0.00    +0.000 A 
ATOM      3  C   UNL     1      -0.967  10.923  22.225  0.00  0.00    +0.000 A 
ATOM      4  C   UNL     1      -0.147   9.794  22.349  0.00  0.00    +0.000 A 
ATOM      5  C   UNL     1       0.377   9.167  21.226  0.00  0.00    +0.000 A 
ATOM      6  C   UNL     1       0.091   9.732  19.950  0.00  0.00    +0.000 A 
ENDROOT
BRANCH   1  10
ATOM      7  O   UNL     1      -3.121   9.434  16.444  0.00  0.00    +0.000 OA
ATOM      8  C   UNL     1      -2.650  10.334  17.122  0.00  0.00    +0.000 C 
ATOM      9  O   UNL     1      -1.325  10.408  17.457  0.00  0.00    +0.000 OA
ATOM     10  C   UNL     1      -1.118  11.463  18.431  0.00  0.00    +0.000 C 
ATOM     11  C   UNL     1      -2.410  12.285  18.327  0.00  0.00    +0.000 C 
ATOM     12  N   UNL     1      -3.319  11.419  17.620  0.00  0.00    +0.000 N 
BRANCH  12  13
ATOM     13  C   UNL     1      -4.763  11.662  17.453  0.00  0.00    +0.000 C 
BRANCH  13  14
ATOM     14  C   UNL     1      -5.634  11.716  18.715  0.00  0.00    +0.000 A 
ATOM     15  C   UNL     1      -6.787  10.949  18.809  0.00  0.00    +0.000 A 
ATOM     16  C   UNL     1      -7.574  11.055  19.948  0.00  0.00    +0.000 A 
ATOM     17  C   UNL     1      -7.130  11.797  21.041  0.00  0.00    +0.000 A 
ATOM     18  C   UNL     1      -7.861  11.770  22.239  0.00  0.00    +0.000 A 
ATOM     19  C   UNL     1      -7.342  12.347  23.391  0.00  0.00    +0.000 A 
ATOM     20  C   UNL     1      -6.117  13.002  23.326  0.00  0.00    +0.000 A 
ATOM     21  C   UNL     1      -5.428  13.095  22.102  0.00  0.00    +0.000 A 
ATOM     22  C   UNL     1      -5.903  12.484  20.934  0.00  0.00    +0.000 A 
ATOM     23  N   UNL     1      -5.199  12.488  19.764  0.00  0.00    +0.000 NA
ENDBRANCH  13  14
ENDBRANCH  12  13
ENDBRANCH   1  10
BRANCH   5  24
ATOM     24  O   UNL     1       1.178   8.046  21.278  0.00  0.00    +0.000 OA
BRANCH  24  25
ATOM     25  C   UNL     1       2.220   7.919  20.266  0.00  0.00    +0.000 C 
BRANCH  25  26
ATOM     26  C   UNL     1       2.253   6.578  19.517  0.00  0.00    +0.000 A 
ATOM     27  C   UNL     1       3.133   6.390  18.455  0.00  0.00    +0.000 A 
ATOM     28  C   UNL     1       3.167   5.151  17.826  0.00  0.00    +0.000 A 
ATOM     29  C   UNL     1       2.427   4.081  18.322  0.00  0.00    +0.000 A 
ATOM     30  C   UNL     1       2.558   2.800  17.749  0.00  0.00    +0.000 A 
ATOM     31  C   UNL     1       1.954   1.697  18.340  0.00  0.00    +0.000 A 
ATOM     32  C   UNL     1       1.171   1.885  19.472  0.00  0.00    +0.000 A 
ATOM     33  C   UNL     1       0.983   3.179  19.990  0.00  0.00    +0.000 A 
ATOM     34  C   UNL     1       1.611   4.305  19.449  0.00  0.00    +0.000 A 
ATOM     35  N   UNL     1       1.498   5.544  20.007  0.00  0.00    +0.000 NA
ENDBRANCH  25  26
ENDBRANCH  24  25
ENDBRANCH   5  24
TORSDOF 6
ENDMDL
MODEL 7
REMARK VINA RESULT:      -8.9      4.241     12.028
REMARK  Name = 
REMARK  6 active torsions:
REMARK  status: ('A' for Active; 'I' for Inactive)
REMARK    1  A    between atoms: C_4  and  C_5
REMARK    2  A    between atoms: C_9  and  O_10
REMARK    3  A    between atoms: O_10  and  C_11
REMARK    4  A    between atoms: C_11  and  C_12
REMARK    5  A    between atoms: N_24  and  C_25
REMARK    6  A    between atoms: C_25  and  C_26
REMARK                            x       y       z     vdW  Elec       q    Type
REMARK                         _______ _______ _______ _____ _____    ______ ____
ROOT
ATOM      1  C   UNL     1      -4.569  11.197  18.104  0.00  0.00    +0.000 A 
ATOM      2  C   UNL     1      -4.149  10.489  16.967  0.00  0.00    +0.000 A 
ATOM      3  C   UNL     1      -2.798  10.295  16.693  0.00  0.00    +0.000 A 
ATOM      4  C   UNL     1      -1.817  10.831  17.538  0.00  0.00    +0.000 A 
ATOM      5  C   UNL     1      -2.170  11.579  18.654  0.00  0.00    +0.000 A 
ATOM      6  C   UNL     1      -3.555  11.747  18.936  0.00  0.00    +0.000 A 
ENDROOT
BRANCH   1  10
ATOM      7  O   UNL     1      -7.654   9.217  20.489  0.00  0.00    +0.000 OA
ATOM      8  C   UNL     1      -7.184  10.199  19.936  0.00  0.00    +0.000 C 
ATOM      9  O   UNL     1      -6.761  10.200  18.635  0.00  0.00    +0.000 OA
ATOM     10  C   UNL     1      -6.068  11.439  18.338  0.00  0.00    +0.000 C 
ATOM     11  C   UNL     1      -6.490  12.353  19.497  0.00  0.00    +0.000 C 
ATOM     12  N   UNL     1      -7.035  11.448  20.476  0.00  0.00    +0.000 N 
BRANCH  12  13
ATOM     13  C   UNL     1      -7.386  11.809  21.861  0.00  0.00    +0.000 C 
BRANCH  13  14
ATOM     14  C   UNL     1      -6.675  13.014  22.492  0.00  0.00    +0.000 A 
ATOM     15  C   UNL     1      -7.345  14.216  22.664  0.00  0.00    +0.000 A 
ATOM     16  C   UNL     1      -6.658  15.298  23.199  0.00  0.00    +0.000 A 
ATOM     17  C   UNL     1      -5.368  15.132  23.701  0.00  0.00    +0.000 A 
ATOM     18  C   UNL     1      -4.745  16.192  24.376  0.00  0.00    +0.000 A 
ATOM     19  C   UNL     1      -3.544  15.991  25.043  0.00  0.00    +0.000 A 
ATOM     20  C   UNL     1      -2.938  14.740  24.983  0.00  0.00    +0.000 A 
ATOM     21  C   UNL     1      -3.528  13.704  24.235  0.00  0.00    +0.000 A 
ATOM     22  C   UNL     1      -4.762  13.863  23.590  0.00  0.00    +0.000 A 
ATOM     23  N   UNL     1      -5.389  12.838  22.940  0.00  0.00    +0.000 NA
ENDBRANCH  13  14
ENDBRANCH  12  13
ENDBRANCH   1  10
BRANCH   5  24
ATOM     24  O   UNL     1      -1.255  12.146  19.516  0.00  0.00    +0.000 OA
BRANCH  24  25
ATOM     25  C   UNL     1       0.158  11.941  19.222  0.00  0.00    +0.000 C 
BRANCH  25  26
ATOM     26  C   UNL     1       0.724  10.570  19.620  0.00  0.00    +0.000 A 
ATOM     27  C   UNL     1       0.368   9.990  20.834  0.00  0.00    +0.000 A 
ATOM     28  C   UNL     1       0.866   8.730  21.145  0.00  0.00    +0.000 A 
ATOM     29  C   UNL     1       1.606   8.007  20.212  0.00  0.00    +0.000 A 
ATOM     30  C   UNL     1       2.006   6.685  20.492  0.00  0.00    +0.000 A 
ATOM     31  C   UNL     1       2.597   5.903  19.508  0.00  0.00    +0.000 A 
ATOM     32  C   UNL     1       2.840   6.463  18.261  0.00  0.00    +0.000 A 
ATOM     33  C   UNL     1       2.509   7.807  18.016  0.00  0.00    +0.000 A 
ATOM     34  C   UNL     1       1.872   8.610  18.967  0.00  0.00    +0.000 A 
ATOM     35  N   UNL     1       1.472   9.886  18.696  0.00  0.00    +0.000 NA
ENDBRANCH  25  26
ENDBRANCH  24  25
ENDBRANCH   5  24
TORSDOF 6
ENDMDL
MODEL 8
REMARK VINA RESULT:      -8.9      2.927     10.490
REMARK  Name = 
REMARK  6 active torsions:
REMARK  status: ('A' for Active; 'I' for Inactive)
REMARK    1  A    between atoms: C_4  and  C_5
REMARK    2  A    between atoms: C_9  and  O_10
REMARK    3  A    between atoms: O_10  and  C_11
REMARK    4  A    between atoms: C_11  and  C_12
REMARK    5  A    between atoms: N_24  and  C_25
REMARK    6  A    between atoms: C_25  and  C_26
REMARK                            x       y       z     vdW  Elec       q    Type
REMARK                         _______ _______ _______ _____ _____    ______ ____
ROOT
ATOM      1  C   UNL     1       1.982   5.876  19.775  0.00  0.00    +0.000 A 
ATOM      2  C   UNL     1       1.294   5.113  20.732  0.00  0.00    +0.000 A 
ATOM      3  C   UNL     1       0.966   3.781  20.497  0.00  0.00    +0.000 A 
ATOM      4  C   UNL     1       1.292   3.173  19.278  0.00  0.00    +0.000 A 
ATOM      5  C   UNL     1       1.932   3.889  18.274  0.00  0.00    +0.000 A 
ATOM      6  C   UNL     1       2.285   5.243  18.538  0.00  0.00    +0.000 A 
ENDROOT
BRANCH   1  10
ATOM      7  O   UNL     1       1.784   9.531  17.382  0.00  0.00    +0.000 OA
ATOM      8  C   UNL     1       1.747   8.938  18.449  0.00  0.00    +0.000 C 
ATOM      9  O   UNL     1       2.704   8.044  18.846  0.00  0.00    +0.000 OA
ATOM     10  C   UNL     1       2.274   7.359  20.051  0.00  0.00    +0.000 C 
ATOM     11  C   UNL     1       1.131   8.248  20.560  0.00  0.00    +0.000 C 
ATOM     12  N   UNL     1       0.804   9.080  19.431  0.00  0.00    +0.000 N 
BRANCH  12  13
ATOM     13  C   UNL     1      -0.373   9.961  19.340  0.00  0.00    +0.000 C 
BRANCH  13  14
ATOM     14  C   UNL     1      -0.468  11.138  20.319  0.00  0.00    +0.000 A 
ATOM     15  C   UNL     1      -0.735  10.918  21.663  0.00  0.00    +0.000 A 
ATOM     16  C   UNL     1      -0.856  12.010  22.512  0.00  0.00    +0.000 A 
ATOM     17  C   UNL     1      -0.558  13.292  22.054  0.00  0.00    +0.000 A 
ATOM     18  C   UNL     1      -0.536  14.364  22.959  0.00  0.00    +0.000 A 
ATOM     19  C   UNL     1      -0.062  15.608  22.563  0.00  0.00    +0.000 A 
ATOM     20  C   UNL     1       0.335  15.791  21.243  0.00  0.00    +0.000 A 
ATOM     21  C   UNL     1       0.233  14.734  20.321  0.00  0.00    +0.000 A 
ATOM     22  C   UNL     1      -0.198  13.455  20.700  0.00  0.00    +0.000 A 
ATOM     23  N   UNL     1      -0.213  12.398  19.836  0.00  0.00    +0.000 NA
ENDBRANCH  13  14
ENDBRANCH  12  13
ENDBRANCH   1  10
BRANCH   5  24
ATOM     24  O   UNL     1       2.266   3.355  17.047  0.00  0.00    +0.000 OA
BRANCH  24  25
ATOM     25  C   UNL     1       3.641   2.905  16.865  0.00  0.00    +0.000 C 
BRANCH  25  26
ATOM     26  C   UNL     1       4.705   4.013  16.868  0.00  0.00    +0.000 A 
ATOM     27  C   UNL     1       4.687   5.005  15.891  0.00  0.00    +0.000 A 
ATOM     28  C   UNL     1       5.639   6.016  15.948  0.00  0.00    +0.000 A 
ATOM     29  C   UNL     1       6.517   6.108  17.025  0.00  0.00    +0.000 A 
ATOM     30  C   UNL     1       7.399   7.202  17.132  0.00  0.00    +0.000 A 
ATOM     31  C   UNL     1       8.157   7.387  18.281  0.00  0.00    +0.000 A 
ATOM     32  C   UNL     1       8.075   6.447  19.300  0.00  0.00    +0.000 A 
ATOM     33  C   UNL     1       7.251   5.318  19.150  0.00  0.00    +0.000 A 
ATOM     34  C   UNL     1       6.441   5.121  18.028  0.00  0.00    +0.000 A 
ATOM     35  N   UNL     1       5.576   4.071  17.925  0.00  0.00    +0.000 NA
ENDBRANCH  25  26
ENDBRANCH  24  25
ENDBRANCH   5  24
TORSDOF 6
ENDMDL
MODEL 9
REMARK VINA RESULT:      -8.9      3.681     11.755
REMARK  Name = 
REMARK  6 active torsions:
REMARK  status: ('A' for Active; 'I' for Inactive)
REMARK    1  A    between atoms: C_4  and  C_5
REMARK    2  A    between atoms: C_9  and  O_10
REMARK    3  A    between atoms: O_10  and  C_11
REMARK    4  A    between atoms: C_11  and  C_12
REMARK    5  A    between atoms: N_24  and  C_25
REMARK    6  A    between atoms: C_25  and  C_26
REMARK                            x       y       z     vdW  Elec       q    Type
REMARK                         _______ _______ _______ _____ _____    ______ ____
ROOT
ATOM      1  C   UNL     1      -0.129  10.932  20.166  0.00  0.00    +0.000 A 
ATOM      2  C   UNL     1      -1.389  11.166  19.592  0.00  0.00    +0.000 A 
ATOM      3  C   UNL     1      -1.718  10.662  18.337  0.00  0.00    +0.000 A 
ATOM      4  C   UNL     1      -0.780   9.928  17.598  0.00  0.00    +0.000 A 
ATOM      5  C   UNL     1       0.497   9.702  18.093  0.00  0.00    +0.000 A 
ATOM      6  C   UNL     1       0.811  10.200  19.390  0.00  0.00    +0.000 A 
ENDROOT
BRANCH   1  10
ATOM      7  O   UNL     1       1.006  14.938  21.503  0.00  0.00    +0.000 OA
ATOM      8  C   UNL     1       0.507  13.840  21.692  0.00  0.00    +0.000 C 
ATOM      9  O   UNL     1       1.136  12.665  21.383  0.00  0.00    +0.000 OA
ATOM     10  C   UNL     1       0.213  11.555  21.529  0.00  0.00    +0.000 C 
ATOM     11  C   UNL     1      -0.923  12.161  22.363  0.00  0.00    +0.000 C 
ATOM     12  N   UNL     1      -0.708  13.582  22.267  0.00  0.00    +0.000 N 
BRANCH  12  13
ATOM     13  C   UNL     1      -1.656  14.614  22.721  0.00  0.00    +0.000 C 
BRANCH  13  14
ATOM     14  C   UNL     1      -3.148  14.393  22.444  0.00  0.00    +0.000 A 
ATOM     15  C   UNL     1      -3.684  14.684  21.197  0.00  0.00    +0.000 A 
ATOM     16  C   UNL     1      -5.047  14.513  20.995  0.00  0.00    +0.000 A 
ATOM     17  C   UNL     1      -5.832  13.909  21.976  0.00  0.00    +0.000 A 
ATOM     18  C   UNL     1      -7.173  13.603  21.699  0.00  0.00    +0.000 A 
ATOM     19  C   UNL     1      -7.916  12.837  22.588  0.00  0.00    +0.000 A 
ATOM     20  C   UNL     1      -7.332  12.429  23.782  0.00  0.00    +0.000 A 
ATOM     21  C   UNL     1      -6.012  12.810  24.089  0.00  0.00    +0.000 A 
ATOM     22  C   UNL     1      -5.222  13.542  23.194  0.00  0.00    +0.000 A 
ATOM     23  N   UNL     1      -3.912  13.837  23.441  0.00  0.00    +0.000 NA
ENDBRANCH  13  14
ENDBRANCH  12  13
ENDBRANCH   1  10
BRANCH   5  24
ATOM     24  O   UNL     1       1.470   9.001  17.411  0.00  0.00    +0.000 OA
BRANCH  24  25
ATOM     25  C   UNL     1       2.607   8.511  18.181  0.00  0.00    +0.000 C 
BRANCH  25  26
ATOM     26  C   UNL     1       2.440   7.110  18.787  0.00  0.00    +0.000 A 
ATOM     27  C   UNL     1       2.054   6.962  20.116  0.00  0.00    +0.000 A 
ATOM     28  C   UNL     1       1.872   5.680  20.621  0.00  0.00    +0.000 A 
ATOM     29  C   UNL     1       1.955   4.568  19.787  0.00  0.00    +0.000 A 
ATOM     30  C   UNL     1       1.654   3.283  20.283  0.00  0.00    +0.000 A 
ATOM     31  C   UNL     1       1.571   2.196  19.422  0.00  0.00    +0.000 A 
ATOM     32  C   UNL     1       1.846   2.383  18.074  0.00  0.00    +0.000 A 
ATOM     33  C   UNL     1       2.222   3.654  17.602  0.00  0.00    +0.000 A 
ATOM     34  C   UNL     1       2.272   4.779  18.431  0.00  0.00    +0.000 A 
ATOM     35  N   UNL     1       2.550   6.026  17.953  0.00  0.00    +0.000 NA
ENDBRANCH  25  26
ENDBRANCH  24  25
ENDBRANCH   5  24
TORSDOF 6
ENDMDL
