MODEL 1
REMARK VINA RESULT:      -8.1      0.000      0.000
REMARK  Name = 
REMARK  5 active torsions:
REMARK  status: ('A' for Active; 'I' for Inactive)
REMARK    1  A    between atoms: C_1  and  C_2
REMARK    2  A    between atoms: C_2  and  C_3
REMARK    3  A    between atoms: C_2  and  N_4
REMARK    4  A    between atoms: C_5  and  C_7
REMARK    5  A    between atoms: C_18  and  C_19
REMARK                            x       y       z     vdW  Elec       q    Type
REMARK                         _______ _______ _______ _____ _____    ______ ____
ROOT
ATOM      1  C   UNL     1       2.019   7.611  19.190  0.00  0.00    +0.000 A 
ATOM      2  C   UNL     1       1.514   7.167  20.430  0.00  0.00    +0.000 A 
ATOM      3  N   UNL     1       1.813   5.898  20.695  0.00  0.00    +0.000 NA
ATOM      4  N   UNL     1       2.523   5.494  19.618  0.00  0.00    +0.000 N 
ATOM      5  C   UNL     1       2.992   4.220  19.360  0.00  0.00    +0.000 A 
ATOM      6  C   UNL     1       3.687   3.975  18.247  0.00  0.00    +0.000 A 
ATOM      7  C   UNL     1       3.999   5.154  17.360  0.00  0.00    +0.000 A 
ATOM      8  N   UNL     1       4.871   4.933  16.320  0.00  0.00    +0.000 N 
ATOM      9  C   UNL     1       4.685   3.925  15.292  0.00  0.00    +0.000 C 
ATOM     10  C   UNL     1       6.106   3.682  14.814  0.00  0.00    +0.000 C 
ATOM     11  C   UNL     1       6.714   5.081  14.833  0.00  0.00    +0.000 C 
ATOM     12  C   UNL     1       5.987   5.819  15.983  0.00  0.00    +0.000 C 
ATOM     13  N   UNL     1       3.530   6.360  17.588  0.00  0.00    +0.000 NA
ATOM     14  C   UNL     1       2.742   6.534  18.705  0.00  0.00    +0.000 A 
ENDROOT
BRANCH  12  15
ATOM     15  C   UNL     1       6.886   6.072  17.171  0.00  0.00    +0.000 A 
ATOM     16  C   UNL     1       7.206   5.022  18.034  0.00  0.00    +0.000 A 
ATOM     17  N   UNL     1       7.992   5.137  19.131  0.00  0.00    +0.000 NA
ATOM     18  C   UNL     1       8.509   6.364  19.375  0.00  0.00    +0.000 A 
ATOM     19  C   UNL     1       8.261   7.466  18.578  0.00  0.00    +0.000 A 
ATOM     20  F   UNL     1       8.798   8.656  18.872  0.00  0.00    +0.000 F 
ATOM     21  C   UNL     1       7.439   7.325  17.466  0.00  0.00    +0.000 A 
ENDBRANCH  12  15
BRANCH   1  23
ATOM     22  N   UNL     1       1.089   9.801  19.387  0.00  0.00    +0.000 N 
ATOM     23  C   UNL     1       1.785   8.913  18.600  0.00  0.00    +0.000 C 
ATOM     24  O   UNL     1       2.223   9.203  17.490  0.00  0.00    +0.000 OA
ATOM     25  H   UNL     1       0.682   9.434  20.246  0.00  0.00    +0.000 HD
BRANCH  22  27
ATOM     26  C   UNL     1      -0.675  11.318  18.612  0.00  0.00    +0.000 C 
ATOM     27  C   UNL     1       0.803  11.157  18.955  0.00  0.00    +0.000 C 
ATOM     28  C   UNL     1       1.227  12.153  20.028  0.00  0.00    +0.000 C 
ENDBRANCH  22  27
ENDBRANCH   1  23
TORSDOF 3
ENDMDL
MODEL 2
REMARK VINA RESULT:      -7.7      1.034      1.260
REMARK  Name = 
REMARK  5 active torsions:
REMARK  status: ('A' for Active; 'I' for Inactive)
REMARK    1  A    between atoms: C_1  and  C_2
REMARK    2  A    between atoms: C_2  and  C_3
REMARK    3  A    between atoms: C_2  and  N_4
REMARK    4  A    between atoms: C_5  and  C_7
REMARK    5  A    between atoms: C_18  and  C_19
REMARK                            x       y       z     vdW  Elec       q    Type
REMARK                         _______ _______ _______ _____ _____    ______ ____
ROOT
ATOM      1  C   UNL     1       1.914   7.827  19.268  0.00  0.00    +0.000 A 
ATOM      2  C   UNL     1       1.530   7.500  20.585  0.00  0.00    +0.000 A 
ATOM      3  N   UNL     1       1.945   6.296  20.971  0.00  0.00    +0.000 NA
ATOM      4  N   UNL     1       2.611   5.818  19.897  0.00  0.00    +0.000 N 
ATOM      5  C   UNL     1       3.161   4.557  19.752  0.00  0.00    +0.000 A 
ATOM      6  C   UNL     1       3.797   4.230  18.626  0.00  0.00    +0.000 A 
ATOM      7  C   UNL     1       3.956   5.313  17.589  0.00  0.00    +0.000 A 
ATOM      8  N   UNL     1       4.771   5.032  16.518  0.00  0.00    +0.000 N 
ATOM      9  C   UNL     1       4.598   3.897  15.629  0.00  0.00    +0.000 C 
ATOM     10  C   UNL     1       5.998   3.699  15.077  0.00  0.00    +0.000 C 
ATOM     11  C   UNL     1       6.494   5.130  14.889  0.00  0.00    +0.000 C 
ATOM     12  C   UNL     1       5.789   5.947  15.999  0.00  0.00    +0.000 C 
ATOM     13  N   UNL     1       3.409   6.503  17.711  0.00  0.00    +0.000 NA
ATOM     14  C   UNL     1       2.686   6.753  18.857  0.00  0.00    +0.000 A 
ENDROOT
BRANCH  12  15
ATOM     15  C   UNL     1       6.742   6.403  17.078  0.00  0.00    +0.000 A 
ATOM     16  C   UNL     1       7.156   7.737  17.119  0.00  0.00    +0.000 A 
ATOM     17  N   UNL     1       8.013   8.251  18.033  0.00  0.00    +0.000 NA
ATOM     18  C   UNL     1       8.470   7.397  18.977  0.00  0.00    +0.000 A 
ATOM     19  C   UNL     1       8.115   6.062  19.031  0.00  0.00    +0.000 A 
ATOM     20  F   UNL     1       8.604   5.263  19.987  0.00  0.00    +0.000 F 
ATOM     21  C   UNL     1       7.246   5.554  18.072  0.00  0.00    +0.000 A 
ENDBRANCH  12  15
BRANCH   1  23
ATOM     22  N   UNL     1       0.640   9.845  19.199  0.00  0.00    +0.000 N 
ATOM     23  C   UNL     1       1.540   9.029  18.553  0.00  0.00    +0.000 C 
ATOM     24  O   UNL     1       2.035   9.309  17.464  0.00  0.00    +0.000 OA
ATOM     25  H   UNL     1       0.212   9.476  20.047  0.00  0.00    +0.000 HD
BRANCH  22  27
ATOM     26  C   UNL     1      -1.306  11.061  18.335  0.00  0.00    +0.000 C 
ATOM     27  C   UNL     1       0.190  11.102  18.631  0.00  0.00    +0.000 C 
ATOM     28  C   UNL     1       0.531  12.256  19.567  0.00  0.00    +0.000 C 
ENDBRANCH  22  27
ENDBRANCH   1  23
TORSDOF 3
ENDMDL
MODEL 3
REMARK VINA RESULT:      -7.4      1.360      1.742
REMARK  Name = 
REMARK  5 active torsions:
REMARK  status: ('A' for Active; 'I' for Inactive)
REMARK    1  A    between atoms: C_1  and  C_2
REMARK    2  A    between atoms: C_2  and  C_3
REMARK    3  A    between atoms: C_2  and  N_4
REMARK    4  A    between atoms: C_5  and  C_7
REMARK    5  A    between atoms: C_18  and  C_19
REMARK                            x       y       z     vdW  Elec       q    Type
REMARK                         _______ _______ _______ _____ _____    ______ ____
ROOT
ATOM      1  C   UNL     1       1.668   8.809  19.553  0.00  0.00    +0.000 A 
ATOM      2  C   UNL     1       1.316   8.933  20.913  0.00  0.00    +0.000 A 
ATOM      3  N   UNL     1       1.394   7.786  21.584  0.00  0.00    +0.000 NA
ATOM      4  N   UNL     1       1.800   6.889  20.657  0.00  0.00    +0.000 N 
ATOM      5  C   UNL     1       1.946   5.525  20.826  0.00  0.00    +0.000 A 
ATOM      6  C   UNL     1       2.363   4.765  19.811  0.00  0.00    +0.000 A 
ATOM      7  C   UNL     1       2.742   5.474  18.536  0.00  0.00    +0.000 A 
ATOM      8  N   UNL     1       3.348   4.715  17.562  0.00  0.00    +0.000 N 
ATOM      9  C   UNL     1       2.779   3.511  16.985  0.00  0.00    +0.000 C 
ATOM     10  C   UNL     1       4.009   2.775  16.488  0.00  0.00    +0.000 C 
ATOM     11  C   UNL     1       4.882   3.902  15.945  0.00  0.00    +0.000 C 
ATOM     12  C   UNL     1       4.541   5.131  16.822  0.00  0.00    +0.000 C 
ATOM     13  N   UNL     1       2.577   6.767  18.362  0.00  0.00    +0.000 NA
ATOM     14  C   UNL     1       2.056   7.486  19.416  0.00  0.00    +0.000 A 
ENDROOT
BRANCH  12  15
ATOM     15  C   UNL     1       5.672   5.518  17.745  0.00  0.00    +0.000 A 
ATOM     16  C   UNL     1       5.890   4.790  18.917  0.00  0.00    +0.000 A 
ATOM     17  N   UNL     1       6.865   5.055  19.819  0.00  0.00    +0.000 NA
ATOM     18  C   UNL     1       7.688   6.090  19.531  0.00  0.00    +0.000 A 
ATOM     19  C   UNL     1       7.563   6.866  18.394  0.00  0.00    +0.000 A 
ATOM     20  F   UNL     1       8.405   7.881  18.165  0.00  0.00    +0.000 F 
ATOM     21  C   UNL     1       6.545   6.585  17.491  0.00  0.00    +0.000 A 
ENDBRANCH  12  15
BRANCH   1  23
ATOM     22  N   UNL     1       1.228  11.099  19.042  0.00  0.00    +0.000 N 
ATOM     23  C   UNL     1       1.601   9.863  18.564  0.00  0.00    +0.000 C 
ATOM     24  O   UNL     1       1.902   9.664  17.390  0.00  0.00    +0.000 OA
ATOM     25  H   UNL     1       0.900  11.139  20.006  0.00  0.00    +0.000 HD
BRANCH  22  27
ATOM     26  C   UNL     1      -0.087  13.101  18.518  0.00  0.00    +0.000 C 
ATOM     27  C   UNL     1       1.146  12.267  18.185  0.00  0.00    +0.000 C 
ATOM     28  C   UNL     1       2.418  13.099  18.305  0.00  0.00    +0.000 C 
ENDBRANCH  22  27
ENDBRANCH   1  23
TORSDOF 3
ENDMDL
MODEL 4
REMARK VINA RESULT:      -7.2      1.126      1.179
REMARK  Name = 
REMARK  5 active torsions:
REMARK  status: ('A' for Active; 'I' for Inactive)
REMARK    1  A    between atoms: C_1  and  C_2
REMARK    2  A    between atoms: C_2  and  C_3
REMARK    3  A    between atoms: C_2  and  N_4
REMARK    4  A    between atoms: C_5  and  C_7
REMARK    5  A    between atoms: C_18  and  C_19
REMARK                            x       y       z     vdW  Elec       q    Type
REMARK                         _______ _______ _______ _____ _____    ______ ____
ROOT
ATOM      1  C   UNL     1       2.034   6.651  19.854  0.00  0.00    +0.000 A 
ATOM      2  C   UNL     1       1.695   5.952  21.031  0.00  0.00    +0.000 A 
ATOM      3  N   UNL     1       2.133   4.695  21.041  0.00  0.00    +0.000 NA
ATOM      4  N   UNL     1       2.767   4.558  19.855  0.00  0.00    +0.000 N 
ATOM      5  C   UNL     1       3.323   3.403  19.336  0.00  0.00    +0.000 A 
ATOM      6  C   UNL     1       3.924   3.425  18.146  0.00  0.00    +0.000 A 
ATOM      7  C   UNL     1       4.039   4.764  17.461  0.00  0.00    +0.000 A 
ATOM      8  N   UNL     1       4.821   4.818  16.332  0.00  0.00    +0.000 N 
ATOM      9  C   UNL     1       4.628   3.985  15.158  0.00  0.00    +0.000 C 
ATOM     10  C   UNL     1       6.011   3.979  14.532  0.00  0.00    +0.000 C 
ATOM     11  C   UNL     1       6.488   5.412  14.750  0.00  0.00    +0.000 C 
ATOM     12  C   UNL     1       5.814   5.861  16.069  0.00  0.00    +0.000 C 
ATOM     13  N   UNL     1       3.487   5.858  17.938  0.00  0.00    +0.000 NA
ATOM     14  C   UNL     1       2.800   5.754  19.128  0.00  0.00    +0.000 A 
ENDROOT
BRANCH  12  15
ATOM     15  C   UNL     1       6.798   6.004  17.206  0.00  0.00    +0.000 A 
ATOM     16  C   UNL     1       7.167   4.879  17.948  0.00  0.00    +0.000 A 
ATOM     17  N   UNL     1       8.031   4.893  18.991  0.00  0.00    +0.000 NA
ATOM     18  C   UNL     1       8.578   6.091  19.305  0.00  0.00    +0.000 A 
ATOM     19  C   UNL     1       8.286   7.260  18.628  0.00  0.00    +0.000 A 
ATOM     20  F   UNL     1       8.856   8.417  18.986  0.00  0.00    +0.000 F 
ATOM     21  C   UNL     1       7.386   7.223  17.570  0.00  0.00    +0.000 A 
ENDBRANCH  12  15
BRANCH   1  23
ATOM     22  N   UNL     1       1.716   8.339  18.196  0.00  0.00    +0.000 N 
ATOM     23  C   UNL     1       1.626   8.001  19.527  0.00  0.00    +0.000 C 
ATOM     24  O   UNL     1       1.187   8.765  20.383  0.00  0.00    +0.000 OA
ATOM     25  H   UNL     1       2.186   7.674  17.584  0.00  0.00    +0.000 HD
BRANCH  22  27
ATOM     26  C   UNL     1      -0.120   9.962  18.114  0.00  0.00    +0.000 C 
ATOM     27  C   UNL     1       1.314   9.642  17.700  0.00  0.00    +0.000 C 
ATOM     28  C   UNL     1       2.277  10.715  18.194  0.00  0.00    +0.000 C 
ENDBRANCH  22  27
ENDBRANCH   1  23
TORSDOF 3
ENDMDL
MODEL 5
REMARK VINA RESULT:      -7.1      3.071      8.648
REMARK  Name = 
REMARK  5 active torsions:
REMARK  status: ('A' for Active; 'I' for Inactive)
REMARK    1  A    between atoms: C_1  and  C_2
REMARK    2  A    between atoms: C_2  and  C_3
REMARK    3  A    between atoms: C_2  and  N_4
REMARK    4  A    between atoms: C_5  and  C_7
REMARK    5  A    between atoms: C_18  and  C_19
REMARK                            x       y       z     vdW  Elec       q    Type
REMARK                         _______ _______ _______ _____ _____    ______ ____
ROOT
ATOM      1  C   UNL     1       2.110   7.741  19.258  0.00  0.00    +0.000 A 
ATOM      2  C   UNL     1       1.835   6.666  20.128  0.00  0.00    +0.000 A 
ATOM      3  N   UNL     1       1.137   7.024  21.203  0.00  0.00    +0.000 NA
ATOM      4  N   UNL     1       0.949   8.354  21.046  0.00  0.00    +0.000 N 
ATOM      5  C   UNL     1       0.355   9.223  21.942  0.00  0.00    +0.000 A 
ATOM      6  C   UNL     1       0.236  10.517  21.641  0.00  0.00    +0.000 A 
ATOM      7  C   UNL     1       0.691  10.946  20.268  0.00  0.00    +0.000 A 
ATOM      8  N   UNL     1       0.394  12.235  19.892  0.00  0.00    +0.000 N 
ATOM      9  C   UNL     1       0.785  13.419  20.635  0.00  0.00    +0.000 C 
ATOM     10  C   UNL     1      -0.248  14.439  20.189  0.00  0.00    +0.000 C 
ATOM     11  C   UNL     1      -0.417  14.124  18.706  0.00  0.00    +0.000 C 
ATOM     12  C   UNL     1      -0.165  12.601  18.589  0.00  0.00    +0.000 C 
ATOM     13  N   UNL     1       1.282  10.128  19.426  0.00  0.00    +0.000 NA
ATOM     14  C   UNL     1       1.459   8.822  19.829  0.00  0.00    +0.000 A 
ENDROOT
BRANCH  12  15
ATOM     15  C   UNL     1      -1.423  11.826  18.275  0.00  0.00    +0.000 A 
ATOM     16  C   UNL     1      -2.597  12.096  18.981  0.00  0.00    +0.000 A 
ATOM     17  N   UNL     1      -3.777  11.458  18.790  0.00  0.00    +0.000 NA
ATOM     18  C   UNL     1      -3.798  10.508  17.826  0.00  0.00    +0.000 A 
ATOM     19  C   UNL     1      -2.693  10.172  17.065  0.00  0.00    +0.000 A 
ATOM     20  F   UNL     1      -2.774   9.220  16.128  0.00  0.00    +0.000 F 
ATOM     21  C   UNL     1      -1.491  10.831  17.291  0.00  0.00    +0.000 A 
ENDBRANCH  12  15
BRANCH   1  23
ATOM     22  N   UNL     1       3.838   6.650  18.023  0.00  0.00    +0.000 N 
ATOM     23  C   UNL     1       2.915   7.670  18.057  0.00  0.00    +0.000 C 
ATOM     24  O   UNL     1       2.743   8.447  17.121  0.00  0.00    +0.000 OA
ATOM     25  H   UNL     1       3.974   6.126  18.886  0.00  0.00    +0.000 HD
BRANCH  22  27
ATOM     26  C   UNL     1       6.101   6.962  17.134  0.00  0.00    +0.000 C 
ATOM     27  C   UNL     1       4.698   6.423  16.876  0.00  0.00    +0.000 C 
ATOM     28  C   UNL     1       4.737   4.938  16.533  0.00  0.00    +0.000 C 
ENDBRANCH  22  27
ENDBRANCH   1  23
TORSDOF 3
ENDMDL
MODEL 6
REMARK VINA RESULT:      -7.0      6.655      9.266
REMARK  Name = 
REMARK  5 active torsions:
REMARK  status: ('A' for Active; 'I' for Inactive)
REMARK    1  A    between atoms: C_1  and  C_2
REMARK    2  A    between atoms: C_2  and  C_3
REMARK    3  A    between atoms: C_2  and  N_4
REMARK    4  A    between atoms: C_5  and  C_7
REMARK    5  A    between atoms: C_18  and  C_19
REMARK                            x       y       z     vdW  Elec       q    Type
REMARK                         _______ _______ _______ _____ _____    ______ ____
ROOT
ATOM      1  C   UNL     1      -4.946  12.238  19.929  0.00  0.00    +0.000 A 
ATOM      2  C   UNL     1      -5.725  11.451  19.055  0.00  0.00    +0.000 A 
ATOM      3  N   UNL     1      -5.046  11.008  17.999  0.00  0.00    +0.000 NA
ATOM      4  N   UNL     1      -3.803  11.510  18.173  0.00  0.00    +0.000 N 
ATOM      5  C   UNL     1      -2.736  11.414  17.299  0.00  0.00    +0.000 A 
ATOM      6  C   UNL     1      -1.560  11.959  17.614  0.00  0.00    +0.000 A 
ATOM      7  C   UNL     1      -1.441  12.588  18.980  0.00  0.00    +0.000 A 
ATOM      8  N   UNL     1      -0.183  12.978  19.375  0.00  0.00    +0.000 N 
ATOM      9  C   UNL     1       0.663  13.896  18.634  0.00  0.00    +0.000 C 
ATOM     10  C   UNL     1       2.053  13.516  19.112  0.00  0.00    +0.000 C 
ATOM     11  C   UNL     1       1.835  13.234  20.596  0.00  0.00    +0.000 C 
ATOM     12  C   UNL     1       0.387  12.696  20.693  0.00  0.00    +0.000 C 
ATOM     13  N   UNL     1      -2.461  12.706  19.802  0.00  0.00    +0.000 NA
ATOM     14  C   UNL     1      -3.674  12.204  19.383  0.00  0.00    +0.000 A 
ENDROOT
BRANCH  12  15
ATOM     15  C   UNL     1       0.335  11.224  21.028  0.00  0.00    +0.000 A 
ATOM     16  C   UNL     1       0.976  10.302  20.198  0.00  0.00    +0.000 A 
ATOM     17  N   UNL     1       0.986   8.962  20.397  0.00  0.00    +0.000 NA
ATOM     18  C   UNL     1       0.339   8.511  21.497  0.00  0.00    +0.000 A 
ATOM     19  C   UNL     1      -0.318   9.342  22.386  0.00  0.00    +0.000 A 
ATOM     20  F   UNL     1      -0.944   8.837  23.455  0.00  0.00    +0.000 F 
ATOM     21  C   UNL     1      -0.326  10.711  22.152  0.00  0.00    +0.000 A 
ENDBRANCH  12  15
BRANCH   1  23
ATOM     22  N   UNL     1      -4.962  12.429  22.308  0.00  0.00    +0.000 N 
ATOM     23  C   UNL     1      -5.431  12.919  21.111  0.00  0.00    +0.000 C 
ATOM     24  O   UNL     1      -6.174  13.894  21.032  0.00  0.00    +0.000 OA
ATOM     25  H   UNL     1      -4.435  11.558  22.274  0.00  0.00    +0.000 HD
BRANCH  22  27
ATOM     26  C   UNL     1      -6.707  12.551  24.026  0.00  0.00    +0.000 C 
ATOM     27  C   UNL     1      -5.326  13.023  23.582  0.00  0.00    +0.000 C 
ATOM     28  C   UNL     1      -4.272  12.699  24.635  0.00  0.00    +0.000 C 
ENDBRANCH  22  27
ENDBRANCH   1  23
TORSDOF 3
ENDMDL
MODEL 7
REMARK VINA RESULT:      -7.0      7.534      9.606
REMARK  Name = 
REMARK  5 active torsions:
REMARK  status: ('A' for Active; 'I' for Inactive)
REMARK    1  A    between atoms: C_1  and  C_2
REMARK    2  A    between atoms: C_2  and  C_3
REMARK    3  A    between atoms: C_2  and  N_4
REMARK    4  A    between atoms: C_5  and  C_7
REMARK    5  A    between atoms: C_18  and  C_19
REMARK                            x       y       z     vdW  Elec       q    Type
REMARK                         _______ _______ _______ _____ _____    ______ ____
ROOT
ATOM      1  C   UNL     1      -5.174  12.219  19.694  0.00  0.00    +0.000 A 
ATOM      2  C   UNL     1      -5.748  11.244  18.852  0.00  0.00    +0.000 A 
ATOM      3  N   UNL     1      -4.883  10.718  17.989  0.00  0.00    +0.000 NA
ATOM      4  N   UNL     1      -3.721  11.354  18.260  0.00  0.00    +0.000 N 
ATOM      5  C   UNL     1      -2.525  11.232  17.575  0.00  0.00    +0.000 A 
ATOM      6  C   UNL     1      -1.455  11.925  17.968  0.00  0.00    +0.000 A 
ATOM      7  C   UNL     1      -1.597  12.754  19.219  0.00  0.00    +0.000 A 
ATOM      8  N   UNL     1      -0.448  13.313  19.726  0.00  0.00    +0.000 N 
ATOM      9  C   UNL     1       0.438  14.189  18.980  0.00  0.00    +0.000 C 
ATOM     10  C   UNL     1       1.759  14.014  19.708  0.00  0.00    +0.000 C 
ATOM     11  C   UNL     1       1.330  13.932  21.170  0.00  0.00    +0.000 C 
ATOM     12  C   UNL     1      -0.073  13.281  21.141  0.00  0.00    +0.000 C 
ATOM     13  N   UNL     1      -2.739  12.895  19.856  0.00  0.00    +0.000 NA
ATOM     14  C   UNL     1      -3.833  12.226  19.350  0.00  0.00    +0.000 A 
ENDROOT
BRANCH  12  15
ATOM     15  C   UNL     1      -0.074  11.875  21.693  0.00  0.00    +0.000 A 
ATOM     16  C   UNL     1      -0.903  11.554  22.770  0.00  0.00    +0.000 A 
ATOM     17  N   UNL     1      -0.977  10.332  23.350  0.00  0.00    +0.000 NA
ATOM     18  C   UNL     1      -0.196   9.364  22.815  0.00  0.00    +0.000 A 
ATOM     19  C   UNL     1       0.652   9.576  21.744  0.00  0.00    +0.000 A 
ATOM     20  F   UNL     1       1.404   8.580  21.261  0.00  0.00    +0.000 F 
ATOM     21  C   UNL     1       0.721  10.843  21.177  0.00  0.00    +0.000 A 
ENDBRANCH  12  15
BRANCH   1  23
ATOM     22  N   UNL     1      -5.455  12.881  21.970  0.00  0.00    +0.000 N 
ATOM     23  C   UNL     1      -5.886  13.017  20.671  0.00  0.00    +0.000 C 
ATOM     24  O   UNL     1      -6.780  13.791  20.340  0.00  0.00    +0.000 OA
ATOM     25  H   UNL     1      -4.779  12.141  22.156  0.00  0.00    +0.000 HD
BRANCH  22  27
ATOM     26  C   UNL     1      -6.686  12.705  24.084  0.00  0.00    +0.000 C 
ATOM     27  C   UNL     1      -6.041  13.637  23.062  0.00  0.00    +0.000 C 
ATOM     28  C   UNL     1      -4.987  14.521  23.718  0.00  0.00    +0.000 C 
ENDBRANCH  22  27
ENDBRANCH   1  23
TORSDOF 3
ENDMDL
MODEL 8
REMARK VINA RESULT:      -6.9      3.313      8.623
REMARK  Name = 
REMARK  5 active torsions:
REMARK  status: ('A' for Active; 'I' for Inactive)
REMARK    1  A    between atoms: C_1  and  C_2
REMARK    2  A    between atoms: C_2  and  C_3
REMARK    3  A    between atoms: C_2  and  N_4
REMARK    4  A    between atoms: C_5  and  C_7
REMARK    5  A    between atoms: C_18  and  C_19
REMARK                            x       y       z     vdW  Elec       q    Type
REMARK                         _______ _______ _______ _____ _____    ______ ____
ROOT
ATOM      1  C   UNL     1       2.233   7.554  19.212  0.00  0.00    +0.000 A 
ATOM      2  C   UNL     1       1.971   6.451  20.050  0.00  0.00    +0.000 A 
ATOM      3  N   UNL     1       1.258   6.766  21.129  0.00  0.00    +0.000 NA
ATOM      4  N   UNL     1       1.047   8.095  21.007  0.00  0.00    +0.000 N 
ATOM      5  C   UNL     1       0.429   8.928  21.922  0.00  0.00    +0.000 A 
ATOM      6  C   UNL     1       0.288  10.227  21.656  0.00  0.00    +0.000 A 
ATOM      7  C   UNL     1       0.746  10.703  20.300  0.00  0.00    +0.000 A 
ATOM      8  N   UNL     1       0.427  11.996  19.957  0.00  0.00    +0.000 N 
ATOM      9  C   UNL     1       0.790  13.166  20.736  0.00  0.00    +0.000 C 
ATOM     10  C   UNL     1      -0.257  14.179  20.311  0.00  0.00    +0.000 C 
ATOM     11  C   UNL     1      -0.409  13.902  18.818  0.00  0.00    +0.000 C 
ATOM     12  C   UNL     1      -0.127  12.389  18.661  0.00  0.00    +0.000 C 
ATOM     13  N   UNL     1       1.358   9.921  19.440  0.00  0.00    +0.000 NA
ATOM     14  C   UNL     1       1.558   8.608  19.807  0.00  0.00    +0.000 A 
ENDROOT
BRANCH  12  15
ATOM     15  C   UNL     1      -1.368  11.599  18.315  0.00  0.00    +0.000 A 
ATOM     16  C   UNL     1      -1.273  10.497  17.463  0.00  0.00    +0.000 A 
ATOM     17  N   UNL     1      -2.319   9.726  17.079  0.00  0.00    +0.000 NA
ATOM     18  C   UNL     1      -3.529  10.056  17.588  0.00  0.00    +0.000 A 
ATOM     19  C   UNL     1      -3.728  11.122  18.445  0.00  0.00    +0.000 A 
ATOM     20  F   UNL     1      -4.950  11.402  18.913  0.00  0.00    +0.000 F 
ATOM     21  C   UNL     1      -2.642  11.907  18.812  0.00  0.00    +0.000 A 
ENDBRANCH  12  15
BRANCH   1  23
ATOM     22  N   UNL     1       3.992   6.533  17.963  0.00  0.00    +0.000 N 
ATOM     23  C   UNL     1       3.048   7.533  18.016  0.00  0.00    +0.000 C 
ATOM     24  O   UNL     1       2.867   8.331  17.100  0.00  0.00    +0.000 OA
ATOM     25  H   UNL     1       4.132   5.988  18.812  0.00  0.00    +0.000 HD
BRANCH  22  27
ATOM     26  C   UNL     1       6.257   6.910  17.103  0.00  0.00    +0.000 C 
ATOM     27  C   UNL     1       4.865   6.354  16.818  0.00  0.00    +0.000 C 
ATOM     28  C   UNL     1       4.934   4.881  16.432  0.00  0.00    +0.000 C 
ENDBRANCH  22  27
ENDBRANCH   1  23
TORSDOF 3
ENDMDL
MODEL 9
REMARK VINA RESULT:      -6.9      7.378      9.149
REMARK  Name = 
REMARK  5 active torsions:
REMARK  status: ('A' for Active; 'I' for Inactive)
REMARK    1  A    between atoms: C_1  and  C_2
REMARK    2  A    between atoms: C_2  and  C_3
REMARK    3  A    between atoms: C_2  and  N_4
REMARK    4  A    between atoms: C_5  and  C_7
REMARK    5  A    between atoms: C_18  and  C_19
REMARK                            x       y       z     vdW  Elec       q    Type
REMARK                         _______ _______ _______ _____ _____    ______ ____
ROOT
ATOM      1  C   UNL     1      -4.896  12.171  19.266  0.00  0.00    +0.000 A 
ATOM      2  C   UNL     1      -5.593  11.136  18.609  0.00  0.00    +0.000 A 
ATOM      3  N   UNL     1      -4.804  10.344  17.888  0.00  0.00    +0.000 NA
ATOM      4  N   UNL     1      -3.568  10.861  18.067  0.00  0.00    +0.000 N 
ATOM      5  C   UNL     1      -2.397  10.453  17.453  0.00  0.00    +0.000 A 
ATOM      6  C   UNL     1      -1.245  11.062  17.737  0.00  0.00    +0.000 A 
ATOM      7  C   UNL     1      -1.278  12.128  18.803  0.00  0.00    +0.000 A 
ATOM      8  N   UNL     1      -0.065  12.618  19.227  0.00  0.00    +0.000 N 
ATOM      9  C   UNL     1       0.934  13.209  18.354  0.00  0.00    +0.000 C 
ATOM     10  C   UNL     1       2.216  13.005  19.141  0.00  0.00    +0.000 C 
ATOM     11  C   UNL     1       1.776  13.264  20.579  0.00  0.00    +0.000 C 
ATOM     12  C   UNL     1       0.297  12.810  20.633  0.00  0.00    +0.000 C 
ATOM     13  N   UNL     1      -2.392  12.538  19.368  0.00  0.00    +0.000 NA
ATOM     14  C   UNL     1      -3.564  11.934  18.967  0.00  0.00    +0.000 A 
ENDROOT
BRANCH  12  15
ATOM     15  C   UNL     1       0.105  11.549  21.443  0.00  0.00    +0.000 A 
ATOM     16  C   UNL     1      -0.728  11.566  22.564  0.00  0.00    +0.000 A 
ATOM     17  N   UNL     1      -0.964  10.500  23.366  0.00  0.00    +0.000 NA
ATOM     18  C   UNL     1      -0.354   9.342  23.023  0.00  0.00    +0.000 A 
ATOM     19  C   UNL     1       0.481   9.218  21.929  0.00  0.00    +0.000 A 
ATOM     20  F   UNL     1       1.060   8.046  21.641  0.00  0.00    +0.000 F 
ATOM     21  C   UNL     1       0.720  10.330  21.130  0.00  0.00    +0.000 A 
ENDBRANCH  12  15
BRANCH   1  23
ATOM     22  N   UNL     1      -4.848  14.441  20.003  0.00  0.00    +0.000 N 
ATOM     23  C   UNL     1      -5.497  13.228  20.052  0.00  0.00    +0.000 C 
ATOM     24  O   UNL     1      -6.539  13.052  20.677  0.00  0.00    +0.000 OA
ATOM     25  H   UNL     1      -3.940  14.458  19.542  0.00  0.00    +0.000 HD
BRANCH  22  27
ATOM     26  C   UNL     1      -4.621  15.787  22.040  0.00  0.00    +0.000 C 
ATOM     27  C   UNL     1      -5.342  15.610  20.707  0.00  0.00    +0.000 C 
ATOM     28  C   UNL     1      -5.192  16.852  19.836  0.00  0.00    +0.000 C 
ENDBRANCH  22  27
ENDBRANCH   1  23
TORSDOF 3
ENDMDL
