MODEL 1
REMARK VINA RESULT:      -9.6      0.000      0.000
REMARK  Name = 
REMARK  5 active torsions:
REMARK  status: ('A' for Active; 'I' for Inactive)
REMARK    1  A    between atoms: C_1  and  C_2
REMARK    2  A    between atoms: C_6  and  C_7
REMARK    3  A    between atoms: N_12  and  C_13
REMARK    4  A    between atoms: C_13  and  C_14
REMARK    5  A    between atoms: C_17  and  C_18
REMARK                            x       y       z     vdW  Elec       q    Type
REMARK                         _______ _______ _______ _____ _____    ______ ____
ROOT
ATOM      1  C   UNL     1       1.501   8.269  20.187  0.00  0.00    +0.000 C 
ATOM      2  O   UNL     1       1.658   7.774  21.301  0.00  0.00    +0.000 OA
ATOM      3  N   UNL     1       1.986   7.722  19.021  0.00  0.00    +0.000 N 
ATOM      4  C   UNL     1       2.704   6.544  19.033  0.00  0.00    +0.000 A 
ATOM      5  N   UNL     1       3.834   6.477  18.329  0.00  0.00    +0.000 NA
ATOM      6  N   UNL     1       4.361   5.281  18.683  0.00  0.00    +0.000 N 
ATOM      7  C   UNL     1       3.512   4.503  19.444  0.00  0.00    +0.000 A 
ATOM      8  C   UNL     1       3.612   3.194  19.929  0.00  0.00    +0.000 A 
ATOM      9  C   UNL     1       2.538   2.689  20.668  0.00  0.00    +0.000 A 
ATOM     10  C   UNL     1       1.414   3.471  20.920  0.00  0.00    +0.000 A 
ATOM     11  C   UNL     1       1.339   4.788  20.445  0.00  0.00    +0.000 A 
ATOM     12  C   UNL     1       2.411   5.315  19.694  0.00  0.00    +0.000 A 
ATOM     13  H   UNL     1       2.281   8.359  18.299  0.00  0.00    +0.000 HD
ENDROOT
BRANCH   1  19
ATOM     14  C   UNL     1      -0.169  10.171  22.438  0.00  0.00    +0.000 C 
ATOM     15  C   UNL     1       0.161  10.326  21.005  0.00  0.00    +0.000 A 
ATOM     16  O   UNL     1      -0.248  11.506  20.453  0.00  0.00    +0.000 OA
ATOM     17  C   UNL     1       0.155  11.516  19.161  0.00  0.00    +0.000 A 
ATOM     18  C   UNL     1       0.810  10.350  18.863  0.00  0.00    +0.000 A 
ATOM     19  C   UNL     1       0.835   9.564  20.060  0.00  0.00    +0.000 A 
ENDBRANCH   1  19
BRANCH   6  20
ATOM     20  C   UNL     1       5.732   4.958  18.301  0.00  0.00    +0.000 C 
BRANCH  20  21
ATOM     21  C   UNL     1       5.862   4.728  16.816  0.00  0.00    +0.000 A 
ATOM     22  C   UNL     1       4.817   4.124  16.102  0.00  0.00    +0.000 A 
ATOM     23  C   UNL     1       4.958   3.836  14.744  0.00  0.00    +0.000 A 
ATOM     24  C   UNL     1       6.143   4.155  14.070  0.00  0.00    +0.000 A 
ATOM     25  C   UNL     1       7.165   4.816  14.770  0.00  0.00    +0.000 A 
ATOM     26  C   UNL     1       7.025   5.101  16.130  0.00  0.00    +0.000 A 
BRANCH  24  27
ATOM     27  C   UNL     1       6.342   3.769  12.628  0.00  0.00    +0.000 C 
ATOM     28  F   UNL     1       5.217   3.892  11.867  0.00  0.00    +0.000 F 
ATOM     29  F   UNL     1       7.292   4.527  12.009  0.00  0.00    +0.000 F 
ATOM     30  F   UNL     1       6.746   2.476  12.485  0.00  0.00    +0.000 F 
ENDBRANCH  24  27
ENDBRANCH  20  21
ENDBRANCH   6  20
TORSDOF 4
ENDMDL
MODEL 2
REMARK VINA RESULT:      -9.5      0.826      1.548
REMARK  Name = 
REMARK  5 active torsions:
REMARK  status: ('A' for Active; 'I' for Inactive)
REMARK    1  A    between atoms: C_1  and  C_2
REMARK    2  A    between atoms: C_6  and  C_7
REMARK    3  A    between atoms: N_12  and  C_13
REMARK    4  A    between atoms: C_13  and  C_14
REMARK    5  A    between atoms: C_17  and  C_18
REMARK                            x       y       z     vdW  Elec       q    Type
REMARK                         _______ _______ _______ _____ _____    ______ ____
ROOT
ATOM      1  C   UNL     1       1.502   8.591  19.628  0.00  0.00    +0.000 C 
ATOM      2  O   UNL     1       1.681   8.194  20.777  0.00  0.00    +0.000 OA
ATOM      3  N   UNL     1       2.020   7.983  18.508  0.00  0.00    +0.000 N 
ATOM      4  C   UNL     1       2.799   6.849  18.611  0.00  0.00    +0.000 A 
ATOM      5  N   UNL     1       3.935   6.788  17.914  0.00  0.00    +0.000 NA
ATOM      6  N   UNL     1       4.523   5.653  18.360  0.00  0.00    +0.000 N 
ATOM      7  C   UNL     1       3.714   4.892  19.179  0.00  0.00    +0.000 A 
ATOM      8  C   UNL     1       3.881   3.632  19.765  0.00  0.00    +0.000 A 
ATOM      9  C   UNL     1       2.833   3.130  20.541  0.00  0.00    +0.000 A 
ATOM     10  C   UNL     1       1.667   3.868  20.731  0.00  0.00    +0.000 A 
ATOM     11  C   UNL     1       1.525   5.137  20.156  0.00  0.00    +0.000 A 
ATOM     12  C   UNL     1       2.570   5.662  19.365  0.00  0.00    +0.000 A 
ATOM     13  H   UNL     1       2.284   8.576  17.738  0.00  0.00    +0.000 HD
ENDROOT
BRANCH   1  19
ATOM     14  C   UNL     1       2.380  11.467  18.070  0.00  0.00    +0.000 C 
ATOM     15  C   UNL     1       1.154  11.001  18.751  0.00  0.00    +0.000 A 
ATOM     16  O   UNL     1       0.116  11.888  18.722  0.00  0.00    +0.000 OA
ATOM     17  C   UNL     1      -0.936  11.310  19.347  0.00  0.00    +0.000 A 
ATOM     18  C   UNL     1      -0.590  10.061  19.793  0.00  0.00    +0.000 A 
ATOM     19  C   UNL     1       0.769   9.835  19.401  0.00  0.00    +0.000 A 
ENDBRANCH   1  19
BRANCH   6  20
ATOM     20  C   UNL     1       5.910   5.374  18.004  0.00  0.00    +0.000 C 
BRANCH  20  21
ATOM     21  C   UNL     1       6.036   4.863  16.591  0.00  0.00    +0.000 A 
ATOM     22  C   UNL     1       7.105   5.277  15.783  0.00  0.00    +0.000 A 
ATOM     23  C   UNL     1       7.187   4.871  14.451  0.00  0.00    +0.000 A 
ATOM     24  C   UNL     1       6.207   4.036  13.901  0.00  0.00    +0.000 A 
ATOM     25  C   UNL     1       5.171   3.571  14.726  0.00  0.00    +0.000 A 
ATOM     26  C   UNL     1       5.087   3.980  16.060  0.00  0.00    +0.000 A 
BRANCH  24  27
ATOM     27  C   UNL     1       6.236   3.663  12.442  0.00  0.00    +0.000 C 
ATOM     28  F   UNL     1       5.024   3.765  11.826  0.00  0.00    +0.000 F 
ATOM     29  F   UNL     1       7.086   4.446  11.718  0.00  0.00    +0.000 F 
ATOM     30  F   UNL     1       6.648   2.381  12.240  0.00  0.00    +0.000 F 
ENDBRANCH  24  27
ENDBRANCH  20  21
ENDBRANCH   6  20
TORSDOF 4
ENDMDL
MODEL 3
REMARK VINA RESULT:      -9.4      0.499      1.345
REMARK  Name = 
REMARK  5 active torsions:
REMARK  status: ('A' for Active; 'I' for Inactive)
REMARK    1  A    between atoms: C_1  and  C_2
REMARK    2  A    between atoms: C_6  and  C_7
REMARK    3  A    between atoms: N_12  and  C_13
REMARK    4  A    between atoms: C_13  and  C_14
REMARK    5  A    between atoms: C_17  and  C_18
REMARK                            x       y       z     vdW  Elec       q    Type
REMARK                         _______ _______ _______ _____ _____    ______ ____
ROOT
ATOM      1  C   UNL     1       1.578   8.232  20.127  0.00  0.00    +0.000 C 
ATOM      2  O   UNL     1       1.759   7.768  21.249  0.00  0.00    +0.000 OA
ATOM      3  N   UNL     1       2.045   7.658  18.966  0.00  0.00    +0.000 N 
ATOM      4  C   UNL     1       2.771   6.486  18.995  0.00  0.00    +0.000 A 
ATOM      5  N   UNL     1       3.889   6.407  18.272  0.00  0.00    +0.000 NA
ATOM      6  N   UNL     1       4.430   5.225  18.647  0.00  0.00    +0.000 N 
ATOM      7  C   UNL     1       3.601   4.461  19.444  0.00  0.00    +0.000 A 
ATOM      8  C   UNL     1       3.719   3.166  19.962  0.00  0.00    +0.000 A 
ATOM      9  C   UNL     1       2.662   2.674  20.734  0.00  0.00    +0.000 A 
ATOM     10  C   UNL     1       1.537   3.455  20.986  0.00  0.00    +0.000 A 
ATOM     11  C   UNL     1       1.445   4.758  20.478  0.00  0.00    +0.000 A 
ATOM     12  C   UNL     1       2.499   5.273  19.693  0.00  0.00    +0.000 A 
ATOM     13  H   UNL     1       2.322   8.277  18.222  0.00  0.00    +0.000 HD
ENDROOT
BRANCH   1  19
ATOM     14  C   UNL     1       2.099  10.815  17.999  0.00  0.00    +0.000 C 
ATOM     15  C   UNL     1       1.134  10.561  19.089  0.00  0.00    +0.000 A 
ATOM     16  O   UNL     1       0.210  11.550  19.272  0.00  0.00    +0.000 OA
ATOM     17  C   UNL     1      -0.618  11.159  20.268  0.00  0.00    +0.000 A 
ATOM     18  C   UNL     1      -0.235   9.933  20.746  0.00  0.00    +0.000 A 
ATOM     19  C   UNL     1       0.901   9.519  19.978  0.00  0.00    +0.000 A 
ENDBRANCH   1  19
BRANCH   6  20
ATOM     20  C   UNL     1       5.796   4.900  18.249  0.00  0.00    +0.000 C 
BRANCH  20  21
ATOM     21  C   UNL     1       5.909   4.676  16.762  0.00  0.00    +0.000 A 
ATOM     22  C   UNL     1       4.860   4.063  16.060  0.00  0.00    +0.000 A 
ATOM     23  C   UNL     1       4.986   3.780  14.699  0.00  0.00    +0.000 A 
ATOM     24  C   UNL     1       6.159   4.113  14.011  0.00  0.00    +0.000 A 
ATOM     25  C   UNL     1       7.183   4.782  14.699  0.00  0.00    +0.000 A 
ATOM     26  C   UNL     1       7.059   5.062  16.062  0.00  0.00    +0.000 A 
BRANCH  24  27
ATOM     27  C   UNL     1       6.343   3.733  12.565  0.00  0.00    +0.000 C 
ATOM     28  F   UNL     1       7.249   4.510  11.905  0.00  0.00    +0.000 F 
ATOM     29  F   UNL     1       6.774   2.449  12.410  0.00  0.00    +0.000 F 
ATOM     30  F   UNL     1       5.187   3.827  11.851  0.00  0.00    +0.000 F 
ENDBRANCH  24  27
ENDBRANCH  20  21
ENDBRANCH   6  20
TORSDOF 4
ENDMDL
MODEL 4
REMARK VINA RESULT:      -9.2      1.030      1.891
REMARK  Name = 
REMARK  5 active torsions:
REMARK  status: ('A' for Active; 'I' for Inactive)
REMARK    1  A    between atoms: C_1  and  C_2
REMARK    2  A    between atoms: C_6  and  C_7
REMARK    3  A    between atoms: N_12  and  C_13
REMARK    4  A    between atoms: C_13  and  C_14
REMARK    5  A    between atoms: C_17  and  C_18
REMARK                            x       y       z     vdW  Elec       q    Type
REMARK                         _______ _______ _______ _____ _____    ______ ____
ROOT
ATOM      1  C   UNL     1       1.704   7.393  20.275  0.00  0.00    +0.000 C 
ATOM      2  O   UNL     1       1.673   6.513  21.131  0.00  0.00    +0.000 OA
ATOM      3  N   UNL     1       2.330   7.269  19.056  0.00  0.00    +0.000 N 
ATOM      4  C   UNL     1       2.986   6.105  18.710  0.00  0.00    +0.000 A 
ATOM      5  N   UNL     1       4.204   6.192  18.174  0.00  0.00    +0.000 NA
ATOM      6  N   UNL     1       4.619   4.905  18.112  0.00  0.00    +0.000 N 
ATOM      7  C   UNL     1       3.633   3.987  18.416  0.00  0.00    +0.000 A 
ATOM      8  C   UNL     1       3.602   2.588  18.381  0.00  0.00    +0.000 A 
ATOM      9  C   UNL     1       2.410   1.954  18.741  0.00  0.00    +0.000 A 
ATOM     10  C   UNL     1       1.296   2.694  19.132  0.00  0.00    +0.000 A 
ATOM     11  C   UNL     1       1.351   4.093  19.182  0.00  0.00    +0.000 A 
ATOM     12  C   UNL     1       2.544   4.754  18.819  0.00  0.00    +0.000 A 
ATOM     13  H   UNL     1       2.757   8.094  18.668  0.00  0.00    +0.000 HD
ENDROOT
BRANCH   1  19
ATOM     14  C   UNL     1       0.563   9.850  18.242  0.00  0.00    +0.000 C 
ATOM     15  C   UNL     1       0.657   9.691  19.708  0.00  0.00    +0.000 A 
ATOM     16  O   UNL     1       0.136  10.729  20.426  0.00  0.00    +0.000 OA
ATOM     17  C   UNL     1       0.259  10.424  21.738  0.00  0.00    +0.000 A 
ATOM     18  C   UNL     1       0.867   9.204  21.883  0.00  0.00    +0.000 A 
ATOM     19  C   UNL     1       1.122   8.703  20.565  0.00  0.00    +0.000 A 
ENDBRANCH   1  19
BRANCH   6  20
ATOM     20  C   UNL     1       6.015   4.613  17.804  0.00  0.00    +0.000 C 
BRANCH  20  21
ATOM     21  C   UNL     1       6.224   4.360  16.333  0.00  0.00    +0.000 A 
ATOM     22  C   UNL     1       7.266   5.002  15.648  0.00  0.00    +0.000 A 
ATOM     23  C   UNL     1       7.420   4.835  14.271  0.00  0.00    +0.000 A 
ATOM     24  C   UNL     1       6.541   4.015  13.552  0.00  0.00    +0.000 A 
ATOM     25  C   UNL     1       5.538   3.323  14.248  0.00  0.00    +0.000 A 
ATOM     26  C   UNL     1       5.381   3.493  15.626  0.00  0.00    +0.000 A 
BRANCH  24  27
ATOM     27  C   UNL     1       6.642   3.897  12.054  0.00  0.00    +0.000 C 
ATOM     28  F   UNL     1       7.244   2.748  11.634  0.00  0.00    +0.000 F 
ATOM     29  F   UNL     1       5.424   3.922  11.443  0.00  0.00    +0.000 F 
ATOM     30  F   UNL     1       7.358   4.914  11.499  0.00  0.00    +0.000 F 
ENDBRANCH  24  27
ENDBRANCH  20  21
ENDBRANCH   6  20
TORSDOF 4
ENDMDL
MODEL 5
REMARK VINA RESULT:      -9.2      0.935      1.427
REMARK  Name = 
REMARK  5 active torsions:
REMARK  status: ('A' for Active; 'I' for Inactive)
REMARK    1  A    between atoms: C_1  and  C_2
REMARK    2  A    between atoms: C_6  and  C_7
REMARK    3  A    between atoms: N_12  and  C_13
REMARK    4  A    between atoms: C_13  and  C_14
REMARK    5  A    between atoms: C_17  and  C_18
REMARK                            x       y       z     vdW  Elec       q    Type
REMARK                         _______ _______ _______ _____ _____    ______ ____
ROOT
ATOM      1  C   UNL     1       1.680   7.641  20.059  0.00  0.00    +0.000 C 
ATOM      2  O   UNL     1       1.676   6.843  20.993  0.00  0.00    +0.000 OA
ATOM      3  N   UNL     1       2.301   7.418  18.852  0.00  0.00    +0.000 N 
ATOM      4  C   UNL     1       2.982   6.243  18.610  0.00  0.00    +0.000 A 
ATOM      5  N   UNL     1       4.194   6.307  18.057  0.00  0.00    +0.000 NA
ATOM      6  N   UNL     1       4.639   5.030  18.112  0.00  0.00    +0.000 N 
ATOM      7  C   UNL     1       3.678   4.122  18.508  0.00  0.00    +0.000 A 
ATOM      8  C   UNL     1       3.680   2.726  18.604  0.00  0.00    +0.000 A 
ATOM      9  C   UNL     1       2.505   2.101  19.031  0.00  0.00    +0.000 A 
ATOM     10  C   UNL     1       1.377   2.848  19.361  0.00  0.00    +0.000 A 
ATOM     11  C   UNL     1       1.399   4.246  19.280  0.00  0.00    +0.000 A 
ATOM     12  C   UNL     1       2.574   4.898  18.848  0.00  0.00    +0.000 A 
ATOM     13  H   UNL     1       2.705   8.213  18.385  0.00  0.00    +0.000 HD
ENDROOT
BRANCH   1  19
ATOM     14  C   UNL     1       0.850   9.389  22.839  0.00  0.00    +0.000 C 
ATOM     15  C   UNL     1       0.744   9.654  21.389  0.00  0.00    +0.000 A 
ATOM     16  O   UNL     1       0.247  10.886  21.072  0.00  0.00    +0.000 OA
ATOM     17  C   UNL     1       0.246  10.994  19.723  0.00  0.00    +0.000 A 
ATOM     18  C   UNL     1       0.725   9.841  19.158  0.00  0.00    +0.000 A 
ATOM     19  C   UNL     1       1.069   8.958  20.232  0.00  0.00    +0.000 A 
ENDBRANCH   1  19
BRANCH   6  20
ATOM     20  C   UNL     1       6.040   4.744  17.820  0.00  0.00    +0.000 C 
BRANCH  20  21
ATOM     21  C   UNL     1       6.264   4.470  16.354  0.00  0.00    +0.000 A 
ATOM     22  C   UNL     1       7.229   5.195  15.641  0.00  0.00    +0.000 A 
ATOM     23  C   UNL     1       7.390   5.005  14.268  0.00  0.00    +0.000 A 
ATOM     24  C   UNL     1       6.595   4.079  13.582  0.00  0.00    +0.000 A 
ATOM     25  C   UNL     1       5.672   3.309  14.306  0.00  0.00    +0.000 A 
ATOM     26  C   UNL     1       5.509   3.502  15.680  0.00  0.00    +0.000 A 
BRANCH  24  27
ATOM     27  C   UNL     1       6.696   3.928  12.087  0.00  0.00    +0.000 C 
ATOM     28  F   UNL     1       7.372   4.944  11.478  0.00  0.00    +0.000 F 
ATOM     29  F   UNL     1       7.338   2.783  11.718  0.00  0.00    +0.000 F 
ATOM     30  F   UNL     1       5.476   3.882  11.484  0.00  0.00    +0.000 F 
ENDBRANCH  24  27
ENDBRANCH  20  21
ENDBRANCH   6  20
TORSDOF 4
ENDMDL
MODEL 6
REMARK VINA RESULT:      -8.8      1.002      1.542
REMARK  Name = 
REMARK  5 active torsions:
REMARK  status: ('A' for Active; 'I' for Inactive)
REMARK    1  A    between atoms: C_1  and  C_2
REMARK    2  A    between atoms: C_6  and  C_7
REMARK    3  A    between atoms: N_12  and  C_13
REMARK    4  A    between atoms: C_13  and  C_14
REMARK    5  A    between atoms: C_17  and  C_18
REMARK                            x       y       z     vdW  Elec       q    Type
REMARK                         _______ _______ _______ _____ _____    ______ ____
ROOT
ATOM      1  C   UNL     1       1.272   8.930  19.962  0.00  0.00    +0.000 C 
ATOM      2  O   UNL     1       1.514   8.477  21.077  0.00  0.00    +0.000 OA
ATOM      3  N   UNL     1       1.724   8.377  18.786  0.00  0.00    +0.000 N 
ATOM      4  C   UNL     1       2.504   7.239  18.789  0.00  0.00    +0.000 A 
ATOM      5  N   UNL     1       3.599   7.212  18.028  0.00  0.00    +0.000 NA
ATOM      6  N   UNL     1       4.206   6.055  18.383  0.00  0.00    +0.000 N 
ATOM      7  C   UNL     1       3.441   5.255  19.208  0.00  0.00    +0.000 A 
ATOM      8  C   UNL     1       3.636   3.967  19.720  0.00  0.00    +0.000 A 
ATOM      9  C   UNL     1       2.630   3.428  20.527  0.00  0.00    +0.000 A 
ATOM     10  C   UNL     1       1.480   4.158  20.819  0.00  0.00    +0.000 A 
ATOM     11  C   UNL     1       1.311   5.454  20.315  0.00  0.00    +0.000 A 
ATOM     12  C   UNL     1       2.313   6.016  19.495  0.00  0.00    +0.000 A 
ATOM     13  H   UNL     1       1.947   9.008  18.033  0.00  0.00    +0.000 HD
ENDROOT
BRANCH   1  19
ATOM     14  C   UNL     1      -1.172   9.899  17.828  0.00  0.00    +0.000 C 
ATOM     15  C   UNL     1      -0.472  10.553  18.953  0.00  0.00    +0.000 A 
ATOM     16  O   UNL     1      -0.920  11.810  19.247  0.00  0.00    +0.000 OA
ATOM     17  C   UNL     1      -0.216  12.258  20.311  0.00  0.00    +0.000 A 
ATOM     18  C   UNL     1       0.695  11.313  20.706  0.00  0.00    +0.000 A 
ATOM     19  C   UNL     1       0.533  10.185  19.838  0.00  0.00    +0.000 A 
ENDBRANCH   1  19
BRANCH   6  20
ATOM     20  C   UNL     1       5.571   5.793  17.937  0.00  0.00    +0.000 C 
BRANCH  20  21
ATOM     21  C   UNL     1       5.605   5.214  16.545  0.00  0.00    +0.000 A 
ATOM     22  C   UNL     1       5.832   3.843  16.356  0.00  0.00    +0.000 A 
ATOM     23  C   UNL     1       5.943   3.312  15.071  0.00  0.00    +0.000 A 
ATOM     24  C   UNL     1       5.820   4.139  13.947  0.00  0.00    +0.000 A 
ATOM     25  C   UNL     1       5.530   5.499  14.135  0.00  0.00    +0.000 A 
ATOM     26  C   UNL     1       5.423   6.032  15.422  0.00  0.00    +0.000 A 
BRANCH  24  27
ATOM     27  C   UNL     1       6.027   3.594  12.558  0.00  0.00    +0.000 C 
ATOM     28  F   UNL     1       6.983   4.256  11.847  0.00  0.00    +0.000 F 
ATOM     29  F   UNL     1       6.405   2.285  12.559  0.00  0.00    +0.000 F 
ATOM     30  F   UNL     1       4.895   3.654  11.802  0.00  0.00    +0.000 F 
ENDBRANCH  24  27
ENDBRANCH  20  21
ENDBRANCH   6  20
TORSDOF 4
ENDMDL
MODEL 7
REMARK VINA RESULT:      -8.8      0.817      1.479
REMARK  Name = 
REMARK  5 active torsions:
REMARK  status: ('A' for Active; 'I' for Inactive)
REMARK    1  A    between atoms: C_1  and  C_2
REMARK    2  A    between atoms: C_6  and  C_7
REMARK    3  A    between atoms: N_12  and  C_13
REMARK    4  A    between atoms: C_13  and  C_14
REMARK    5  A    between atoms: C_17  and  C_18
REMARK                            x       y       z     vdW  Elec       q    Type
REMARK                         _______ _______ _______ _____ _____    ______ ____
ROOT
ATOM      1  C   UNL     1       1.305   8.628  20.529  0.00  0.00    +0.000 C 
ATOM      2  O   UNL     1       1.550   8.060  21.590  0.00  0.00    +0.000 OA
ATOM      3  N   UNL     1       1.741   8.194  19.298  0.00  0.00    +0.000 N 
ATOM      4  C   UNL     1       2.507   7.053  19.178  0.00  0.00    +0.000 A 
ATOM      5  N   UNL     1       3.595   7.091  18.408  0.00  0.00    +0.000 NA
ATOM      6  N   UNL     1       4.192   5.898  18.637  0.00  0.00    +0.000 N 
ATOM      7  C   UNL     1       3.424   5.026  19.382  0.00  0.00    +0.000 A 
ATOM      8  C   UNL     1       3.607   3.690  19.758  0.00  0.00    +0.000 A 
ATOM      9  C   UNL     1       2.602   3.083  20.515  0.00  0.00    +0.000 A 
ATOM     10  C   UNL     1       1.463   3.791  20.890  0.00  0.00    +0.000 A 
ATOM     11  C   UNL     1       1.305   5.134  20.524  0.00  0.00    +0.000 A 
ATOM     12  C   UNL     1       2.307   5.766  19.756  0.00  0.00    +0.000 A 
ATOM     13  H   UNL     1       1.966   8.896  18.612  0.00  0.00    +0.000 HD
ENDROOT
BRANCH   1  19
ATOM     14  C   UNL     1       1.605  11.409  18.619  0.00  0.00    +0.000 C 
ATOM     15  C   UNL     1       0.721  11.022  19.739  0.00  0.00    +0.000 A 
ATOM     16  O   UNL     1      -0.221  11.955  20.067  0.00  0.00    +0.000 OA
ATOM     17  C   UNL     1      -0.969  11.446  21.073  0.00  0.00    +0.000 A 
ATOM     18  C   UNL     1      -0.518  10.198  21.412  0.00  0.00    +0.000 A 
ATOM     19  C   UNL     1       0.580   9.897  20.541  0.00  0.00    +0.000 A 
ENDBRANCH   1  19
BRANCH   6  20
ATOM     20  C   UNL     1       5.550   5.667  18.154  0.00  0.00    +0.000 C 
BRANCH  20  21
ATOM     21  C   UNL     1       5.561   5.140  16.741  0.00  0.00    +0.000 A 
ATOM     22  C   UNL     1       5.674   3.762  16.504  0.00  0.00    +0.000 A 
ATOM     23  C   UNL     1       5.764   3.270  15.201  0.00  0.00    +0.000 A 
ATOM     24  C   UNL     1       5.734   4.146  14.109  0.00  0.00    +0.000 A 
ATOM     25  C   UNL     1       5.558   5.518  14.344  0.00  0.00    +0.000 A 
ATOM     26  C   UNL     1       5.471   6.011  15.648  0.00  0.00    +0.000 A 
BRANCH  24  27
ATOM     27  C   UNL     1       5.919   3.637  12.703  0.00  0.00    +0.000 C 
ATOM     28  F   UNL     1       6.246   2.315  12.638  0.00  0.00    +0.000 F 
ATOM     29  F   UNL     1       4.798   3.780  11.941  0.00  0.00    +0.000 F 
ATOM     30  F   UNL     1       6.909   4.296  12.038  0.00  0.00    +0.000 F 
ENDBRANCH  24  27
ENDBRANCH  20  21
ENDBRANCH   6  20
TORSDOF 4
ENDMDL
MODEL 8
REMARK VINA RESULT:      -8.4      1.062      1.413
REMARK  Name = 
REMARK  5 active torsions:
REMARK  status: ('A' for Active; 'I' for Inactive)
REMARK    1  A    between atoms: C_1  and  C_2
REMARK    2  A    between atoms: C_6  and  C_7
REMARK    3  A    between atoms: N_12  and  C_13
REMARK    4  A    between atoms: C_13  and  C_14
REMARK    5  A    between atoms: C_17  and  C_18
REMARK                            x       y       z     vdW  Elec       q    Type
REMARK                         _______ _______ _______ _____ _____    ______ ____
ROOT
ATOM      1  C   UNL     1       1.124   8.940  19.587  0.00  0.00    +0.000 C 
ATOM      2  O   UNL     1       1.353   8.605  20.746  0.00  0.00    +0.000 OA
ATOM      3  N   UNL     1       1.646   8.311  18.480  0.00  0.00    +0.000 N 
ATOM      4  C   UNL     1       2.489   7.227  18.610  0.00  0.00    +0.000 A 
ATOM      5  N   UNL     1       3.609   7.197  17.885  0.00  0.00    +0.000 NA
ATOM      6  N   UNL     1       4.269   6.116  18.363  0.00  0.00    +0.000 N 
ATOM      7  C   UNL     1       3.524   5.349  19.236  0.00  0.00    +0.000 A 
ATOM      8  C   UNL     1       3.776   4.127  19.870  0.00  0.00    +0.000 A 
ATOM      9  C   UNL     1       2.777   3.604  20.696  0.00  0.00    +0.000 A 
ATOM     10  C   UNL     1       1.577   4.286  20.886  0.00  0.00    +0.000 A 
ATOM     11  C   UNL     1       1.350   5.519  20.261  0.00  0.00    +0.000 A 
ATOM     12  C   UNL     1       2.345   6.064  19.420  0.00  0.00    +0.000 A 
ATOM     13  H   UNL     1       1.857   8.884  17.678  0.00  0.00    +0.000 HD
ENDROOT
BRANCH   1  19
ATOM     14  C   UNL     1       1.088  11.996  21.047  0.00  0.00    +0.000 C 
ATOM     15  C   UNL     1       0.329  11.377  19.940  0.00  0.00    +0.000 A 
ATOM     16  O   UNL     1      -0.558  12.213  19.324  0.00  0.00    +0.000 OA
ATOM     17  C   UNL     1      -1.143  11.522  18.318  0.00  0.00    +0.000 A 
ATOM     18  C   UNL     1      -0.656  10.241  18.282  0.00  0.00    +0.000 A 
ATOM     19  C   UNL     1       0.318  10.131  19.326  0.00  0.00    +0.000 A 
ENDBRANCH   1  19
BRANCH   6  20
ATOM     20  C   UNL     1       5.661   5.897  17.981  0.00  0.00    +0.000 C 
BRANCH  20  21
ATOM     21  C   UNL     1       5.778   5.312  16.596  0.00  0.00    +0.000 A 
ATOM     22  C   UNL     1       5.491   6.100  15.472  0.00  0.00    +0.000 A 
ATOM     23  C   UNL     1       5.521   5.546  14.191  0.00  0.00    +0.000 A 
ATOM     24  C   UNL     1       5.846   4.197  14.008  0.00  0.00    +0.000 A 
ATOM     25  C   UNL     1       6.194   3.425  15.127  0.00  0.00    +0.000 A 
ATOM     26  C   UNL     1       6.161   3.978  16.410  0.00  0.00    +0.000 A 
BRANCH  24  27
ATOM     27  C   UNL     1       5.795   3.566  12.641  0.00  0.00    +0.000 C 
ATOM     28  F   UNL     1       6.722   4.062  11.773  0.00  0.00    +0.000 F 
ATOM     29  F   UNL     1       6.004   2.219  12.677  0.00  0.00    +0.000 F 
ATOM     30  F   UNL     1       4.589   3.739  12.033  0.00  0.00    +0.000 F 
ENDBRANCH  24  27
ENDBRANCH  20  21
ENDBRANCH   6  20
TORSDOF 4
ENDMDL
MODEL 9
REMARK VINA RESULT:      -8.2      3.666      4.568
REMARK  Name = 
REMARK  5 active torsions:
REMARK  status: ('A' for Active; 'I' for Inactive)
REMARK    1  A    between atoms: C_1  and  C_2
REMARK    2  A    between atoms: C_6  and  C_7
REMARK    3  A    between atoms: N_12  and  C_13
REMARK    4  A    between atoms: C_13  and  C_14
REMARK    5  A    between atoms: C_17  and  C_18
REMARK                            x       y       z     vdW  Elec       q    Type
REMARK                         _______ _______ _______ _____ _____    ______ ____
ROOT
ATOM      1  C   UNL     1       1.661   7.237  20.244  0.00  0.00    +0.000 C 
ATOM      2  O   UNL     1       1.614   6.228  20.943  0.00  0.00    +0.000 OA
ATOM      3  N   UNL     1       2.357   7.328  19.061  0.00  0.00    +0.000 N 
ATOM      4  C   UNL     1       3.070   6.253  18.572  0.00  0.00    +0.000 A 
ATOM      5  N   UNL     1       4.312   6.457  18.130  0.00  0.00    +0.000 NA
ATOM      6  N   UNL     1       4.775   5.208  17.887  0.00  0.00    +0.000 N 
ATOM      7  C   UNL     1       3.806   4.228  17.980  0.00  0.00    +0.000 A 
ATOM      8  C   UNL     1       3.826   2.854  17.718  0.00  0.00    +0.000 A 
ATOM      9  C   UNL     1       2.638   2.140  17.899  0.00  0.00    +0.000 A 
ATOM     10  C   UNL     1       1.480   2.777  18.337  0.00  0.00    +0.000 A 
ATOM     11  C   UNL     1       1.483   4.151  18.614  0.00  0.00    +0.000 A 
ATOM     12  C   UNL     1       2.671   4.892  18.435  0.00  0.00    +0.000 A 
ATOM     13  H   UNL     1       2.776   8.216  18.836  0.00  0.00    +0.000 HD
ENDROOT
BRANCH   1  19
ATOM     14  C   UNL     1       0.913  10.124  18.641  0.00  0.00    +0.000 C 
ATOM     15  C   UNL     1       0.719   9.637  20.023  0.00  0.00    +0.000 A 
ATOM     16  O   UNL     1       0.056  10.504  20.843  0.00  0.00    +0.000 OA
ATOM     17  C   UNL     1      -0.075   9.908  22.050  0.00  0.00    +0.000 A 
ATOM     18  C   UNL     1       0.506   8.667  22.029  0.00  0.00    +0.000 A 
ATOM     19  C   UNL     1       1.019   8.466  20.707  0.00  0.00    +0.000 A 
ENDBRANCH   1  19
BRANCH   6  20
ATOM     20  C   UNL     1       6.195   5.006  17.620  0.00  0.00    +0.000 C 
BRANCH  20  21
ATOM     21  C   UNL     1       6.987   6.276  17.802  0.00  0.00    +0.000 A 
ATOM     22  C   UNL     1       7.934   6.376  18.832  0.00  0.00    +0.000 A 
ATOM     23  C   UNL     1       8.615   7.573  19.057  0.00  0.00    +0.000 A 
ATOM     24  C   UNL     1       8.371   8.691  18.251  0.00  0.00    +0.000 A 
ATOM     25  C   UNL     1       7.469   8.573  17.181  0.00  0.00    +0.000 A 
ATOM     26  C   UNL     1       6.785   7.376  16.958  0.00  0.00    +0.000 A 
BRANCH  24  27
ATOM     27  C   UNL     1       9.033  10.013  18.539  0.00  0.00    +0.000 C 
ATOM     28  F   UNL     1       9.378  10.180  19.848  0.00  0.00    +0.000 F 
ATOM     29  F   UNL     1      10.182  10.190  17.828  0.00  0.00    +0.000 F 
ATOM     30  F   UNL     1       8.236  11.073  18.229  0.00  0.00    +0.000 F 
ENDBRANCH  24  27
ENDBRANCH  20  21
ENDBRANCH   6  20
TORSDOF 4
ENDMDL
