MODEL 1
REMARK VINA RESULT:      -6.3      0.000      0.000
REMARK  Name = 
REMARK  7 active torsions:
REMARK  status: ('A' for Active; 'I' for Inactive)
REMARK    1  A    between atoms: N_1  and  CA_2
REMARK    2  A    between atoms: CA_2  and  C_3
REMARK    3  A    between atoms: CA_2  and  C_13
REMARK    4  A    between atoms: C_3  and  C_4
REMARK    5  A    between atoms: C_9  and  C_10
REMARK    6  A    between atoms: C_10  and  O_12
REMARK    7  A    between atoms: C_13  and  OXT_15
REMARK                            x       y       z     vdW  Elec       q    Type
REMARK                         _______ _______ _______ _____ _____    ______ ____
ROOT
ATOM      1  C   UNL     1       4.089   5.234  17.819  0.00  0.00    +0.000 A 
ATOM      2  C   UNL     1       3.551   6.540  17.858  0.00  0.00    +0.000 A 
ATOM      3  C   UNL     1       2.646   6.931  18.844  0.00  0.00    +0.000 A 
ATOM      4  C   UNL     1       2.241   6.021  19.811  0.00  0.00    +0.000 A 
ATOM      5  C   UNL     1       2.746   4.722  19.787  0.00  0.00    +0.000 A 
ATOM      6  C   UNL     1       3.672   4.311  18.806  0.00  0.00    +0.000 A 
ENDROOT
BRANCH   6   7
ATOM      7  C   UNL     1       4.088   2.881  18.925  0.00  0.00    +0.000 C 
ATOM      8  O   UNL     1       3.461   1.924  18.502  0.00  0.00    +0.000 OA
BRANCH   7   9
ATOM      9  O   UNL     1       5.229   2.693  19.602  0.00  0.00    +0.000 OA
ATOM     10  H   UNL     1       5.774   2.159  18.983  0.00  0.00    +0.000 HD
ENDBRANCH   7   9
ENDBRANCH   6   7
BRANCH   1  11
ATOM     11  C   UNL     1       5.067   4.945  16.693  0.00  0.00    +0.000 C 
BRANCH  11  12
ATOM     12  CA  UNL     1       6.445   5.620  16.857  0.00  0.00    +0.000 C 
BRANCH  12  13
ATOM     13  N   UNL     1       7.245   5.692  15.590  0.00  0.00    +0.000 NA
ATOM     14  H1  UNL     1       6.617   5.462  14.813  0.00  0.00    +0.000 HD
ATOM     15  H2  UNL     1       7.927   4.925  15.598  0.00  0.00    +0.000 HD
ENDBRANCH  12  13
BRANCH  12  16
ATOM     16  C   UNL     1       7.307   4.860  17.885  0.00  0.00    +0.000 C 
ATOM     17  O   UNL     1       7.225   4.941  19.099  0.00  0.00    +0.000 OA
BRANCH  16  18
ATOM     18  OXT UNL     1       8.208   4.054  17.253  0.00  0.00    +0.000 OA
ATOM     19  HXT UNL     1       8.931   3.882  17.905  0.00  0.00    +0.000 HD
ENDBRANCH  16  18
ENDBRANCH  12  16
ENDBRANCH  11  12
ENDBRANCH   1  11
TORSDOF 7
ENDMDL
MODEL 2
REMARK VINA RESULT:      -6.3      1.555      2.041
REMARK  Name = 
REMARK  7 active torsions:
REMARK  status: ('A' for Active; 'I' for Inactive)
REMARK    1  A    between atoms: N_1  and  CA_2
REMARK    2  A    between atoms: CA_2  and  C_3
REMARK    3  A    between atoms: CA_2  and  C_13
REMARK    4  A    between atoms: C_3  and  C_4
REMARK    5  A    between atoms: C_9  and  C_10
REMARK    6  A    between atoms: C_10  and  O_12
REMARK    7  A    between atoms: C_13  and  OXT_15
REMARK                            x       y       z     vdW  Elec       q    Type
REMARK                         _______ _______ _______ _____ _____    ______ ____
ROOT
ATOM      1  C   UNL     1       4.271   4.620  19.498  0.00  0.00    +0.000 A 
ATOM      2  C   UNL     1       3.435   5.759  19.474  0.00  0.00    +0.000 A 
ATOM      3  C   UNL     1       2.136   5.726  19.981  0.00  0.00    +0.000 A 
ATOM      4  C   UNL     1       1.633   4.547  20.515  0.00  0.00    +0.000 A 
ATOM      5  C   UNL     1       2.433   3.406  20.538  0.00  0.00    +0.000 A 
ATOM      6  C   UNL     1       3.752   3.422  20.042  0.00  0.00    +0.000 A 
ENDROOT
BRANCH   6   7
ATOM      7  C   UNL     1       4.451   2.105  20.130  0.00  0.00    +0.000 C 
ATOM      8  O   UNL     1       5.101   1.712  21.085  0.00  0.00    +0.000 OA
BRANCH   7   9
ATOM      9  O   UNL     1       4.359   1.357  19.022  0.00  0.00    +0.000 OA
ATOM     10  H   UNL     1       3.394   1.350  18.834  0.00  0.00    +0.000 HD
ENDBRANCH   7   9
ENDBRANCH   6   7
BRANCH   1  11
ATOM     11  C   UNL     1       5.663   4.798  18.915  0.00  0.00    +0.000 C 
BRANCH  11  12
ATOM     12  CA  UNL     1       5.733   4.657  17.380  0.00  0.00    +0.000 C 
BRANCH  12  13
ATOM     13  N   UNL     1       5.074   3.418  16.849  0.00  0.00    +0.000 NA
ATOM     14  H1  UNL     1       4.960   3.536  15.838  0.00  0.00    +0.000 HD
ATOM     15  H2  UNL     1       4.114   3.387  17.210  0.00  0.00    +0.000 HD
ENDBRANCH  12  13
BRANCH  12  16
ATOM     16  C   UNL     1       7.198   4.620  16.902  0.00  0.00    +0.000 C 
ATOM     17  O   UNL     1       7.620   5.024  15.831  0.00  0.00    +0.000 OA
BRANCH  16  18
ATOM     18  OXT UNL     1       8.000   4.062  17.854  0.00  0.00    +0.000 OA
ATOM     19  HXT UNL     1       8.918   4.376  17.663  0.00  0.00    +0.000 HD
ENDBRANCH  16  18
ENDBRANCH  12  16
ENDBRANCH  11  12
ENDBRANCH   1  11
TORSDOF 7
ENDMDL
MODEL 3
REMARK VINA RESULT:      -6.1      0.902      1.192
REMARK  Name = 
REMARK  7 active torsions:
REMARK  status: ('A' for Active; 'I' for Inactive)
REMARK    1  A    between atoms: N_1  and  CA_2
REMARK    2  A    between atoms: CA_2  and  C_3
REMARK    3  A    between atoms: CA_2  and  C_13
REMARK    4  A    between atoms: C_3  and  C_4
REMARK    5  A    between atoms: C_9  and  C_10
REMARK    6  A    between atoms: C_10  and  O_12
REMARK    7  A    between atoms: C_13  and  OXT_15
REMARK                            x       y       z     vdW  Elec       q    Type
REMARK                         _______ _______ _______ _____ _____    ______ ____
ROOT
ATOM      1  C   UNL     1       3.735   5.464  18.327  0.00  0.00    +0.000 A 
ATOM      2  C   UNL     1       3.059   6.647  18.702  0.00  0.00    +0.000 A 
ATOM      3  C   UNL     1       2.177   6.677  19.782  0.00  0.00    +0.000 A 
ATOM      4  C   UNL     1       1.937   5.519  20.509  0.00  0.00    +0.000 A 
ATOM      5  C   UNL     1       2.580   4.335  20.152  0.00  0.00    +0.000 A 
ATOM      6  C   UNL     1       3.485   4.287  19.071  0.00  0.00    +0.000 A 
ENDROOT
BRANCH   6   7
ATOM      7  C   UNL     1       4.063   2.933  18.823  0.00  0.00    +0.000 C 
ATOM      8  O   UNL     1       3.581   2.080  18.095  0.00  0.00    +0.000 OA
BRANCH   7   9
ATOM      9  O   UNL     1       5.178   2.673  19.520  0.00  0.00    +0.000 OA
ATOM     10  H   UNL     1       5.756   2.225  18.863  0.00  0.00    +0.000 HD
ENDBRANCH   7   9
ENDBRANCH   6   7
BRANCH   1  11
ATOM     11  C   UNL     1       4.669   5.574  17.134  0.00  0.00    +0.000 C 
BRANCH  11  12
ATOM     12  CA  UNL     1       6.107   6.006  17.489  0.00  0.00    +0.000 C 
BRANCH  12  13
ATOM     13  N   UNL     1       6.576   7.229  16.757  0.00  0.00    +0.000 NA
ATOM     14  H1  UNL     1       6.495   7.041  15.753  0.00  0.00    +0.000 HD
ATOM     15  H2  UNL     1       7.585   7.330  16.915  0.00  0.00    +0.000 HD
ENDBRANCH  12  13
BRANCH  12  16
ATOM     16  C   UNL     1       7.110   4.882  17.162  0.00  0.00    +0.000 C 
ATOM     17  O   UNL     1       7.602   4.645  16.071  0.00  0.00    +0.000 OA
BRANCH  16  18
ATOM     18  OXT UNL     1       7.395   4.153  18.279  0.00  0.00    +0.000 OA
ATOM     19  HXT UNL     1       6.727   3.424  18.314  0.00  0.00    +0.000 HD
ENDBRANCH  16  18
ENDBRANCH  12  16
ENDBRANCH  11  12
ENDBRANCH   1  11
TORSDOF 7
ENDMDL
MODEL 4
REMARK VINA RESULT:      -6.0      1.440      1.490
REMARK  Name = 
REMARK  7 active torsions:
REMARK  status: ('A' for Active; 'I' for Inactive)
REMARK    1  A    between atoms: N_1  and  CA_2
REMARK    2  A    between atoms: CA_2  and  C_3
REMARK    3  A    between atoms: CA_2  and  C_13
REMARK    4  A    between atoms: C_3  and  C_4
REMARK    5  A    between atoms: C_9  and  C_10
REMARK    6  A    between atoms: C_10  and  O_12
REMARK    7  A    between atoms: C_13  and  OXT_15
REMARK                            x       y       z     vdW  Elec       q    Type
REMARK                         _______ _______ _______ _____ _____    ______ ____
ROOT
ATOM      1  C   UNL     1       4.128   4.732  17.634  0.00  0.00    +0.000 A 
ATOM      2  C   UNL     1       3.767   6.096  17.567  0.00  0.00    +0.000 A 
ATOM      3  C   UNL     1       2.975   6.694  18.547  0.00  0.00    +0.000 A 
ATOM      4  C   UNL     1       2.512   5.939  19.616  0.00  0.00    +0.000 A 
ATOM      5  C   UNL     1       2.842   4.588  19.699  0.00  0.00    +0.000 A 
ATOM      6  C   UNL     1       3.652   3.967  18.725  0.00  0.00    +0.000 A 
ENDROOT
BRANCH   6   7
ATOM      7  C   UNL     1       3.886   2.512  18.966  0.00  0.00    +0.000 C 
ATOM      8  O   UNL     1       3.118   1.613  18.665  0.00  0.00    +0.000 OA
BRANCH   7   9
ATOM      9  O   UNL     1       5.028   2.237  19.611  0.00  0.00    +0.000 OA
ATOM     10  H   UNL     1       4.834   1.385  20.061  0.00  0.00    +0.000 HD
ENDBRANCH   7   9
ENDBRANCH   6   7
BRANCH   1  11
ATOM     11  C   UNL     1       4.997   4.212  16.501  0.00  0.00    +0.000 C 
BRANCH  11  12
ATOM     12  CA  UNL     1       6.515   4.315  16.763  0.00  0.00    +0.000 C 
BRANCH  12  13
ATOM     13  N   UNL     1       6.884   4.319  18.218  0.00  0.00    +0.000 NA
ATOM     14  H1  UNL     1       7.906   4.268  18.278  0.00  0.00    +0.000 HD
ATOM     15  H2  UNL     1       6.563   3.438  18.632  0.00  0.00    +0.000 HD
ENDBRANCH  12  13
BRANCH  12  16
ATOM     16  C   UNL     1       7.086   5.611  16.156  0.00  0.00    +0.000 C 
ATOM     17  O   UNL     1       7.147   6.700  16.701  0.00  0.00    +0.000 OA
BRANCH  16  18
ATOM     18  OXT UNL     1       7.533   5.390  14.886  0.00  0.00    +0.000 OA
ATOM     19  HXT UNL     1       7.956   4.496  14.892  0.00  0.00    +0.000 HD
ENDBRANCH  16  18
ENDBRANCH  12  16
ENDBRANCH  11  12
ENDBRANCH   1  11
TORSDOF 7
ENDMDL
MODEL 5
REMARK VINA RESULT:      -6.0      1.700      2.001
REMARK  Name = 
REMARK  7 active torsions:
REMARK  status: ('A' for Active; 'I' for Inactive)
REMARK    1  A    between atoms: N_1  and  CA_2
REMARK    2  A    between atoms: CA_2  and  C_3
REMARK    3  A    between atoms: CA_2  and  C_13
REMARK    4  A    between atoms: C_3  and  C_4
REMARK    5  A    between atoms: C_9  and  C_10
REMARK    6  A    between atoms: C_10  and  O_12
REMARK    7  A    between atoms: C_13  and  OXT_15
REMARK                            x       y       z     vdW  Elec       q    Type
REMARK                         _______ _______ _______ _____ _____    ______ ____
ROOT
ATOM      1  C   UNL     1       4.515   4.680  18.730  0.00  0.00    +0.000 A 
ATOM      2  C   UNL     1       3.836   5.815  18.233  0.00  0.00    +0.000 A 
ATOM      3  C   UNL     1       2.476   5.779  17.924  0.00  0.00    +0.000 A 
ATOM      4  C   UNL     1       1.761   4.601  18.089  0.00  0.00    +0.000 A 
ATOM      5  C   UNL     1       2.410   3.462  18.564  0.00  0.00    +0.000 A 
ATOM      6  C   UNL     1       3.781   3.482  18.895  0.00  0.00    +0.000 A 
ENDROOT
BRANCH   6   7
ATOM      7  C   UNL     1       4.310   2.168  19.369  0.00  0.00    +0.000 C 
ATOM      8  O   UNL     1       4.913   1.983  20.414  0.00  0.00    +0.000 OA
BRANCH   7   9
ATOM      9  O   UNL     1       4.118   1.155  18.513  0.00  0.00    +0.000 OA
ATOM     10  H   UNL     1       4.144   1.595  17.634  0.00  0.00    +0.000 HD
ENDBRANCH   7   9
ENDBRANCH   6   7
BRANCH   1  11
ATOM     11  C   UNL     1       5.993   4.860  19.028  0.00  0.00    +0.000 C 
BRANCH  11  12
ATOM     12  CA  UNL     1       6.871   5.098  17.781  0.00  0.00    +0.000 C 
BRANCH  12  13
ATOM     13  N   UNL     1       8.056   4.183  17.685  0.00  0.00    +0.000 NA
ATOM     14  H1  UNL     1       7.967   3.481  18.427  0.00  0.00    +0.000 HD
ATOM     15  H2  UNL     1       8.894   4.716  17.940  0.00  0.00    +0.000 HD
ENDBRANCH  12  13
BRANCH  12  16
ATOM     16  C   UNL     1       7.419   6.539  17.767  0.00  0.00    +0.000 C 
ATOM     17  O   UNL     1       8.184   7.030  18.579  0.00  0.00    +0.000 OA
BRANCH  16  18
ATOM     18  OXT UNL     1       6.930   7.228  16.696  0.00  0.00    +0.000 OA
ATOM     19  HXT UNL     1       7.641   7.860  16.423  0.00  0.00    +0.000 HD
ENDBRANCH  16  18
ENDBRANCH  12  16
ENDBRANCH  11  12
ENDBRANCH   1  11
TORSDOF 7
ENDMDL
MODEL 6
REMARK VINA RESULT:      -6.0      1.653      2.179
REMARK  Name = 
REMARK  7 active torsions:
REMARK  status: ('A' for Active; 'I' for Inactive)
REMARK    1  A    between atoms: N_1  and  CA_2
REMARK    2  A    between atoms: CA_2  and  C_3
REMARK    3  A    between atoms: CA_2  and  C_13
REMARK    4  A    between atoms: C_3  and  C_4
REMARK    5  A    between atoms: C_9  and  C_10
REMARK    6  A    between atoms: C_10  and  O_12
REMARK    7  A    between atoms: C_13  and  OXT_15
REMARK                            x       y       z     vdW  Elec       q    Type
REMARK                         _______ _______ _______ _____ _____    ______ ____
ROOT
ATOM      1  C   UNL     1       3.785   3.980  18.803  0.00  0.00    +0.000 A 
ATOM      2  C   UNL     1       2.757   4.721  18.178  0.00  0.00    +0.000 A 
ATOM      3  C   UNL     1       1.475   4.197  18.008  0.00  0.00    +0.000 A 
ATOM      4  C   UNL     1       1.191   2.911  18.446  0.00  0.00    +0.000 A 
ATOM      5  C   UNL     1       2.191   2.154  19.054  0.00  0.00    +0.000 A 
ATOM      6  C   UNL     1       3.489   2.670  19.247  0.00  0.00    +0.000 A 
ENDROOT
BRANCH   6   7
ATOM      7  C   UNL     1       4.434   1.712  19.895  0.00  0.00    +0.000 C 
ATOM      8  O   UNL     1       4.987   1.881  20.969  0.00  0.00    +0.000 OA
BRANCH   7   9
ATOM      9  O   UNL     1       4.691   0.615  19.169  0.00  0.00    +0.000 OA
ATOM     10  H   UNL     1       5.236   0.065  19.775  0.00  0.00    +0.000 HD
ENDBRANCH   7   9
ENDBRANCH   6   7
BRANCH   1  11
ATOM     11  C   UNL     1       5.131   4.674  18.926  0.00  0.00    +0.000 C 
BRANCH  11  12
ATOM     12  CA  UNL     1       5.891   4.831  17.592  0.00  0.00    +0.000 C 
BRANCH  12  13
ATOM     13  N   UNL     1       5.828   3.621  16.707  0.00  0.00    +0.000 NA
ATOM     14  H1  UNL     1       6.211   2.830  17.236  0.00  0.00    +0.000 HD
ATOM     15  H2  UNL     1       6.491   3.754  15.936  0.00  0.00    +0.000 HD
ENDBRANCH  12  13
BRANCH  12  16
ATOM     16  C   UNL     1       7.383   5.120  17.845  0.00  0.00    +0.000 C 
ATOM     17  O   UNL     1       7.846   6.098  18.409  0.00  0.00    +0.000 OA
BRANCH  16  18
ATOM     18  OXT UNL     1       8.159   4.115  17.345  0.00  0.00    +0.000 OA
ATOM     19  HXT UNL     1       8.567   3.664  18.125  0.00  0.00    +0.000 HD
ENDBRANCH  16  18
ENDBRANCH  12  16
ENDBRANCH  11  12
ENDBRANCH   1  11
TORSDOF 7
ENDMDL
MODEL 7
REMARK VINA RESULT:      -6.0      2.522      3.288
REMARK  Name = 
REMARK  7 active torsions:
REMARK  status: ('A' for Active; 'I' for Inactive)
REMARK    1  A    between atoms: N_1  and  CA_2
REMARK    2  A    between atoms: CA_2  and  C_3
REMARK    3  A    between atoms: CA_2  and  C_13
REMARK    4  A    between atoms: C_3  and  C_4
REMARK    5  A    between atoms: C_9  and  C_10
REMARK    6  A    between atoms: C_10  and  O_12
REMARK    7  A    between atoms: C_13  and  OXT_15
REMARK                            x       y       z     vdW  Elec       q    Type
REMARK                         _______ _______ _______ _____ _____    ______ ____
ROOT
ATOM      1  C   UNL     1       4.265   4.287  18.304  0.00  0.00    +0.000 A 
ATOM      2  C   UNL     1       4.079   2.906  18.069  0.00  0.00    +0.000 A 
ATOM      3  C   UNL     1       2.814   2.364  17.844  0.00  0.00    +0.000 A 
ATOM      4  C   UNL     1       1.697   3.187  17.863  0.00  0.00    +0.000 A 
ATOM      5  C   UNL     1       1.851   4.551  18.107  0.00  0.00    +0.000 A 
ATOM      6  C   UNL     1       3.122   5.121  18.323  0.00  0.00    +0.000 A 
ENDROOT
BRANCH   6   7
ATOM      7  C   UNL     1       3.093   6.590  18.587  0.00  0.00    +0.000 C 
ATOM      8  O   UNL     1       3.441   7.457  17.802  0.00  0.00    +0.000 OA
BRANCH   7   9
ATOM      9  O   UNL     1       2.686   6.921  19.820  0.00  0.00    +0.000 OA
ATOM     10  H   UNL     1       2.659   7.903  19.794  0.00  0.00    +0.000 HD
ENDBRANCH   7   9
ENDBRANCH   6   7
BRANCH   1  11
ATOM     11  C   UNL     1       5.697   4.742  18.530  0.00  0.00    +0.000 C 
BRANCH  11  12
ATOM     12  CA  UNL     1       6.590   4.682  17.273  0.00  0.00    +0.000 C 
BRANCH  12  13
ATOM     13  N   UNL     1       7.977   4.171  17.533  0.00  0.00    +0.000 NA
ATOM     14  H1  UNL     1       8.134   3.370  16.912  0.00  0.00    +0.000 HD
ATOM     15  H2  UNL     1       7.998   3.768  18.476  0.00  0.00    +0.000 HD
ENDBRANCH  12  13
BRANCH  12  16
ATOM     16  C   UNL     1       6.742   6.081  16.644  0.00  0.00    +0.000 C 
ATOM     17  O   UNL     1       7.717   6.809  16.727  0.00  0.00    +0.000 OA
BRANCH  16  18
ATOM     18  OXT UNL     1       5.614   6.424  15.958  0.00  0.00    +0.000 OA
ATOM     19  HXT UNL     1       5.474   5.716  15.282  0.00  0.00    +0.000 HD
ENDBRANCH  16  18
ENDBRANCH  12  16
ENDBRANCH  11  12
ENDBRANCH   1  11
TORSDOF 7
ENDMDL
MODEL 8
REMARK VINA RESULT:      -6.0      1.912      2.343
REMARK  Name = 
REMARK  7 active torsions:
REMARK  status: ('A' for Active; 'I' for Inactive)
REMARK    1  A    between atoms: N_1  and  CA_2
REMARK    2  A    between atoms: CA_2  and  C_3
REMARK    3  A    between atoms: CA_2  and  C_13
REMARK    4  A    between atoms: C_3  and  C_4
REMARK    5  A    between atoms: C_9  and  C_10
REMARK    6  A    between atoms: C_10  and  O_12
REMARK    7  A    between atoms: C_13  and  OXT_15
REMARK                            x       y       z     vdW  Elec       q    Type
REMARK                         _______ _______ _______ _____ _____    ______ ____
ROOT
ATOM      1  C   UNL     1       3.900   4.212  18.460  0.00  0.00    +0.000 A 
ATOM      2  C   UNL     1       2.917   5.065  17.910  0.00  0.00    +0.000 A 
ATOM      3  C   UNL     1       1.589   4.661  17.775  0.00  0.00    +0.000 A 
ATOM      4  C   UNL     1       1.210   3.387  18.176  0.00  0.00    +0.000 A 
ATOM      5  C   UNL     1       2.164   2.521  18.709  0.00  0.00    +0.000 A 
ATOM      6  C   UNL     1       3.509   2.915  18.865  0.00  0.00    +0.000 A 
ENDROOT
BRANCH   6   7
ATOM      7  C   UNL     1       4.391   1.853  19.434  0.00  0.00    +0.000 C 
ATOM      8  O   UNL     1       5.067   1.960  20.444  0.00  0.00    +0.000 OA
BRANCH   7   9
ATOM      9  O   UNL     1       4.439   0.728  18.706  0.00  0.00    +0.000 OA
ATOM     10  H   UNL     1       4.876   0.087  19.310  0.00  0.00    +0.000 HD
ENDBRANCH   7   9
ENDBRANCH   6   7
BRANCH   1  11
ATOM     11  C   UNL     1       5.306   4.782  18.551  0.00  0.00    +0.000 C 
BRANCH  11  12
ATOM     12  CA  UNL     1       6.206   4.452  17.342  0.00  0.00    +0.000 C 
BRANCH  12  13
ATOM     13  N   UNL     1       7.623   4.120  17.708  0.00  0.00    +0.000 NA
ATOM     14  H1  UNL     1       7.615   3.217  18.192  0.00  0.00    +0.000 HD
ATOM     15  H2  UNL     1       7.934   4.787  18.423  0.00  0.00    +0.000 HD
ENDBRANCH  12  13
BRANCH  12  16
ATOM     16  C   UNL     1       6.267   5.643  16.365  0.00  0.00    +0.000 C 
ATOM     17  O   UNL     1       5.363   6.037  15.647  0.00  0.00    +0.000 OA
BRANCH  16  18
ATOM     18  OXT UNL     1       7.498   6.230  16.399  0.00  0.00    +0.000 OA
ATOM     19  HXT UNL     1       7.549   6.719  17.257  0.00  0.00    +0.000 HD
ENDBRANCH  16  18
ENDBRANCH  12  16
ENDBRANCH  11  12
ENDBRANCH   1  11
TORSDOF 7
ENDMDL
MODEL 9
REMARK VINA RESULT:      -5.9      2.537      4.426
REMARK  Name = 
REMARK  7 active torsions:
REMARK  status: ('A' for Active; 'I' for Inactive)
REMARK    1  A    between atoms: N_1  and  CA_2
REMARK    2  A    between atoms: CA_2  and  C_3
REMARK    3  A    between atoms: CA_2  and  C_13
REMARK    4  A    between atoms: C_3  and  C_4
REMARK    5  A    between atoms: C_9  and  C_10
REMARK    6  A    between atoms: C_10  and  O_12
REMARK    7  A    between atoms: C_13  and  OXT_15
REMARK                            x       y       z     vdW  Elec       q    Type
REMARK                         _______ _______ _______ _____ _____    ______ ____
ROOT
ATOM      1  C   UNL     1       2.581   5.198  18.416  0.00  0.00    +0.000 A 
ATOM      2  C   UNL     1       2.393   6.577  18.174  0.00  0.00    +0.000 A 
ATOM      3  C   UNL     1       3.408   7.374  17.643  0.00  0.00    +0.000 A 
ATOM      4  C   UNL     1       4.644   6.814  17.352  0.00  0.00    +0.000 A 
ATOM      5  C   UNL     1       4.860   5.458  17.593  0.00  0.00    +0.000 A 
ATOM      6  C   UNL     1       3.843   4.633  18.118  0.00  0.00    +0.000 A 
ENDROOT
BRANCH   6   7
ATOM      7  C   UNL     1       4.260   3.215  18.329  0.00  0.00    +0.000 C 
ATOM      8  O   UNL     1       3.749   2.241  17.801  0.00  0.00    +0.000 OA
BRANCH   7   9
ATOM      9  O   UNL     1       5.251   3.058  19.217  0.00  0.00    +0.000 OA
ATOM     10  H   UNL     1       5.939   2.577  18.706  0.00  0.00    +0.000 HD
ENDBRANCH   7   9
ENDBRANCH   6   7
BRANCH   1  11
ATOM     11  C   UNL     1       1.391   4.450  18.993  0.00  0.00    +0.000 C 
BRANCH  11  12
ATOM     12  CA  UNL     1       1.374   4.374  20.534  0.00  0.00    +0.000 C 
BRANCH  12  13
ATOM     13  N   UNL     1       2.462   5.167  21.197  0.00  0.00    +0.000 NA
ATOM     14  H1  UNL     1       2.041   6.029  21.558  0.00  0.00    +0.000 HD
ATOM     15  H2  UNL     1       3.112   5.487  20.472  0.00  0.00    +0.000 HD
ENDBRANCH  12  13
BRANCH  12  16
ATOM     16  C   UNL     1       1.532   2.917  21.011  0.00  0.00    +0.000 C 
ATOM     17  O   UNL     1       1.616   2.539  22.167  0.00  0.00    +0.000 OA
BRANCH  16  18
ATOM     18  OXT UNL     1       1.569   2.065  19.946  0.00  0.00    +0.000 OA
ATOM     19  HXT UNL     1       2.516   2.014  19.663  0.00  0.00    +0.000 HD
ENDBRANCH  16  18
ENDBRANCH  12  16
ENDBRANCH  11  12
ENDBRANCH   1  11
TORSDOF 7
ENDMDL
