MODEL 1
REMARK VINA RESULT:      -8.6      0.000      0.000
REMARK  Name = 
REMARK  6 active torsions:
REMARK  status: ('A' for Active; 'I' for Inactive)
REMARK    1  A    between atoms: C_1  and  O_2
REMARK    2  A    between atoms: O_2  and  C_3
REMARK    3  A    between atoms: C_9  and  S_10
REMARK    4  A    between atoms: S_10  and  C_11
REMARK    5  A    between atoms: C_11  and  C_12
REMARK    6  A    between atoms: C_12  and  N_13
REMARK                            x       y       z     vdW  Elec       q    Type
REMARK                         _______ _______ _______ _____ _____    ______ ____
ROOT
ATOM      1  C   UNL     1       6.769   6.390  16.793  0.00  0.00    +0.000 A 
ATOM      2  C   UNL     1       6.828   5.219  16.038  0.00  0.00    +0.000 A 
ATOM      3  C   UNL     1       5.861   4.228  16.209  0.00  0.00    +0.000 A 
ATOM      4  C   UNL     1       4.822   4.405  17.122  0.00  0.00    +0.000 A 
ATOM      5  C   UNL     1       4.725   5.583  17.866  0.00  0.00    +0.000 A 
ATOM      6  C   UNL     1       5.726   6.560  17.711  0.00  0.00    +0.000 A 
ATOM      7  C   UNL     1       3.534   5.803  18.769  0.00  0.00    +0.000 C 
ATOM      8  C   UNL     1       2.693   4.559  18.949  0.00  0.00    +0.000 A 
ATOM      9  C   UNL     1       1.628   4.518  19.866  0.00  0.00    +0.000 A 
ATOM     10  C   UNL     1       0.803   3.394  19.948  0.00  0.00    +0.000 A 
ATOM     11  C   UNL     1       1.042   2.291  19.133  0.00  0.00    +0.000 A 
ATOM     12  C   UNL     1       2.108   2.312  18.238  0.00  0.00    +0.000 A 
ATOM     13  C   UNL     1       2.927   3.439  18.145  0.00  0.00    +0.000 A 
ATOM     14  O   UNL     1       3.926   3.372  17.207  0.00  0.00    +0.000 OA
ENDROOT
BRANCH   1  16
ATOM     15  C   UNL     1       7.959   8.094  17.940  0.00  0.00    +0.000 C 
ATOM     16  O   UNL     1       7.650   7.433  16.717  0.00  0.00    +0.000 OA
ENDBRANCH   1  16
BRANCH   7  17
ATOM     17  S   UNL     1       2.492   7.216  18.150  0.00  0.00    +0.000 S 
BRANCH  17  18
ATOM     18  C   UNL     1       2.033   7.969  19.753  0.00  0.00    +0.000 C 
BRANCH  18  19
ATOM     19  C   UNL     1       1.120   9.190  19.577  0.00  0.00    +0.000 C 
BRANCH  19  20
ATOM     20  N   UNL     1       0.770   9.840  20.861  0.00  0.00    +0.000 NA
ATOM     21  C   UNL     1      -0.196  10.939  20.692  0.00  0.00    +0.000 C 
ATOM     22  C   UNL     1      -0.501  11.622  22.027  0.00  0.00    +0.000 C 
ATOM     23  C   UNL     1      -1.008  10.624  23.058  0.00  0.00    +0.000 C 
ATOM     24  C   UNL     1      -0.042   9.450  23.173  0.00  0.00    +0.000 C 
ATOM     25  C   UNL     1       0.255   8.835  21.805  0.00  0.00    +0.000 C 
ENDBRANCH  19  20
ENDBRANCH  18  19
ENDBRANCH  17  18
ENDBRANCH   7  17
TORSDOF 5
ENDMDL
MODEL 2
REMARK VINA RESULT:      -8.6      0.391      1.034
REMARK  Name = 
REMARK  6 active torsions:
REMARK  status: ('A' for Active; 'I' for Inactive)
REMARK    1  A    between atoms: C_1  and  O_2
REMARK    2  A    between atoms: O_2  and  C_3
REMARK    3  A    between atoms: C_9  and  S_10
REMARK    4  A    between atoms: S_10  and  C_11
REMARK    5  A    between atoms: C_11  and  C_12
REMARK    6  A    between atoms: C_12  and  N_13
REMARK                            x       y       z     vdW  Elec       q    Type
REMARK                         _______ _______ _______ _____ _____    ______ ____
ROOT
ATOM      1  C   UNL     1       6.892   6.185  16.714  0.00  0.00    +0.000 A 
ATOM      2  C   UNL     1       6.940   4.983  16.009  0.00  0.00    +0.000 A 
ATOM      3  C   UNL     1       5.947   4.022  16.201  0.00  0.00    +0.000 A 
ATOM      4  C   UNL     1       4.893   4.260  17.082  0.00  0.00    +0.000 A 
ATOM      5  C   UNL     1       4.808   5.470  17.775  0.00  0.00    +0.000 A 
ATOM      6  C   UNL     1       5.835   6.417  17.601  0.00  0.00    +0.000 A 
ATOM      7  C   UNL     1       3.604   5.755  18.641  0.00  0.00    +0.000 C 
ATOM      8  C   UNL     1       2.731   4.538  18.855  0.00  0.00    +0.000 A 
ATOM      9  C   UNL     1       1.646   4.560  19.749  0.00  0.00    +0.000 A 
ATOM     10  C   UNL     1       0.794   3.459  19.861  0.00  0.00    +0.000 A 
ATOM     11  C   UNL     1       1.024   2.318  19.098  0.00  0.00    +0.000 A 
ATOM     12  C   UNL     1       2.109   2.277  18.226  0.00  0.00    +0.000 A 
ATOM     13  C   UNL     1       2.956   3.380  18.104  0.00  0.00    +0.000 A 
ATOM     14  O   UNL     1       3.971   3.251  17.191  0.00  0.00    +0.000 OA
ENDROOT
BRANCH   1  16
ATOM     15  C   UNL     1       7.823   8.141  17.686  0.00  0.00    +0.000 C 
ATOM     16  O   UNL     1       7.799   7.204  16.613  0.00  0.00    +0.000 OA
ENDBRANCH   1  16
BRANCH   7  17
ATOM     17  S   UNL     1       2.608   7.164  17.942  0.00  0.00    +0.000 S 
BRANCH  17  18
ATOM     18  C   UNL     1       2.157   8.009  19.500  0.00  0.00    +0.000 C 
BRANCH  18  19
ATOM     19  C   UNL     1       1.306   9.262  19.252  0.00  0.00    +0.000 C 
BRANCH  19  20
ATOM     20  N   UNL     1       0.350   9.537  20.349  0.00  0.00    +0.000 NA
ATOM     21  C   UNL     1       0.454   8.560  21.446  0.00  0.00    +0.000 C 
ATOM     22  C   UNL     1      -0.577   8.841  22.541  0.00  0.00    +0.000 C 
ATOM     23  C   UNL     1      -0.443  10.258  23.079  0.00  0.00    +0.000 C 
ATOM     24  C   UNL     1      -0.474  11.261  21.932  0.00  0.00    +0.000 C 
ATOM     25  C   UNL     1       0.548  10.907  20.852  0.00  0.00    +0.000 C 
ENDBRANCH  19  20
ENDBRANCH  18  19
ENDBRANCH  17  18
ENDBRANCH   7  17
TORSDOF 5
ENDMDL
MODEL 3
REMARK VINA RESULT:      -7.9      1.178      1.705
REMARK  Name = 
REMARK  6 active torsions:
REMARK  status: ('A' for Active; 'I' for Inactive)
REMARK    1  A    between atoms: C_1  and  O_2
REMARK    2  A    between atoms: O_2  and  C_3
REMARK    3  A    between atoms: C_9  and  S_10
REMARK    4  A    between atoms: S_10  and  C_11
REMARK    5  A    between atoms: C_11  and  C_12
REMARK    6  A    between atoms: C_12  and  N_13
REMARK                            x       y       z     vdW  Elec       q    Type
REMARK                         _______ _______ _______ _____ _____    ______ ____
ROOT
ATOM      1  C   UNL     1       6.855   6.122  16.687  0.00  0.00    +0.000 A 
ATOM      2  C   UNL     1       6.824   4.958  15.919  0.00  0.00    +0.000 A 
ATOM      3  C   UNL     1       5.793   4.035  16.093  0.00  0.00    +0.000 A 
ATOM      4  C   UNL     1       4.779   4.274  17.021  0.00  0.00    +0.000 A 
ATOM      5  C   UNL     1       4.773   5.447  17.778  0.00  0.00    +0.000 A 
ATOM      6  C   UNL     1       5.838   6.354  17.620  0.00  0.00    +0.000 A 
ATOM      7  C   UNL     1       3.612   5.740  18.699  0.00  0.00    +0.000 C 
ATOM      8  C   UNL     1       2.688   4.554  18.877  0.00  0.00    +0.000 A 
ATOM      9  C   UNL     1       1.634   4.578  19.807  0.00  0.00    +0.000 A 
ATOM     10  C   UNL     1       0.735   3.513  19.889  0.00  0.00    +0.000 A 
ATOM     11  C   UNL     1       0.887   2.405  19.060  0.00  0.00    +0.000 A 
ATOM     12  C   UNL     1       1.940   2.361  18.151  0.00  0.00    +0.000 A 
ATOM     13  C   UNL     1       2.835   3.430  18.059  0.00  0.00    +0.000 A 
ATOM     14  O   UNL     1       3.814   3.304  17.107  0.00  0.00    +0.000 OA
ENDROOT
BRANCH   1  16
ATOM     15  C   UNL     1       7.725   8.143  17.578  0.00  0.00    +0.000 C 
ATOM     16  O   UNL     1       7.806   7.102  16.610  0.00  0.00    +0.000 OA
ENDBRANCH   1  16
BRANCH   7  17
ATOM     17  S   UNL     1       2.663   7.228  18.108  0.00  0.00    +0.000 S 
BRANCH  17  18
ATOM     18  C   UNL     1       1.941   7.769  19.699  0.00  0.00    +0.000 C 
BRANCH  18  19
ATOM     19  C   UNL     1       1.806   9.296  19.782  0.00  0.00    +0.000 C 
BRANCH  19  20
ATOM     20  N   UNL     1       0.411   9.762  19.606  0.00  0.00    +0.000 NA
ATOM     21  C   UNL     1       0.165  11.062  20.254  0.00  0.00    +0.000 C 
ATOM     22  C   UNL     1      -1.294  11.495  20.098  0.00  0.00    +0.000 C 
ATOM     23  C   UNL     1      -1.705  11.546  18.633  0.00  0.00    +0.000 C 
ATOM     24  C   UNL     1      -1.378  10.224  17.949  0.00  0.00    +0.000 C 
ATOM     25  C   UNL     1       0.081   9.825  18.173  0.00  0.00    +0.000 C 
ENDBRANCH  19  20
ENDBRANCH  18  19
ENDBRANCH  17  18
ENDBRANCH   7  17
TORSDOF 5
ENDMDL
MODEL 4
REMARK VINA RESULT:      -7.8      1.045      1.664
REMARK  Name = 
REMARK  6 active torsions:
REMARK  status: ('A' for Active; 'I' for Inactive)
REMARK    1  A    between atoms: C_1  and  O_2
REMARK    2  A    between atoms: O_2  and  C_3
REMARK    3  A    between atoms: C_9  and  S_10
REMARK    4  A    between atoms: S_10  and  C_11
REMARK    5  A    between atoms: C_11  and  C_12
REMARK    6  A    between atoms: C_12  and  N_13
REMARK                            x       y       z     vdW  Elec       q    Type
REMARK                         _______ _______ _______ _____ _____    ______ ____
ROOT
ATOM      1  C   UNL     1       6.755   6.153  16.656  0.00  0.00    +0.000 A 
ATOM      2  C   UNL     1       6.692   5.003  15.871  0.00  0.00    +0.000 A 
ATOM      3  C   UNL     1       5.661   4.083  16.061  0.00  0.00    +0.000 A 
ATOM      4  C   UNL     1       4.678   4.312  17.022  0.00  0.00    +0.000 A 
ATOM      5  C   UNL     1       4.702   5.473  17.799  0.00  0.00    +0.000 A 
ATOM      6  C   UNL     1       5.768   6.376  17.623  0.00  0.00    +0.000 A 
ATOM      7  C   UNL     1       3.571   5.758  18.759  0.00  0.00    +0.000 C 
ATOM      8  C   UNL     1       2.646   4.575  18.946  0.00  0.00    +0.000 A 
ATOM      9  C   UNL     1       1.621   4.590  19.907  0.00  0.00    +0.000 A 
ATOM     10  C   UNL     1       0.717   3.529  20.000  0.00  0.00    +0.000 A 
ATOM     11  C   UNL     1       0.836   2.434  19.148  0.00  0.00    +0.000 A 
ATOM     12  C   UNL     1       1.862   2.399  18.207  0.00  0.00    +0.000 A 
ATOM     13  C   UNL     1       2.760   3.463  18.105  0.00  0.00    +0.000 A 
ATOM     14  O   UNL     1       3.709   3.347  17.122  0.00  0.00    +0.000 OA
ENDROOT
BRANCH   1  16
ATOM     15  C   UNL     1       7.776   8.054  17.647  0.00  0.00    +0.000 C 
ATOM     16  O   UNL     1       7.709   7.129  16.566  0.00  0.00    +0.000 OA
ENDBRANCH   1  16
BRANCH   7  17
ATOM     17  S   UNL     1       2.615   7.262  18.222  0.00  0.00    +0.000 S 
BRANCH  17  18
ATOM     18  C   UNL     1       2.149   7.918  19.864  0.00  0.00    +0.000 C 
BRANCH  18  19
ATOM     19  C   UNL     1       0.927   8.845  19.789  0.00  0.00    +0.000 C 
BRANCH  19  20
ATOM     20  N   UNL     1       1.283  10.278  19.904  0.00  0.00    +0.000 NA
ATOM     21  C   UNL     1       1.464  10.921  18.592  0.00  0.00    +0.000 C 
ATOM     22  C   UNL     1       1.877  12.386  18.742  0.00  0.00    +0.000 C 
ATOM     23  C   UNL     1       0.871  13.164  19.578  0.00  0.00    +0.000 C 
ATOM     24  C   UNL     1       0.630  12.453  20.904  0.00  0.00    +0.000 C 
ATOM     25  C   UNL     1       0.260  10.985  20.692  0.00  0.00    +0.000 C 
ENDBRANCH  19  20
ENDBRANCH  18  19
ENDBRANCH  17  18
ENDBRANCH   7  17
TORSDOF 5
ENDMDL
MODEL 5
REMARK VINA RESULT:      -7.6      1.216      1.395
REMARK  Name = 
REMARK  6 active torsions:
REMARK  status: ('A' for Active; 'I' for Inactive)
REMARK    1  A    between atoms: C_1  and  O_2
REMARK    2  A    between atoms: O_2  and  C_3
REMARK    3  A    between atoms: C_9  and  S_10
REMARK    4  A    between atoms: S_10  and  C_11
REMARK    5  A    between atoms: C_11  and  C_12
REMARK    6  A    between atoms: C_12  and  N_13
REMARK                            x       y       z     vdW  Elec       q    Type
REMARK                         _______ _______ _______ _____ _____    ______ ____
ROOT
ATOM      1  C   UNL     1       6.937   6.409  17.072  0.00  0.00    +0.000 A 
ATOM      2  C   UNL     1       7.212   5.078  16.761  0.00  0.00    +0.000 A 
ATOM      3  C   UNL     1       6.348   4.069  17.188  0.00  0.00    +0.000 A 
ATOM      4  C   UNL     1       5.198   4.383  17.912  0.00  0.00    +0.000 A 
ATOM      5  C   UNL     1       4.887   5.711  18.207  0.00  0.00    +0.000 A 
ATOM      6  C   UNL     1       5.785   6.718  17.803  0.00  0.00    +0.000 A 
ATOM      7  C   UNL     1       3.584   6.041  18.897  0.00  0.00    +0.000 C 
ATOM      8  C   UNL     1       2.871   4.816  19.426  0.00  0.00    +0.000 A 
ATOM      9  C   UNL     1       1.720   4.924  20.226  0.00  0.00    +0.000 A 
ATOM     10  C   UNL     1       1.021   3.783  20.624  0.00  0.00    +0.000 A 
ATOM     11  C   UNL     1       1.472   2.521  20.247  0.00  0.00    +0.000 A 
ATOM     12  C   UNL     1       2.624   2.401  19.474  0.00  0.00    +0.000 A 
ATOM     13  C   UNL     1       3.319   3.541  19.065  0.00  0.00    +0.000 A 
ATOM     14  O   UNL     1       4.418   3.316  18.277  0.00  0.00    +0.000 OA
ENDROOT
BRANCH   1  16
ATOM     15  C   UNL     1       7.880   8.496  17.698  0.00  0.00    +0.000 C 
ATOM     16  O   UNL     1       7.701   7.485  16.711  0.00  0.00    +0.000 OA
ENDBRANCH   1  16
BRANCH   7  17
ATOM     17  S   UNL     1       2.468   7.013  17.767  0.00  0.00    +0.000 S 
BRANCH  17  18
ATOM     18  C   UNL     1       2.043   8.395  18.888  0.00  0.00    +0.000 C 
BRANCH  18  19
ATOM     19  C   UNL     1       1.668   9.668  18.117  0.00  0.00    +0.000 C 
BRANCH  19  20
ATOM     20  N   UNL     1       0.882  10.624  18.930  0.00  0.00    +0.000 NA
ATOM     21  C   UNL     1      -0.534  10.673  18.530  0.00  0.00    +0.000 C 
ATOM     22  C   UNL     1      -1.310  11.703  19.354  0.00  0.00    +0.000 C 
ATOM     23  C   UNL     1      -1.190  11.425  20.845  0.00  0.00    +0.000 C 
ATOM     24  C   UNL     1       0.276  11.300  21.240  0.00  0.00    +0.000 C 
ATOM     25  C   UNL     1       1.008  10.287  20.358  0.00  0.00    +0.000 C 
ENDBRANCH  19  20
ENDBRANCH  18  19
ENDBRANCH  17  18
ENDBRANCH   7  17
TORSDOF 5
ENDMDL
MODEL 6
REMARK VINA RESULT:      -7.5      0.922      1.499
REMARK  Name = 
REMARK  6 active torsions:
REMARK  status: ('A' for Active; 'I' for Inactive)
REMARK    1  A    between atoms: C_1  and  O_2
REMARK    2  A    between atoms: O_2  and  C_3
REMARK    3  A    between atoms: C_9  and  S_10
REMARK    4  A    between atoms: S_10  and  C_11
REMARK    5  A    between atoms: C_11  and  C_12
REMARK    6  A    between atoms: C_12  and  N_13
REMARK                            x       y       z     vdW  Elec       q    Type
REMARK                         _______ _______ _______ _____ _____    ______ ____
ROOT
ATOM      1  C   UNL     1       6.952   6.312  16.978  0.00  0.00    +0.000 A 
ATOM      2  C   UNL     1       7.132   5.004  16.532  0.00  0.00    +0.000 A 
ATOM      3  C   UNL     1       6.192   4.023  16.851  0.00  0.00    +0.000 A 
ATOM      4  C   UNL     1       5.062   4.344  17.601  0.00  0.00    +0.000 A 
ATOM      5  C   UNL     1       4.845   5.655  18.032  0.00  0.00    +0.000 A 
ATOM      6  C   UNL     1       5.818   6.628  17.736  0.00  0.00    +0.000 A 
ATOM      7  C   UNL     1       3.564   6.007  18.749  0.00  0.00    +0.000 C 
ATOM      8  C   UNL     1       2.758   4.790  19.147  0.00  0.00    +0.000 A 
ATOM      9  C   UNL     1       1.610   4.899  19.951  0.00  0.00    +0.000 A 
ATOM     10  C   UNL     1       0.826   3.778  20.228  0.00  0.00    +0.000 A 
ATOM     11  C   UNL     1       1.187   2.532  19.724  0.00  0.00    +0.000 A 
ATOM     12  C   UNL     1       2.335   2.407  18.945  0.00  0.00    +0.000 A 
ATOM     13  C   UNL     1       3.115   3.529  18.658  0.00  0.00    +0.000 A 
ATOM     14  O   UNL     1       4.202   3.306  17.853  0.00  0.00    +0.000 OA
ENDROOT
BRANCH   1  16
ATOM     15  C   UNL     1       7.915   8.336  17.764  0.00  0.00    +0.000 C 
ATOM     16  O   UNL     1       7.796   7.361  16.732  0.00  0.00    +0.000 OA
ENDBRANCH   1  16
BRANCH   7  17
ATOM     17  S   UNL     1       2.533   7.170  17.723  0.00  0.00    +0.000 S 
BRANCH  17  18
ATOM     18  C   UNL     1       2.011   8.335  19.033  0.00  0.00    +0.000 C 
BRANCH  18  19
ATOM     19  C   UNL     1       1.677   9.724  18.469  0.00  0.00    +0.000 C 
BRANCH  19  20
ATOM     20  N   UNL     1       0.715  10.472  19.310  0.00  0.00    +0.000 NA
ATOM     21  C   UNL     1       0.766  10.064  20.724  0.00  0.00    +0.000 C 
ATOM     22  C   UNL     1      -0.271  10.818  21.559  0.00  0.00    +0.000 C 
ATOM     23  C   UNL     1      -0.094  12.325  21.435  0.00  0.00    +0.000 C 
ATOM     24  C   UNL     1      -0.072  12.732  19.967  0.00  0.00    +0.000 C 
ATOM     25  C   UNL     1       0.954  11.918  19.177  0.00  0.00    +0.000 C 
ENDBRANCH  19  20
ENDBRANCH  18  19
ENDBRANCH  17  18
ENDBRANCH   7  17
TORSDOF 5
ENDMDL
MODEL 7
REMARK VINA RESULT:      -7.5      1.327      1.827
REMARK  Name = 
REMARK  6 active torsions:
REMARK  status: ('A' for Active; 'I' for Inactive)
REMARK    1  A    between atoms: C_1  and  O_2
REMARK    2  A    between atoms: O_2  and  C_3
REMARK    3  A    between atoms: C_9  and  S_10
REMARK    4  A    between atoms: S_10  and  C_11
REMARK    5  A    between atoms: C_11  and  C_12
REMARK    6  A    between atoms: C_12  and  N_13
REMARK                            x       y       z     vdW  Elec       q    Type
REMARK                         _______ _______ _______ _____ _____    ______ ____
ROOT
ATOM      1  C   UNL     1       6.590   6.164  16.771  0.00  0.00    +0.000 A 
ATOM      2  C   UNL     1       6.152   5.398  15.691  0.00  0.00    +0.000 A 
ATOM      3  C   UNL     1       5.027   4.584  15.824  0.00  0.00    +0.000 A 
ATOM      4  C   UNL     1       4.324   4.541  17.027  0.00  0.00    +0.000 A 
ATOM      5  C   UNL     1       4.725   5.323  18.112  0.00  0.00    +0.000 A 
ATOM      6  C   UNL     1       5.883   6.113  17.978  0.00  0.00    +0.000 A 
ATOM      7  C   UNL     1       3.890   5.347  19.370  0.00  0.00    +0.000 C 
ATOM      8  C   UNL     1       2.817   4.280  19.385  0.00  0.00    +0.000 A 
ATOM      9  C   UNL     1       2.033   4.043  20.527  0.00  0.00    +0.000 A 
ATOM     10  C   UNL     1       0.984   3.122  20.491  0.00  0.00    +0.000 A 
ATOM     11  C   UNL     1       0.718   2.413  19.323  0.00  0.00    +0.000 A 
ATOM     12  C   UNL     1       1.502   2.623  18.192  0.00  0.00    +0.000 A 
ATOM     13  C   UNL     1       2.545   3.552  18.222  0.00  0.00    +0.000 A 
ATOM     14  O   UNL     1       3.232   3.711  17.046  0.00  0.00    +0.000 OA
ENDROOT
BRANCH   1  16
ATOM     15  C   UNL     1       7.610   8.123  17.641  0.00  0.00    +0.000 C 
ATOM     16  O   UNL     1       7.672   7.001  16.767  0.00  0.00    +0.000 OA
ENDBRANCH   1  16
BRANCH   7  17
ATOM     17  S   UNL     1       3.145   7.032  19.634  0.00  0.00    +0.000 S 
BRANCH  17  18
ATOM     18  C   UNL     1       2.344   7.259  18.005  0.00  0.00    +0.000 C 
BRANCH  18  19
ATOM     19  C   UNL     1       1.976   8.726  17.743  0.00  0.00    +0.000 C 
BRANCH  19  20
ATOM     20  N   UNL     1       0.853   9.199  18.586  0.00  0.00    +0.000 NA
ATOM     21  C   UNL     1       1.291  10.137  19.633  0.00  0.00    +0.000 C 
ATOM     22  C   UNL     1       0.120  10.571  20.517  0.00  0.00    +0.000 C 
ATOM     23  C   UNL     1      -1.002  11.184  19.691  0.00  0.00    +0.000 C 
ATOM     24  C   UNL     1      -1.399  10.241  18.562  0.00  0.00    +0.000 C 
ATOM     25  C   UNL     1      -0.183   9.812  17.739  0.00  0.00    +0.000 C 
ENDBRANCH  19  20
ENDBRANCH  18  19
ENDBRANCH  17  18
ENDBRANCH   7  17
TORSDOF 5
ENDMDL
MODEL 8
REMARK VINA RESULT:      -7.4      3.334      7.520
REMARK  Name = 
REMARK  6 active torsions:
REMARK  status: ('A' for Active; 'I' for Inactive)
REMARK    1  A    between atoms: C_1  and  O_2
REMARK    2  A    between atoms: O_2  and  C_3
REMARK    3  A    between atoms: C_9  and  S_10
REMARK    4  A    between atoms: S_10  and  C_11
REMARK    5  A    between atoms: C_11  and  C_12
REMARK    6  A    between atoms: C_12  and  N_13
REMARK                            x       y       z     vdW  Elec       q    Type
REMARK                         _______ _______ _______ _____ _____    ______ ____
ROOT
ATOM      1  C   UNL     1       2.007   9.209  18.255  0.00  0.00    +0.000 A 
ATOM      2  C   UNL     1       1.436   9.203  19.527  0.00  0.00    +0.000 A 
ATOM      3  C   UNL     1       1.458   8.039  20.296  0.00  0.00    +0.000 A 
ATOM      4  C   UNL     1       2.063   6.881  19.809  0.00  0.00    +0.000 A 
ATOM      5  C   UNL     1       2.669   6.873  18.551  0.00  0.00    +0.000 A 
ATOM      6  C   UNL     1       2.608   8.042  17.768  0.00  0.00    +0.000 A 
ATOM      7  C   UNL     1       3.413   5.644  18.084  0.00  0.00    +0.000 C 
ATOM      8  C   UNL     1       3.181   4.443  18.974  0.00  0.00    +0.000 A 
ATOM      9  C   UNL     1       3.666   3.169  18.629  0.00  0.00    +0.000 A 
ATOM     10  C   UNL     1       3.526   2.092  19.507  0.00  0.00    +0.000 A 
ATOM     11  C   UNL     1       2.885   2.269  20.730  0.00  0.00    +0.000 A 
ATOM     12  C   UNL     1       2.381   3.521  21.073  0.00  0.00    +0.000 A 
ATOM     13  C   UNL     1       2.530   4.601  20.201  0.00  0.00    +0.000 A 
ATOM     14  O   UNL     1       2.031   5.798  20.648  0.00  0.00    +0.000 OA
ENDROOT
BRANCH   1  16
ATOM     15  C   UNL     1       2.144  11.567  18.012  0.00  0.00    +0.000 C 
ATOM     16  O   UNL     1       2.053  10.281  17.406  0.00  0.00    +0.000 OA
ENDBRANCH   1  16
BRANCH   7  17
ATOM     17  S   UNL     1       5.233   5.999  17.921  0.00  0.00    +0.000 S 
BRANCH  17  18
ATOM     18  C   UNL     1       5.401   5.855  16.106  0.00  0.00    +0.000 C 
BRANCH  18  19
ATOM     19  C   UNL     1       5.330   4.396  15.634  0.00  0.00    +0.000 C 
BRANCH  19  20
ATOM     20  N   UNL     1       6.218   4.117  14.482  0.00  0.00    +0.000 NA
ATOM     21  C   UNL     1       5.474   3.669  13.292  0.00  0.00    +0.000 C 
ATOM     22  C   UNL     1       6.419   3.344  12.134  0.00  0.00    +0.000 C 
ATOM     23  C   UNL     1       7.305   4.533  11.789  0.00  0.00    +0.000 C 
ATOM     24  C   UNL     1       8.014   5.041  13.039  0.00  0.00    +0.000 C 
ATOM     25  C   UNL     1       7.023   5.311  14.172  0.00  0.00    +0.000 C 
ENDBRANCH  19  20
ENDBRANCH  18  19
ENDBRANCH  17  18
ENDBRANCH   7  17
TORSDOF 5
ENDMDL
MODEL 9
REMARK VINA RESULT:      -7.2      3.233      7.570
REMARK  Name = 
REMARK  6 active torsions:
REMARK  status: ('A' for Active; 'I' for Inactive)
REMARK    1  A    between atoms: C_1  and  O_2
REMARK    2  A    between atoms: O_2  and  C_3
REMARK    3  A    between atoms: C_9  and  S_10
REMARK    4  A    between atoms: S_10  and  C_11
REMARK    5  A    between atoms: C_11  and  C_12
REMARK    6  A    between atoms: C_12  and  N_13
REMARK                            x       y       z     vdW  Elec       q    Type
REMARK                         _______ _______ _______ _____ _____    ______ ____
ROOT
ATOM      1  C   UNL     1       1.856   9.594  18.413  0.00  0.00    +0.000 A 
ATOM      2  C   UNL     1       1.367   9.628  19.718  0.00  0.00    +0.000 A 
ATOM      3  C   UNL     1       1.304   8.455  20.471  0.00  0.00    +0.000 A 
ATOM      4  C   UNL     1       1.743   7.246  19.933  0.00  0.00    +0.000 A 
ATOM      5  C   UNL     1       2.266   7.193  18.639  0.00  0.00    +0.000 A 
ATOM      6  C   UNL     1       2.291   8.376  17.876  0.00  0.00    +0.000 A 
ATOM      7  C   UNL     1       2.836   5.898  18.113  0.00  0.00    +0.000 C 
ATOM      8  C   UNL     1       2.524   4.713  19.001  0.00  0.00    +0.000 A 
ATOM      9  C   UNL     1       2.839   3.400  18.611  0.00  0.00    +0.000 A 
ATOM     10  C   UNL     1       2.632   2.330  19.484  0.00  0.00    +0.000 A 
ATOM     11  C   UNL     1       2.091   2.554  20.747  0.00  0.00    +0.000 A 
ATOM     12  C   UNL     1       1.754   3.848  21.135  0.00  0.00    +0.000 A 
ATOM     13  C   UNL     1       1.971   4.921  20.268  0.00  0.00    +0.000 A 
ATOM     14  O   UNL     1       1.640   6.158  20.760  0.00  0.00    +0.000 OA
ENDROOT
BRANCH   1  16
ATOM     15  C   UNL     1       2.273  11.920  18.187  0.00  0.00    +0.000 C 
ATOM     16  O   UNL     1       1.971  10.670  17.576  0.00  0.00    +0.000 OA
ENDBRANCH   1  16
BRANCH   7  17
ATOM     17  S   UNL     1       4.671   6.049  17.840  0.00  0.00    +0.000 S 
BRANCH  17  18
ATOM     18  C   UNL     1       4.883   4.778  16.541  0.00  0.00    +0.000 C 
BRANCH  18  19
ATOM     19  C   UNL     1       6.308   4.767  15.972  0.00  0.00    +0.000 C 
BRANCH  19  20
ATOM     20  N   UNL     1       6.339   4.787  14.491  0.00  0.00    +0.000 NA
ATOM     21  C   UNL     1       7.674   5.109  13.959  0.00  0.00    +0.000 C 
ATOM     22  C   UNL     1       7.664   5.169  12.430  0.00  0.00    +0.000 C 
ATOM     23  C   UNL     1       7.152   3.870  11.827  0.00  0.00    +0.000 C 
ATOM     24  C   UNL     1       5.805   3.501  12.437  0.00  0.00    +0.000 C 
ATOM     25  C   UNL     1       5.867   3.495  13.965  0.00  0.00    +0.000 C 
ENDBRANCH  19  20
ENDBRANCH  18  19
ENDBRANCH  17  18
ENDBRANCH   7  17
TORSDOF 5
ENDMDL
