MODEL 1
REMARK VINA RESULT:      -7.3      0.000      0.000
REMARK  Name = 
REMARK  5 active torsions:
REMARK  status: ('A' for Active; 'I' for Inactive)
REMARK    1  A    between atoms: C_1  and  C_2
REMARK    2  A    between atoms: C_2  and  C_3
REMARK    3  A    between atoms: C_5  and  O_6
REMARK    4  A    between atoms: C_7  and  O_8
REMARK    5  A    between atoms: O_8  and  C_9
REMARK                            x       y       z     vdW  Elec       q    Type
REMARK                         _______ _______ _______ _____ _____    ______ ____
ROOT
ATOM      1  C   UNL     1       7.293   6.428  17.990  0.00  0.00    +0.000 A 
ATOM      2  C   UNL     1       6.793   6.364  16.681  0.00  0.00    +0.000 A 
ATOM      3  C   UNL     1       5.906   5.347  16.326  0.00  0.00    +0.000 A 
ATOM      4  C   UNL     1       5.503   4.389  17.265  0.00  0.00    +0.000 A 
ATOM      5  C   UNL     1       5.947   4.495  18.586  0.00  0.00    +0.000 A 
ATOM      6  C   UNL     1       6.855   5.487  18.927  0.00  0.00    +0.000 A 
ATOM      7  F   UNL     1       7.312   5.536  20.186  0.00  0.00    +0.000 F 
ENDROOT
BRANCH   1   9
ATOM      8  C   UNL     1       7.892   8.828  17.711  0.00  0.00    +0.000 C 
ATOM      9  C   UNL     1       8.231   7.525  18.416  0.00  0.00    +0.000 C 
ENDBRANCH   1   9
BRANCH   3  10
ATOM     10  O   UNL     1       5.421   5.273  15.050  0.00  0.00    +0.000 OA
ATOM     11  H   UNL     1       5.511   4.359  14.729  0.00  0.00    +0.000 HD
ENDBRANCH   3  10
BRANCH   4  12
ATOM     12  O   UNL     1       4.644   3.395  16.850  0.00  0.00    +0.000 OA
BRANCH  12  13
ATOM     13  C   UNL     1       3.481   3.206  17.555  0.00  0.00    +0.000 A 
ATOM     14  C   UNL     1       2.560   4.251  17.546  0.00  0.00    +0.000 A 
ATOM     15  C   UNL     1       1.376   4.124  18.266  0.00  0.00    +0.000 A 
ATOM     16  C   UNL     1       1.149   2.943  18.957  0.00  0.00    +0.000 A 
ATOM     17  N   UNL     1       1.996   1.895  18.956  0.00  0.00    +0.000 NA
ATOM     18  C   UNL     1       3.135   2.040  18.238  0.00  0.00    +0.000 A 
ATOM     19  F   UNL     1       3.962   0.983  18.226  0.00  0.00    +0.000 F 
ENDBRANCH  12  13
ENDBRANCH   4  12
TORSDOF 4
ENDMDL
MODEL 2
REMARK VINA RESULT:      -7.2      3.123      5.725
REMARK  Name = 
REMARK  5 active torsions:
REMARK  status: ('A' for Active; 'I' for Inactive)
REMARK    1  A    between atoms: C_1  and  C_2
REMARK    2  A    between atoms: C_2  and  C_3
REMARK    3  A    between atoms: C_5  and  O_6
REMARK    4  A    between atoms: C_7  and  O_8
REMARK    5  A    between atoms: O_8  and  C_9
REMARK                            x       y       z     vdW  Elec       q    Type
REMARK                         _______ _______ _______ _____ _____    ______ ____
ROOT
ATOM      1  C   UNL     1       2.397   4.337  19.988  0.00  0.00    +0.000 A 
ATOM      2  C   UNL     1       3.198   3.190  20.088  0.00  0.00    +0.000 A 
ATOM      3  C   UNL     1       4.512   3.217  19.618  0.00  0.00    +0.000 A 
ATOM      4  C   UNL     1       5.044   4.382  19.051  0.00  0.00    +0.000 A 
ATOM      5  C   UNL     1       4.268   5.544  19.015  0.00  0.00    +0.000 A 
ATOM      6  C   UNL     1       2.952   5.503  19.452  0.00  0.00    +0.000 A 
ATOM      7  F   UNL     1       2.207   6.613  19.357  0.00  0.00    +0.000 F 
ENDROOT
BRANCH   1   9
ATOM      8  C   UNL     1       0.256   3.074  20.122  0.00  0.00    +0.000 C 
ATOM      9  C   UNL     1       0.985   4.352  20.506  0.00  0.00    +0.000 C 
ENDBRANCH   1   9
BRANCH   3  10
ATOM     10  O   UNL     1       5.295   2.100  19.704  0.00  0.00    +0.000 OA
ATOM     11  H   UNL     1       5.123   1.532  18.935  0.00  0.00    +0.000 HD
ENDBRANCH   3  10
BRANCH   4  12
ATOM     12  O   UNL     1       6.339   4.343  18.583  0.00  0.00    +0.000 OA
BRANCH  12  13
ATOM     13  C   UNL     1       6.554   4.564  17.245  0.00  0.00    +0.000 A 
ATOM     14  C   UNL     1       5.932   3.693  16.353  0.00  0.00    +0.000 A 
ATOM     15  C   UNL     1       6.137   3.854  14.987  0.00  0.00    +0.000 A 
ATOM     16  C   UNL     1       6.947   4.896  14.560  0.00  0.00    +0.000 A 
ATOM     17  N   UNL     1       7.533   5.783  15.390  0.00  0.00    +0.000 NA
ATOM     18  C   UNL     1       7.308   5.610  16.714  0.00  0.00    +0.000 A 
ATOM     19  F   UNL     1       7.877   6.510  17.530  0.00  0.00    +0.000 F 
ENDBRANCH  12  13
ENDBRANCH   4  12
TORSDOF 4
ENDMDL
MODEL 3
REMARK VINA RESULT:      -7.1      2.813      6.026
REMARK  Name = 
REMARK  5 active torsions:
REMARK  status: ('A' for Active; 'I' for Inactive)
REMARK    1  A    between atoms: C_1  and  C_2
REMARK    2  A    between atoms: C_2  and  C_3
REMARK    3  A    between atoms: C_5  and  O_6
REMARK    4  A    between atoms: C_7  and  O_8
REMARK    5  A    between atoms: O_8  and  C_9
REMARK                            x       y       z     vdW  Elec       q    Type
REMARK                         _______ _______ _______ _____ _____    ______ ____
ROOT
ATOM      1  C   UNL     1       2.099   3.522  19.215  0.00  0.00    +0.000 A 
ATOM      2  C   UNL     1       3.304   3.094  19.790  0.00  0.00    +0.000 A 
ATOM      3  C   UNL     1       4.509   3.308  19.118  0.00  0.00    +0.000 A 
ATOM      4  C   UNL     1       4.529   3.953  17.874  0.00  0.00    +0.000 A 
ATOM      5  C   UNL     1       3.335   4.441  17.335  0.00  0.00    +0.000 A 
ATOM      6  C   UNL     1       2.136   4.195  17.990  0.00  0.00    +0.000 A 
ATOM      7  F   UNL     1       0.997   4.622  17.428  0.00  0.00    +0.000 F 
ENDROOT
BRANCH   1   9
ATOM      8  C   UNL     1       1.001   2.795  21.328  0.00  0.00    +0.000 C 
ATOM      9  C   UNL     1       0.784   3.329  19.921  0.00  0.00    +0.000 C 
ENDBRANCH   1   9
BRANCH   3  10
ATOM     10  O   UNL     1       5.687   2.886  19.668  0.00  0.00    +0.000 OA
ATOM     11  H   UNL     1       6.423   3.355  19.240  0.00  0.00    +0.000 HD
ENDBRANCH   3  10
BRANCH   4  12
ATOM     12  O   UNL     1       5.745   4.116  17.248  0.00  0.00    +0.000 OA
BRANCH  12  13
ATOM     13  C   UNL     1       6.398   5.314  17.399  0.00  0.00    +0.000 A 
ATOM     14  C   UNL     1       7.352   5.390  18.412  0.00  0.00    +0.000 A 
ATOM     15  C   UNL     1       8.025   6.589  18.626  0.00  0.00    +0.000 A 
ATOM     16  C   UNL     1       7.729   7.667  17.806  0.00  0.00    +0.000 A 
ATOM     17  N   UNL     1       6.843   7.620  16.791  0.00  0.00    +0.000 NA
ATOM     18  C   UNL     1       6.211   6.439  16.596  0.00  0.00    +0.000 A 
ATOM     19  F   UNL     1       5.347   6.396  15.570  0.00  0.00    +0.000 F 
ENDBRANCH  12  13
ENDBRANCH   4  12
TORSDOF 4
ENDMDL
MODEL 4
REMARK VINA RESULT:      -7.1      2.845      5.900
REMARK  Name = 
REMARK  5 active torsions:
REMARK  status: ('A' for Active; 'I' for Inactive)
REMARK    1  A    between atoms: C_1  and  C_2
REMARK    2  A    between atoms: C_2  and  C_3
REMARK    3  A    between atoms: C_5  and  O_6
REMARK    4  A    between atoms: C_7  and  O_8
REMARK    5  A    between atoms: O_8  and  C_9
REMARK                            x       y       z     vdW  Elec       q    Type
REMARK                         _______ _______ _______ _____ _____    ______ ____
ROOT
ATOM      1  C   UNL     1       1.882   3.349  19.655  0.00  0.00    +0.000 A 
ATOM      2  C   UNL     1       2.618   2.349  19.004  0.00  0.00    +0.000 A 
ATOM      3  C   UNL     1       3.602   2.701  18.079  0.00  0.00    +0.000 A 
ATOM      4  C   UNL     1       3.868   4.047  17.796  0.00  0.00    +0.000 A 
ATOM      5  C   UNL     1       3.182   5.044  18.497  0.00  0.00    +0.000 A 
ATOM      6  C   UNL     1       2.181   4.689  19.390  0.00  0.00    +0.000 A 
ATOM      7  F   UNL     1       1.497   5.661  20.009  0.00  0.00    +0.000 F 
ENDROOT
BRANCH   1   9
ATOM      8  C   UNL     1       1.470   2.609  21.995  0.00  0.00    +0.000 C 
ATOM      9  C   UNL     1       0.830   3.007  20.675  0.00  0.00    +0.000 C 
ENDBRANCH   1   9
BRANCH   3  10
ATOM     10  O   UNL     1       4.317   1.731  17.434  0.00  0.00    +0.000 OA
ATOM     11  H   UNL     1       3.700   1.115  17.005  0.00  0.00    +0.000 HD
ENDBRANCH   3  10
BRANCH   4  12
ATOM     12  O   UNL     1       4.834   4.334  16.857  0.00  0.00    +0.000 OA
BRANCH  12  13
ATOM     13  C   UNL     1       5.785   5.273  17.170  0.00  0.00    +0.000 A 
ATOM     14  C   UNL     1       6.738   4.915  18.122  0.00  0.00    +0.000 A 
ATOM     15  C   UNL     1       7.709   5.838  18.496  0.00  0.00    +0.000 A 
ATOM     16  C   UNL     1       7.702   7.085  17.890  0.00  0.00    +0.000 A 
ATOM     17  N   UNL     1       6.822   7.454  16.937  0.00  0.00    +0.000 NA
ATOM     18  C   UNL     1       5.895   6.533  16.582  0.00  0.00    +0.000 A 
ATOM     19  F   UNL     1       5.038   6.901  15.617  0.00  0.00    +0.000 F 
ENDBRANCH  12  13
ENDBRANCH   4  12
TORSDOF 4
ENDMDL
MODEL 5
REMARK VINA RESULT:      -7.0      3.045      5.622
REMARK  Name = 
REMARK  5 active torsions:
REMARK  status: ('A' for Active; 'I' for Inactive)
REMARK    1  A    between atoms: C_1  and  C_2
REMARK    2  A    between atoms: C_2  and  C_3
REMARK    3  A    between atoms: C_5  and  O_6
REMARK    4  A    between atoms: C_7  and  O_8
REMARK    5  A    between atoms: O_8  and  C_9
REMARK                            x       y       z     vdW  Elec       q    Type
REMARK                         _______ _______ _______ _____ _____    ______ ____
ROOT
ATOM      1  C   UNL     1       2.257   3.988  20.245  0.00  0.00    +0.000 A 
ATOM      2  C   UNL     1       3.363   3.190  19.923  0.00  0.00    +0.000 A 
ATOM      3  C   UNL     1       4.526   3.782  19.426  0.00  0.00    +0.000 A 
ATOM      4  C   UNL     1       4.602   5.169  19.249  0.00  0.00    +0.000 A 
ATOM      5  C   UNL     1       3.524   5.970  19.635  0.00  0.00    +0.000 A 
ATOM      6  C   UNL     1       2.359   5.375  20.097  0.00  0.00    +0.000 A 
ATOM      7  F   UNL     1       1.316   6.158  20.409  0.00  0.00    +0.000 F 
ENDROOT
BRANCH   1   9
ATOM      8  C   UNL     1       1.317   2.408  21.922  0.00  0.00    +0.000 C 
ATOM      9  C   UNL     1       0.996   3.388  20.806  0.00  0.00    +0.000 C 
ENDBRANCH   1   9
BRANCH   3  10
ATOM     10  O   UNL     1       5.606   3.009  19.102  0.00  0.00    +0.000 OA
ATOM     11  H   UNL     1       5.944   3.286  18.234  0.00  0.00    +0.000 HD
ENDBRANCH   3  10
BRANCH   4  12
ATOM     12  O   UNL     1       5.767   5.694  18.733  0.00  0.00    +0.000 OA
BRANCH  12  13
ATOM     13  C   UNL     1       6.060   5.452  17.414  0.00  0.00    +0.000 A 
ATOM     14  C   UNL     1       5.149   5.917  16.468  0.00  0.00    +0.000 A 
ATOM     15  C   UNL     1       5.383   5.676  15.118  0.00  0.00    +0.000 A 
ATOM     16  C   UNL     1       6.533   4.988  14.761  0.00  0.00    +0.000 A 
ATOM     17  N   UNL     1       7.458   4.558  15.644  0.00  0.00    +0.000 NA
ATOM     18  C   UNL     1       7.211   4.817  16.950  0.00  0.00    +0.000 A 
ATOM     19  F   UNL     1       8.148   4.404  17.818  0.00  0.00    +0.000 F 
ENDBRANCH  12  13
ENDBRANCH   4  12
TORSDOF 4
ENDMDL
MODEL 6
REMARK VINA RESULT:      -7.0      2.723      5.622
REMARK  Name = 
REMARK  5 active torsions:
REMARK  status: ('A' for Active; 'I' for Inactive)
REMARK    1  A    between atoms: C_1  and  C_2
REMARK    2  A    between atoms: C_2  and  C_3
REMARK    3  A    between atoms: C_5  and  O_6
REMARK    4  A    between atoms: C_7  and  O_8
REMARK    5  A    between atoms: O_8  and  C_9
REMARK                            x       y       z     vdW  Elec       q    Type
REMARK                         _______ _______ _______ _____ _____    ______ ____
ROOT
ATOM      1  C   UNL     1       2.163   3.819  19.964  0.00  0.00    +0.000 A 
ATOM      2  C   UNL     1       1.998   5.187  19.702  0.00  0.00    +0.000 A 
ATOM      3  C   UNL     1       3.040   5.914  19.125  0.00  0.00    +0.000 A 
ATOM      4  C   UNL     1       4.252   5.291  18.798  0.00  0.00    +0.000 A 
ATOM      5  C   UNL     1       4.390   3.914  18.996  0.00  0.00    +0.000 A 
ATOM      6  C   UNL     1       3.364   3.202  19.601  0.00  0.00    +0.000 A 
ATOM      7  F   UNL     1       3.539   1.894  19.834  0.00  0.00    +0.000 F 
ENDROOT
BRANCH   1   9
ATOM      8  C   UNL     1       1.402   2.573  21.980  0.00  0.00    +0.000 C 
ATOM      9  C   UNL     1       1.054   2.998  20.563  0.00  0.00    +0.000 C 
ENDBRANCH   1   9
BRANCH   3  10
ATOM     10  O   UNL     1       2.890   7.249  18.874  0.00  0.00    +0.000 OA
ATOM     11  H   UNL     1       3.768   7.653  18.771  0.00  0.00    +0.000 HD
ENDBRANCH   3  10
BRANCH   4  12
ATOM     12  O   UNL     1       5.253   6.064  18.252  0.00  0.00    +0.000 OA
BRANCH  12  13
ATOM     13  C   UNL     1       5.874   5.614  17.114  0.00  0.00    +0.000 A 
ATOM     14  C   UNL     1       5.180   5.762  15.915  0.00  0.00    +0.000 A 
ATOM     15  C   UNL     1       5.751   5.298  14.734  0.00  0.00    +0.000 A 
ATOM     16  C   UNL     1       7.008   4.717  14.794  0.00  0.00    +0.000 A 
ATOM     17  N   UNL     1       7.728   4.592  15.928  0.00  0.00    +0.000 NA
ATOM     18  C   UNL     1       7.153   5.062  17.061  0.00  0.00    +0.000 A 
ATOM     19  F   UNL     1       7.886   4.954  18.180  0.00  0.00    +0.000 F 
ENDBRANCH  12  13
ENDBRANCH   4  12
TORSDOF 4
ENDMDL
MODEL 7
REMARK VINA RESULT:      -7.0      3.823      5.562
REMARK  Name = 
REMARK  5 active torsions:
REMARK  status: ('A' for Active; 'I' for Inactive)
REMARK    1  A    between atoms: C_1  and  C_2
REMARK    2  A    between atoms: C_2  and  C_3
REMARK    3  A    between atoms: C_5  and  O_6
REMARK    4  A    between atoms: C_7  and  O_8
REMARK    5  A    between atoms: O_8  and  C_9
REMARK                            x       y       z     vdW  Elec       q    Type
REMARK                         _______ _______ _______ _____ _____    ______ ____
ROOT
ATOM      1  C   UNL     1       4.644   5.557  18.589  0.00  0.00    +0.000 A 
ATOM      2  C   UNL     1       5.803   4.771  18.655  0.00  0.00    +0.000 A 
ATOM      3  C   UNL     1       6.725   4.802  17.608  0.00  0.00    +0.000 A 
ATOM      4  C   UNL     1       6.507   5.615  16.488  0.00  0.00    +0.000 A 
ATOM      5  C   UNL     1       5.387   6.450  16.455  0.00  0.00    +0.000 A 
ATOM      6  C   UNL     1       4.457   6.391  17.482  0.00  0.00    +0.000 A 
ATOM      7  F   UNL     1       3.361   7.159  17.403  0.00  0.00    +0.000 F 
ENDROOT
BRANCH   1   9
ATOM      8  C   UNL     1       2.606   4.471  19.518  0.00  0.00    +0.000 C 
ATOM      9  C   UNL     1       3.641   5.568  19.710  0.00  0.00    +0.000 C 
ENDBRANCH   1   9
BRANCH   3  10
ATOM     10  O   UNL     1       7.853   4.031  17.662  0.00  0.00    +0.000 OA
ATOM     11  H   UNL     1       7.706   3.218  17.149  0.00  0.00    +0.000 HD
ENDBRANCH   3  10
BRANCH   4  12
ATOM     12  O   UNL     1       7.440   5.587  15.475  0.00  0.00    +0.000 OA
BRANCH  12  13
ATOM     13  C   UNL     1       7.109   4.950  14.305  0.00  0.00    +0.000 A 
ATOM     14  C   UNL     1       5.973   4.144  14.324  0.00  0.00    +0.000 A 
ATOM     15  C   UNL     1       5.606   3.454  13.173  0.00  0.00    +0.000 A 
ATOM     16  C   UNL     1       6.383   3.610  12.035  0.00  0.00    +0.000 A 
ATOM     17  N   UNL     1       7.465   4.411  11.966  0.00  0.00    +0.000 NA
ATOM     18  C   UNL     1       7.793   5.081  13.097  0.00  0.00    +0.000 A 
ATOM     19  F   UNL     1       8.858   5.893  13.012  0.00  0.00    +0.000 F 
ENDBRANCH  12  13
ENDBRANCH   4  12
TORSDOF 4
ENDMDL
MODEL 8
REMARK VINA RESULT:      -7.0      2.904      5.836
REMARK  Name = 
REMARK  5 active torsions:
REMARK  status: ('A' for Active; 'I' for Inactive)
REMARK    1  A    between atoms: C_1  and  C_2
REMARK    2  A    between atoms: C_2  and  C_3
REMARK    3  A    between atoms: C_5  and  O_6
REMARK    4  A    between atoms: C_7  and  O_8
REMARK    5  A    between atoms: O_8  and  C_9
REMARK                            x       y       z     vdW  Elec       q    Type
REMARK                         _______ _______ _______ _____ _____    ______ ____
ROOT
ATOM      1  C   UNL     1       2.593   3.155  19.415  0.00  0.00    +0.000 A 
ATOM      2  C   UNL     1       3.960   3.303  19.692  0.00  0.00    +0.000 A 
ATOM      3  C   UNL     1       4.711   4.252  18.997  0.00  0.00    +0.000 A 
ATOM      4  C   UNL     1       4.112   5.064  18.025  0.00  0.00    +0.000 A 
ATOM      5  C   UNL     1       2.736   4.963  17.799  0.00  0.00    +0.000 A 
ATOM      6  C   UNL     1       2.001   3.996  18.468  0.00  0.00    +0.000 A 
ATOM      7  F   UNL     1       0.694   3.878  18.196  0.00  0.00    +0.000 F 
ENDROOT
BRANCH   1   9
ATOM      8  C   UNL     1       1.507   2.621  21.591  0.00  0.00    +0.000 C 
ATOM      9  C   UNL     1       1.747   2.160  20.163  0.00  0.00    +0.000 C 
ENDBRANCH   1   9
BRANCH   3  10
ATOM     10  O   UNL     1       6.045   4.396  19.255  0.00  0.00    +0.000 OA
ATOM     11  H   UNL     1       6.157   4.953  20.043  0.00  0.00    +0.000 HD
ENDBRANCH   3  10
BRANCH   4  12
ATOM     12  O   UNL     1       4.909   5.966  17.354  0.00  0.00    +0.000 OA
BRANCH  12  13
ATOM     13  C   UNL     1       5.634   5.518  16.278  0.00  0.00    +0.000 A 
ATOM     14  C   UNL     1       4.954   4.755  15.331  0.00  0.00    +0.000 A 
ATOM     15  C   UNL     1       5.647   4.253  14.234  0.00  0.00    +0.000 A 
ATOM     16  C   UNL     1       6.997   4.547  14.116  0.00  0.00    +0.000 A 
ATOM     17  N   UNL     1       7.680   5.314  14.990  0.00  0.00    +0.000 NA
ATOM     18  C   UNL     1       6.979   5.801  16.041  0.00  0.00    +0.000 A 
ATOM     19  F   UNL     1       7.662   6.581  16.893  0.00  0.00    +0.000 F 
ENDBRANCH  12  13
ENDBRANCH   4  12
TORSDOF 4
ENDMDL
MODEL 9
REMARK VINA RESULT:      -6.9      1.343      1.633
REMARK  Name = 
REMARK  5 active torsions:
REMARK  status: ('A' for Active; 'I' for Inactive)
REMARK    1  A    between atoms: C_1  and  C_2
REMARK    2  A    between atoms: C_2  and  C_3
REMARK    3  A    between atoms: C_5  and  O_6
REMARK    4  A    between atoms: C_7  and  O_8
REMARK    5  A    between atoms: O_8  and  C_9
REMARK                            x       y       z     vdW  Elec       q    Type
REMARK                         _______ _______ _______ _____ _____    ______ ____
ROOT
ATOM      1  C   UNL     1       7.386   6.632  18.052  0.00  0.00    +0.000 A 
ATOM      2  C   UNL     1       6.804   6.684  16.777  0.00  0.00    +0.000 A 
ATOM      3  C   UNL     1       5.901   5.695  16.384  0.00  0.00    +0.000 A 
ATOM      4  C   UNL     1       5.565   4.649  17.253  0.00  0.00    +0.000 A 
ATOM      5  C   UNL     1       6.092   4.636  18.547  0.00  0.00    +0.000 A 
ATOM      6  C   UNL     1       7.014   5.602  18.921  0.00  0.00    +0.000 A 
ATOM      7  F   UNL     1       7.551   5.539  20.148  0.00  0.00    +0.000 F 
ENDROOT
BRANCH   1   9
ATOM      8  C   UNL     1       8.056   9.019  17.830  0.00  0.00    +0.000 C 
ATOM      9  C   UNL     1       8.343   7.694  18.518  0.00  0.00    +0.000 C 
ENDBRANCH   1   9
BRANCH   3  10
ATOM     10  O   UNL     1       5.337   5.735  15.140  0.00  0.00    +0.000 OA
ATOM     11  H   UNL     1       5.982   5.411  14.488  0.00  0.00    +0.000 HD
ENDBRANCH   3  10
BRANCH   4  12
ATOM     12  O   UNL     1       4.687   3.688  16.801  0.00  0.00    +0.000 OA
BRANCH  12  13
ATOM     13  C   UNL     1       3.554   3.446  17.538  0.00  0.00    +0.000 A 
ATOM     14  C   UNL     1       3.388   2.155  18.037  0.00  0.00    +0.000 A 
ATOM     15  C   UNL     1       2.245   1.848  18.767  0.00  0.00    +0.000 A 
ATOM     16  C   UNL     1       1.313   2.851  18.987  0.00  0.00    +0.000 A 
ATOM     17  N   UNL     1       1.457   4.120  18.556  0.00  0.00    +0.000 NA
ATOM     18  C   UNL     1       2.584   4.396  17.857  0.00  0.00    +0.000 A 
ATOM     19  F   UNL     1       2.729   5.667  17.451  0.00  0.00    +0.000 F 
ENDBRANCH  12  13
ENDBRANCH   4  12
TORSDOF 4
ENDMDL
