MODEL 1
REMARK VINA RESULT:      -7.7      0.000      0.000
REMARK  Name = 
REMARK  6 active torsions:
REMARK  status: ('A' for Active; 'I' for Inactive)
REMARK    1  A    between atoms: N_2  and  C_3
REMARK    2  A    between atoms: C_7  and  C_8
REMARK    3  A    between atoms: N_18  and  C_19
REMARK    4  A    between atoms: C_19  and  C_20
REMARK    5  A    between atoms: C_29  and  O_30
REMARK    6  A    between atoms: O_30  and  C_31
REMARK                            x       y       z     vdW  Elec       q    Type
REMARK                         _______ _______ _______ _____ _____    ______ ____
ROOT
ATOM      1  C   UNL     1       0.704   9.533  20.755  0.00  0.00    +0.000 A 
ATOM      2  C   UNL     1       0.004   8.789  21.725  0.00  0.00    +0.000 A 
ATOM      3  C   UNL     1      -0.769   9.424  22.691  0.00  0.00    +0.000 A 
ATOM      4  C   UNL     1      -0.857  10.808  22.663  0.00  0.00    +0.000 A 
ATOM      5  C   UNL     1      -0.195  11.563  21.746  0.00  0.00    +0.000 A 
ATOM      6  C   UNL     1       0.623  10.941  20.808  0.00  0.00    +0.000 A 
ATOM      7  C   UNL     1      -0.619  12.998  21.842  0.00  0.00    +0.000 C 
ATOM      8  N   UNL     1       0.546  13.872  22.286  0.00  0.00    +0.000 NA
ATOM      9  C   UNL     1       0.639  14.832  21.412  0.00  0.00    +0.000 C 
ATOM     10  N   UNL     1       1.491  15.868  21.565  0.00  0.00    +0.000 N 
ATOM     11  N   UNL     1      -0.170  14.748  20.336  0.00  0.00    +0.000 N 
ATOM     12  C   UNL     1      -0.814  13.552  20.393  0.00  0.00    +0.000 C 
ATOM     13  O   UNL     1      -1.383  13.019  19.450  0.00  0.00    +0.000 OA
ATOM     14  C   UNL     1      -1.803  13.206  23.116  0.00  0.00    +0.000 C 
ATOM     15  C   UNL     1      -2.378  14.542  22.483  0.00  0.00    +0.000 C 
ATOM     16  C   UNL     1      -3.368  14.369  21.314  0.00  0.00    +0.000 C 
ATOM     17  C   UNL     1      -4.736  14.004  21.823  0.00  0.00    +0.000 C 
ATOM     18  C   UNL     1      -4.532  12.797  22.728  0.00  0.00    +0.000 C 
ATOM     19  C   UNL     1      -3.394  13.057  23.734  0.00  0.00    +0.000 C 
ATOM     20  C   UNL     1      -1.762  11.631  23.485  0.00  0.00    +0.000 C 
ATOM     21  H   UNL     1       2.188  15.686  22.283  0.00  0.00    +0.000 HD
ATOM     22  H   UNL     1       1.929  16.217  20.715  0.00  0.00    +0.000 HD
ENDROOT
BRANCH   1  27
ATOM     23  C   UNL     1       2.791   7.060  18.828  0.00  0.00    +0.000 A 
ATOM     24  C   UNL     1       2.863   7.696  17.606  0.00  0.00    +0.000 A 
ATOM     25  N   UNL     1       2.267   8.884  17.368  0.00  0.00    +0.000 NA
ATOM     26  C   UNL     1       1.587   9.436  18.408  0.00  0.00    +0.000 A 
ATOM     27  C   UNL     1       1.448   8.860  19.678  0.00  0.00    +0.000 A 
ATOM     28  C   UNL     1       2.083   7.631  19.875  0.00  0.00    +0.000 A 
BRANCH  23  30
ATOM     29  C   UNL     1       3.997   4.828  19.169  0.00  0.00    +0.000 C 
ATOM     30  N   UNL     1       3.444   5.849  19.012  0.00  0.00    +0.000 NA
ENDBRANCH  23  30
ENDBRANCH   1  27
BRANCH  17  31
ATOM     31  O   UNL     1      -5.210  15.164  22.497  0.00  0.00    +0.000 OA
ATOM     32  C   UNL     1      -6.512  15.023  23.024  0.00  0.00    +0.000 C 
ENDBRANCH  17  31
BRANCH  11  33
ATOM     33  C   UNL     1      -0.725  15.851  19.534  0.00  0.00    +0.000 C 
BRANCH  33  34
ATOM     34  C   UNL     1       0.178  16.574  18.554  0.00  0.00    +0.000 C 
ATOM     35  F   UNL     1       1.240  15.831  18.173  0.00  0.00    +0.000 F 
ATOM     36  F   UNL     1      -0.503  16.926  17.439  0.00  0.00    +0.000 F 
ATOM     37  F   UNL     1       0.664  17.716  19.098  0.00  0.00    +0.000 F 
ENDBRANCH  33  34
ENDBRANCH  11  33
TORSDOF 5
ENDMDL
MODEL 2
REMARK VINA RESULT:      -7.3      4.137      6.411
REMARK  Name = 
REMARK  6 active torsions:
REMARK  status: ('A' for Active; 'I' for Inactive)
REMARK    1  A    between atoms: N_2  and  C_3
REMARK    2  A    between atoms: C_7  and  C_8
REMARK    3  A    between atoms: N_18  and  C_19
REMARK    4  A    between atoms: C_19  and  C_20
REMARK    5  A    between atoms: C_29  and  O_30
REMARK    6  A    between atoms: O_30  and  C_31
REMARK                            x       y       z     vdW  Elec       q    Type
REMARK                         _______ _______ _______ _____ _____    ______ ____
ROOT
ATOM      1  C   UNL     1       2.919  15.165  19.335  0.00  0.00    +0.000 A 
ATOM      2  C   UNL     1       2.297  16.397  19.614  0.00  0.00    +0.000 A 
ATOM      3  C   UNL     1       0.927  16.470  19.841  0.00  0.00    +0.000 A 
ATOM      4  C   UNL     1       0.188  15.296  19.814  0.00  0.00    +0.000 A 
ATOM      5  C   UNL     1       0.750  14.087  19.547  0.00  0.00    +0.000 A 
ATOM      6  C   UNL     1       2.111  14.010  19.266  0.00  0.00    +0.000 A 
ATOM      7  C   UNL     1      -0.244  12.986  19.764  0.00  0.00    +0.000 C 
ATOM      8  N   UNL     1      -0.560  12.283  18.451  0.00  0.00    +0.000 NA
ATOM      9  C   UNL     1      -0.369  11.012  18.659  0.00  0.00    +0.000 C 
ATOM     10  N   UNL     1      -0.679  10.074  17.738  0.00  0.00    +0.000 N 
ATOM     11  N   UNL     1       0.153  10.669  19.855  0.00  0.00    +0.000 N 
ATOM     12  C   UNL     1       0.473  11.814  20.512  0.00  0.00    +0.000 C 
ATOM     13  O   UNL     1       1.228  11.882  21.474  0.00  0.00    +0.000 OA
ATOM     14  C   UNL     1      -1.789  13.641  20.266  0.00  0.00    +0.000 C 
ATOM     15  C   UNL     1      -2.246  12.280  20.940  0.00  0.00    +0.000 C 
ATOM     16  C   UNL     1      -1.682  11.995  22.346  0.00  0.00    +0.000 C 
ATOM     17  C   UNL     1      -2.429  12.779  23.390  0.00  0.00    +0.000 C 
ATOM     18  C   UNL     1      -2.393  14.228  22.923  0.00  0.00    +0.000 C 
ATOM     19  C   UNL     1      -2.821  14.334  21.446  0.00  0.00    +0.000 C 
ATOM     20  C   UNL     1      -1.225  15.157  20.206  0.00  0.00    +0.000 C 
ATOM     21  H   UNL     1      -0.839  10.480  16.820  0.00  0.00    +0.000 HD
ATOM     22  H   UNL     1      -0.046   9.280  17.678  0.00  0.00    +0.000 HD
ENDROOT
BRANCH   1  27
ATOM     23  C   UNL     1       6.614  15.150  20.065  0.00  0.00    +0.000 A 
ATOM     24  C   UNL     1       7.116  14.933  18.798  0.00  0.00    +0.000 A 
ATOM     25  N   UNL     1       6.321  14.786  17.716  0.00  0.00    +0.000 NA
ATOM     26  C   UNL     1       4.983  14.869  17.937  0.00  0.00    +0.000 A 
ATOM     27  C   UNL     1       4.381  15.073  19.186  0.00  0.00    +0.000 A 
ATOM     28  C   UNL     1       5.245  15.220  20.274  0.00  0.00    +0.000 A 
BRANCH  23  30
ATOM     29  C   UNL     1       8.229  15.449  22.029  0.00  0.00    +0.000 C 
ATOM     30  N   UNL     1       7.488  15.312  21.131  0.00  0.00    +0.000 NA
ENDBRANCH  23  30
ENDBRANCH   1  27
BRANCH  17  31
ATOM     31  O   UNL     1      -3.733  12.211  23.428  0.00  0.00    +0.000 OA
ATOM     32  C   UNL     1      -4.443  12.498  24.615  0.00  0.00    +0.000 C 
ENDBRANCH  17  31
BRANCH  11  33
ATOM     33  C   UNL     1      -0.048   9.417  20.603  0.00  0.00    +0.000 C 
BRANCH  33  34
ATOM     34  C   UNL     1       1.138   8.502  20.836  0.00  0.00    +0.000 C 
ATOM     35  F   UNL     1       1.986   8.465  19.785  0.00  0.00    +0.000 F 
ATOM     36  F   UNL     1       1.843   8.892  21.923  0.00  0.00    +0.000 F 
ATOM     37  F   UNL     1       0.729   7.230  21.065  0.00  0.00    +0.000 F 
ENDBRANCH  33  34
ENDBRANCH  11  33
TORSDOF 5
ENDMDL
MODEL 3
REMARK VINA RESULT:      -7.1      0.903      1.085
REMARK  Name = 
REMARK  6 active torsions:
REMARK  status: ('A' for Active; 'I' for Inactive)
REMARK    1  A    between atoms: N_2  and  C_3
REMARK    2  A    between atoms: C_7  and  C_8
REMARK    3  A    between atoms: N_18  and  C_19
REMARK    4  A    between atoms: C_19  and  C_20
REMARK    5  A    between atoms: C_29  and  O_30
REMARK    6  A    between atoms: O_30  and  C_31
REMARK                            x       y       z     vdW  Elec       q    Type
REMARK                         _______ _______ _______ _____ _____    ______ ____
ROOT
ATOM      1  C   UNL     1       0.924   9.044  20.811  0.00  0.00    +0.000 A 
ATOM      2  C   UNL     1       0.179   8.460  21.854  0.00  0.00    +0.000 A 
ATOM      3  C   UNL     1      -0.579   9.244  22.716  0.00  0.00    +0.000 A 
ATOM      4  C   UNL     1      -0.608  10.616  22.510  0.00  0.00    +0.000 A 
ATOM      5  C   UNL     1       0.099  11.220  21.517  0.00  0.00    +0.000 A 
ATOM      6  C   UNL     1       0.902  10.449  20.682  0.00  0.00    +0.000 A 
ATOM      7  C   UNL     1      -0.264  12.671  21.421  0.00  0.00    +0.000 C 
ATOM      8  N   UNL     1       0.931  13.546  21.773  0.00  0.00    +0.000 NA
ATOM      9  C   UNL     1       1.077  14.382  20.785  0.00  0.00    +0.000 C 
ATOM     10  N   UNL     1       1.971  15.394  20.821  0.00  0.00    +0.000 N 
ATOM     11  N   UNL     1       0.281  14.193  19.713  0.00  0.00    +0.000 N 
ATOM     12  C   UNL     1      -0.415  13.042  19.909  0.00  0.00    +0.000 C 
ATOM     13  O   UNL     1      -0.993  12.415  19.032  0.00  0.00    +0.000 OA
ATOM     14  C   UNL     1      -1.456  13.089  22.635  0.00  0.00    +0.000 C 
ATOM     15  C   UNL     1      -1.964  14.355  21.825  0.00  0.00    +0.000 C 
ATOM     16  C   UNL     1      -2.944  14.073  20.669  0.00  0.00    +0.000 C 
ATOM     17  C   UNL     1      -4.334  13.833  21.193  0.00  0.00    +0.000 C 
ATOM     18  C   UNL     1      -4.195  12.745  22.249  0.00  0.00    +0.000 C 
ATOM     19  C   UNL     1      -3.061  13.086  23.236  0.00  0.00    +0.000 C 
ATOM     20  C   UNL     1      -1.487  11.574  23.202  0.00  0.00    +0.000 C 
ATOM     21  H   UNL     1       2.649  15.277  21.570  0.00  0.00    +0.000 HD
ATOM     22  H   UNL     1       2.435  15.612  19.942  0.00  0.00    +0.000 HD
ENDROOT
BRANCH   1  27
ATOM     23  C   UNL     1       2.776   6.183  19.208  0.00  0.00    +0.000 A 
ATOM     24  C   UNL     1       3.061   6.732  17.975  0.00  0.00    +0.000 A 
ATOM     25  N   UNL     1       2.682   7.982  17.631  0.00  0.00    +0.000 NA
ATOM     26  C   UNL     1       2.001   8.686  18.572  0.00  0.00    +0.000 A 
ATOM     27  C   UNL     1       1.653   8.209  19.843  0.00  0.00    +0.000 A 
ATOM     28  C   UNL     1       2.068   6.911  20.153  0.00  0.00    +0.000 A 
BRANCH  23  30
ATOM     29  C   UNL     1       3.582   3.815  19.752  0.00  0.00    +0.000 C 
ATOM     30  N   UNL     1       3.212   4.899  19.505  0.00  0.00    +0.000 NA
ENDBRANCH  23  30
ENDBRANCH   1  27
BRANCH  17  31
ATOM     31  O   UNL     1      -4.767  15.089  21.705  0.00  0.00    +0.000 OA
ATOM     32  C   UNL     1      -6.089  15.074  22.201  0.00  0.00    +0.000 C 
ENDBRANCH  17  31
BRANCH  11  33
ATOM     33  C   UNL     1      -0.215  15.206  18.765  0.00  0.00    +0.000 C 
BRANCH  33  34
ATOM     34  C   UNL     1      -0.497  16.607  19.269  0.00  0.00    +0.000 C 
ATOM     35  F   UNL     1      -0.842  16.636  20.575  0.00  0.00    +0.000 F 
ATOM     36  F   UNL     1       0.584  17.404  19.108  0.00  0.00    +0.000 F 
ATOM     37  F   UNL     1      -1.514  17.174  18.574  0.00  0.00    +0.000 F 
ENDBRANCH  33  34
ENDBRANCH  11  33
TORSDOF 5
ENDMDL
MODEL 4
REMARK VINA RESULT:      -7.0      1.648      2.146
REMARK  Name = 
REMARK  6 active torsions:
REMARK  status: ('A' for Active; 'I' for Inactive)
REMARK    1  A    between atoms: N_2  and  C_3
REMARK    2  A    between atoms: C_7  and  C_8
REMARK    3  A    between atoms: N_18  and  C_19
REMARK    4  A    between atoms: C_19  and  C_20
REMARK    5  A    between atoms: C_29  and  O_30
REMARK    6  A    between atoms: O_30  and  C_31
REMARK                            x       y       z     vdW  Elec       q    Type
REMARK                         _______ _______ _______ _____ _____    ______ ____
ROOT
ATOM      1  C   UNL     1       0.724  10.201  20.696  0.00  0.00    +0.000 A 
ATOM      2  C   UNL     1      -0.319   9.821  21.565  0.00  0.00    +0.000 A 
ATOM      3  C   UNL     1      -0.956  10.760  22.369  0.00  0.00    +0.000 A 
ATOM      4  C   UNL     1      -0.562  12.087  22.277  0.00  0.00    +0.000 A 
ATOM      5  C   UNL     1       0.441  12.495  21.453  0.00  0.00    +0.000 A 
ATOM      6  C   UNL     1       1.121  11.555  20.684  0.00  0.00    +0.000 A 
ATOM      7  C   UNL     1       0.523  13.991  21.427  0.00  0.00    +0.000 C 
ATOM      8  N   UNL     1       1.841  14.465  22.023  0.00  0.00    +0.000 NA
ATOM      9  C   UNL     1       2.379  15.258  21.142  0.00  0.00    +0.000 C 
ATOM     10  N   UNL     1       3.503  15.963  21.394  0.00  0.00    +0.000 N 
ATOM     11  N   UNL     1       1.750  15.352  19.952  0.00  0.00    +0.000 N 
ATOM     12  C   UNL     1       0.736  14.447  19.946  0.00  0.00    +0.000 C 
ATOM     13  O   UNL     1       0.158  14.050  18.943  0.00  0.00    +0.000 OA
ATOM     14  C   UNL     1      -0.686  14.693  22.482  0.00  0.00    +0.000 C 
ATOM     15  C   UNL     1      -0.675  16.082  21.716  0.00  0.00    +0.000 C 
ATOM     16  C   UNL     1      -1.489  16.143  20.408  0.00  0.00    +0.000 C 
ATOM     17  C   UNL     1      -2.957  16.300  20.700  0.00  0.00    +0.000 C 
ATOM     18  C   UNL     1      -3.307  15.179  21.669  0.00  0.00    +0.000 C 
ATOM     19  C   UNL     1      -2.303  15.136  22.838  0.00  0.00    +0.000 C 
ATOM     20  C   UNL     1      -1.237  13.233  22.910  0.00  0.00    +0.000 C 
ATOM     21  H   UNL     1       3.987  15.625  22.222  0.00  0.00    +0.000 HD
ATOM     22  H   UNL     1       4.149  16.069  20.614  0.00  0.00    +0.000 HD
ENDROOT
BRANCH   1  27
ATOM     23  C   UNL     1       2.339   7.096  19.305  0.00  0.00    +0.000 A 
ATOM     24  C   UNL     1       2.525   7.480  17.993  0.00  0.00    +0.000 A 
ATOM     25  N   UNL     1       2.151   8.693  17.530  0.00  0.00    +0.000 NA
ATOM     26  C   UNL     1       1.579   9.532  18.433  0.00  0.00    +0.000 A 
ATOM     27  C   UNL     1       1.337   9.227  19.779  0.00  0.00    +0.000 A 
ATOM     28  C   UNL     1       1.742   7.961  20.211  0.00  0.00    +0.000 A 
BRANCH  23  30
ATOM     29  C   UNL     1       3.126   4.783  20.067  0.00  0.00    +0.000 C 
ATOM     30  N   UNL     1       2.765   5.842  19.720  0.00  0.00    +0.000 NA
ENDBRANCH  23  30
ENDBRANCH   1  27
BRANCH  17  31
ATOM     31  O   UNL     1      -3.096  17.606  21.246  0.00  0.00    +0.000 OA
ATOM     32  C   UNL     1      -3.099  18.631  20.274  0.00  0.00    +0.000 C 
ENDBRANCH  17  31
BRANCH  11  33
ATOM     33  C   UNL     1       1.724  16.500  19.030  0.00  0.00    +0.000 C 
BRANCH  33  34
ATOM     34  C   UNL     1       2.734  16.559  17.901  0.00  0.00    +0.000 C 
ATOM     35  F   UNL     1       2.958  15.354  17.334  0.00  0.00    +0.000 F 
ATOM     36  F   UNL     1       2.321  17.404  16.929  0.00  0.00    +0.000 F 
ATOM     37  F   UNL     1       3.928  17.020  18.346  0.00  0.00    +0.000 F 
ENDBRANCH  33  34
ENDBRANCH  11  33
TORSDOF 5
ENDMDL
MODEL 5
REMARK VINA RESULT:      -7.0      1.100      1.299
REMARK  Name = 
REMARK  6 active torsions:
REMARK  status: ('A' for Active; 'I' for Inactive)
REMARK    1  A    between atoms: N_2  and  C_3
REMARK    2  A    between atoms: C_7  and  C_8
REMARK    3  A    between atoms: N_18  and  C_19
REMARK    4  A    between atoms: C_19  and  C_20
REMARK    5  A    between atoms: C_29  and  O_30
REMARK    6  A    between atoms: O_30  and  C_31
REMARK                            x       y       z     vdW  Elec       q    Type
REMARK                         _______ _______ _______ _____ _____    ______ ____
ROOT
ATOM      1  C   UNL     1       0.419  10.346  20.984  0.00  0.00    +0.000 A 
ATOM      2  C   UNL     1      -0.399   9.693  21.927  0.00  0.00    +0.000 A 
ATOM      3  C   UNL     1      -1.102  10.417  22.884  0.00  0.00    +0.000 A 
ATOM      4  C   UNL     1      -1.002  11.801  22.873  0.00  0.00    +0.000 A 
ATOM      5  C   UNL     1      -0.222  12.469  21.981  0.00  0.00    +0.000 A 
ATOM      6  C   UNL     1       0.527  11.751  21.054  0.00  0.00    +0.000 A 
ATOM      7  C   UNL     1      -0.450  13.947  22.087  0.00  0.00    +0.000 C 
ATOM      8  N   UNL     1       0.811  14.650  22.570  0.00  0.00    +0.000 NA
ATOM      9  C   UNL     1       1.055  15.598  21.711  0.00  0.00    +0.000 C 
ATOM     10  N   UNL     1       2.035  16.508  21.897  0.00  0.00    +0.000 N 
ATOM     11  N   UNL     1       0.268  15.635  20.616  0.00  0.00    +0.000 N 
ATOM     12  C   UNL     1      -0.533  14.537  20.641  0.00  0.00    +0.000 C 
ATOM     13  O   UNL     1      -1.145  14.095  19.679  0.00  0.00    +0.000 OA
ATOM     14  C   UNL     1      -1.626  14.300  23.336  0.00  0.00    +0.000 C 
ATOM     15  C   UNL     1      -1.999  15.708  22.708  0.00  0.00    +0.000 C 
ATOM     16  C   UNL     1      -2.975  15.682  21.515  0.00  0.00    +0.000 C 
ATOM     17  C   UNL     1      -4.391  15.502  21.987  0.00  0.00    +0.000 C 
ATOM     18  C   UNL     1      -4.375  14.268  22.880  0.00  0.00    +0.000 C 
ATOM     19  C   UNL     1      -3.237  14.362  23.916  0.00  0.00    +0.000 C 
ATOM     20  C   UNL     1      -1.807  12.731  23.685  0.00  0.00    +0.000 C 
ATOM     21  H   UNL     1       2.683  16.225  22.629  0.00  0.00    +0.000 HD
ATOM     22  H   UNL     1       2.537  16.802  21.063  0.00  0.00    +0.000 HD
ENDROOT
BRANCH   1  27
ATOM     23  C   UNL     1       2.285   7.673  19.097  0.00  0.00    +0.000 A 
ATOM     24  C   UNL     1       2.378   8.265  17.855  0.00  0.00    +0.000 A 
ATOM     25  N   UNL     1       1.865   9.487  17.592  0.00  0.00    +0.000 NA
ATOM     26  C   UNL     1       1.247  10.116  18.625  0.00  0.00    +0.000 A 
ATOM     27  C   UNL     1       1.091   9.590  19.915  0.00  0.00    +0.000 A 
ATOM     28  C   UNL     1       1.640   8.324  20.139  0.00  0.00    +0.000 A 
BRANCH  23  30
ATOM     29  C   UNL     1       3.335   5.370  19.483  0.00  0.00    +0.000 C 
ATOM     30  N   UNL     1       2.852   6.423  19.306  0.00  0.00    +0.000 NA
ENDBRANCH  23  30
ENDBRANCH   1  27
BRANCH  17  31
ATOM     31  O   UNL     1      -4.721  16.708  22.666  0.00  0.00    +0.000 OA
ATOM     32  C   UNL     1      -5.206  17.725  21.815  0.00  0.00    +0.000 C 
ENDBRANCH  17  31
BRANCH  11  33
ATOM     33  C   UNL     1      -0.113  16.811  19.816  0.00  0.00    +0.000 C 
BRANCH  33  34
ATOM     34  C   UNL     1       0.447  16.960  18.415  0.00  0.00    +0.000 C 
ATOM     35  F   UNL     1      -0.509  16.912  17.461  0.00  0.00    +0.000 F 
ATOM     36  F   UNL     1       1.107  18.133  18.281  0.00  0.00    +0.000 F 
ATOM     37  F   UNL     1       1.334  15.973  18.142  0.00  0.00    +0.000 F 
ENDBRANCH  33  34
ENDBRANCH  11  33
TORSDOF 5
ENDMDL
MODEL 6
REMARK VINA RESULT:      -6.7      3.984      6.258
REMARK  Name = 
REMARK  6 active torsions:
REMARK  status: ('A' for Active; 'I' for Inactive)
REMARK    1  A    between atoms: N_2  and  C_3
REMARK    2  A    between atoms: C_7  and  C_8
REMARK    3  A    between atoms: N_18  and  C_19
REMARK    4  A    between atoms: C_19  and  C_20
REMARK    5  A    between atoms: C_29  and  O_30
REMARK    6  A    between atoms: O_30  and  C_31
REMARK                            x       y       z     vdW  Elec       q    Type
REMARK                         _______ _______ _______ _____ _____    ______ ____
ROOT
ATOM      1  C   UNL     1       2.576  15.616  19.356  0.00  0.00    +0.000 A 
ATOM      2  C   UNL     1       1.847  16.794  19.611  0.00  0.00    +0.000 A 
ATOM      3  C   UNL     1       0.474  16.753  19.820  0.00  0.00    +0.000 A 
ATOM      4  C   UNL     1      -0.162  15.520  19.799  0.00  0.00    +0.000 A 
ATOM      5  C   UNL     1       0.504  14.359  19.555  0.00  0.00    +0.000 A 
ATOM      6  C   UNL     1       1.870  14.396  19.292  0.00  0.00    +0.000 A 
ATOM      7  C   UNL     1      -0.396  13.180  19.774  0.00  0.00    +0.000 C 
ATOM      8  N   UNL     1      -0.633  12.437  18.466  0.00  0.00    +0.000 NA
ATOM      9  C   UNL     1      -0.338  11.190  18.694  0.00  0.00    +0.000 C 
ATOM     10  N   UNL     1      -0.554  10.218  17.782  0.00  0.00    +0.000 N 
ATOM     11  N   UNL     1       0.195  10.907  19.901  0.00  0.00    +0.000 N 
ATOM     12  C   UNL     1       0.408  12.084  20.547  0.00  0.00    +0.000 C 
ATOM     13  O   UNL     1       1.141  12.227  21.516  0.00  0.00    +0.000 OA
ATOM     14  C   UNL     1      -1.997  13.708  20.248  0.00  0.00    +0.000 C 
ATOM     15  C   UNL     1      -2.346  12.321  20.934  0.00  0.00    +0.000 C 
ATOM     16  C   UNL     1      -1.779  12.102  22.351  0.00  0.00    +0.000 C 
ATOM     17  C   UNL     1      -2.604  12.832  23.375  0.00  0.00    +0.000 C 
ATOM     18  C   UNL     1      -2.685  14.273  22.889  0.00  0.00    +0.000 C 
ATOM     19  C   UNL     1      -3.101  14.324  21.406  0.00  0.00    +0.000 C 
ATOM     20  C   UNL     1      -1.564  15.265  20.175  0.00  0.00    +0.000 C 
ATOM     21  H   UNL     1      -0.736  10.598  16.856  0.00  0.00    +0.000 HD
ATOM     22  H   UNL     1       0.144   9.480  17.740  0.00  0.00    +0.000 HD
ENDROOT
BRANCH   1  27
ATOM     23  C   UNL     1       6.122  14.749  18.429  0.00  0.00    +0.000 A 
ATOM     24  C   UNL     1       6.802  15.759  19.078  0.00  0.00    +0.000 A 
ATOM     25  N   UNL     1       6.173  16.711  19.800  0.00  0.00    +0.000 NA
ATOM     26  C   UNL     1       4.819  16.624  19.862  0.00  0.00    +0.000 A 
ATOM     27  C   UNL     1       4.042  15.646  19.226  0.00  0.00    +0.000 A 
ATOM     28  C   UNL     1       4.738  14.682  18.492  0.00  0.00    +0.000 A 
BRANCH  23  30
ATOM     29  C   UNL     1       7.434  12.980  17.124  0.00  0.00    +0.000 C 
ATOM     30  N   UNL     1       6.832  13.789  17.720  0.00  0.00    +0.000 NA
ENDBRANCH  23  30
ENDBRANCH   1  27
BRANCH  17  31
ATOM     31  O   UNL     1      -3.856  12.156  23.405  0.00  0.00    +0.000 OA
ATOM     32  C   UNL     1      -4.741  12.643  24.391  0.00  0.00    +0.000 C 
ENDBRANCH  17  31
BRANCH  11  33
ATOM     33  C   UNL     1       0.091   9.652  20.663  0.00  0.00    +0.000 C 
BRANCH  33  34
ATOM     34  C   UNL     1       1.295   8.733  20.733  0.00  0.00    +0.000 C 
ATOM     35  F   UNL     1       0.961   7.451  20.999  0.00  0.00    +0.000 F 
ATOM     36  F   UNL     1       1.983   8.749  19.568  0.00  0.00    +0.000 F 
ATOM     37  F   UNL     1       2.151   9.133  21.704  0.00  0.00    +0.000 F 
ENDBRANCH  33  34
ENDBRANCH  11  33
TORSDOF 5
ENDMDL
MODEL 7
REMARK VINA RESULT:      -6.7      4.159      6.477
REMARK  Name = 
REMARK  6 active torsions:
REMARK  status: ('A' for Active; 'I' for Inactive)
REMARK    1  A    between atoms: N_2  and  C_3
REMARK    2  A    between atoms: C_7  and  C_8
REMARK    3  A    between atoms: N_18  and  C_19
REMARK    4  A    between atoms: C_19  and  C_20
REMARK    5  A    between atoms: C_29  and  O_30
REMARK    6  A    between atoms: O_30  and  C_31
REMARK                            x       y       z     vdW  Elec       q    Type
REMARK                         _______ _______ _______ _____ _____    ______ ____
ROOT
ATOM      1  C   UNL     1       2.914  15.619  18.693  0.00  0.00    +0.000 A 
ATOM      2  C   UNL     1       2.053  16.735  18.720  0.00  0.00    +0.000 A 
ATOM      3  C   UNL     1       0.692  16.581  18.955  0.00  0.00    +0.000 A 
ATOM      4  C   UNL     1       0.201  15.305  19.191  0.00  0.00    +0.000 A 
ATOM      5  C   UNL     1       0.997  14.202  19.172  0.00  0.00    +0.000 A 
ATOM      6  C   UNL     1       2.351  14.339  18.884  0.00  0.00    +0.000 A 
ATOM      7  C   UNL     1       0.236  12.996  19.636  0.00  0.00    +0.000 C 
ATOM      8  N   UNL     1       0.093  11.985  18.507  0.00  0.00    +0.000 NA
ATOM      9  C   UNL     1       0.527  10.850  18.973  0.00  0.00    +0.000 C 
ATOM     10  N   UNL     1       0.428   9.697  18.277  0.00  0.00    +0.000 N 
ATOM     11  N   UNL     1       1.081  10.876  20.203  0.00  0.00    +0.000 N 
ATOM     12  C   UNL     1       1.154  12.174  20.599  0.00  0.00    +0.000 C 
ATOM     13  O   UNL     1       1.859  12.590  21.508  0.00  0.00    +0.000 OA
ATOM     14  C   UNL     1      -1.419  13.424  20.022  0.00  0.00    +0.000 C 
ATOM     15  C   UNL     1      -1.612  12.172  20.976  0.00  0.00    +0.000 C 
ATOM     16  C   UNL     1      -1.033  12.306  22.398  0.00  0.00    +0.000 C 
ATOM     17  C   UNL     1      -1.942  13.128  23.270  0.00  0.00    +0.000 C 
ATOM     18  C   UNL     1      -2.184  14.424  22.508  0.00  0.00    +0.000 C 
ATOM     19  C   UNL     1      -2.593  14.130  21.051  0.00  0.00    +0.000 C 
ATOM     20  C   UNL     1      -1.165  14.974  19.633  0.00  0.00    +0.000 C 
ATOM     21  H   UNL     1       0.211   9.862  17.297  0.00  0.00    +0.000 HD
ATOM     22  H   UNL     1       1.207   9.050  18.372  0.00  0.00    +0.000 HD
ENDROOT
BRANCH   1  27
ATOM     23  C   UNL     1       6.562  14.946  18.045  0.00  0.00    +0.000 A 
ATOM     24  C   UNL     1       7.095  16.191  18.312  0.00  0.00    +0.000 A 
ATOM     25  N   UNL     1       6.334  17.242  18.689  0.00  0.00    +0.000 NA
ATOM     26  C   UNL     1       5.000  17.011  18.798  0.00  0.00    +0.000 A 
ATOM     27  C   UNL     1       4.367  15.789  18.535  0.00  0.00    +0.000 A 
ATOM     28  C   UNL     1       5.196  14.731  18.150  0.00  0.00    +0.000 A 
BRANCH  23  30
ATOM     29  C   UNL     1       8.112  13.024  17.372  0.00  0.00    +0.000 C 
ATOM     30  N   UNL     1       7.403  13.903  17.682  0.00  0.00    +0.000 NA
ENDBRANCH  23  30
ENDBRANCH   1  27
BRANCH  17  31
ATOM     31  O   UNL     1      -3.109  12.334  23.454  0.00  0.00    +0.000 OA
ATOM     32  C   UNL     1      -4.039  12.893  24.357  0.00  0.00    +0.000 C 
ENDBRANCH  17  31
BRANCH  11  33
ATOM     33  C   UNL     1       1.116   9.794  21.202  0.00  0.00    +0.000 C 
BRANCH  33  34
ATOM     34  C   UNL     1      -0.115   8.932  21.395  0.00  0.00    +0.000 C 
ATOM     35  F   UNL     1      -1.111   9.239  20.534  0.00  0.00    +0.000 F 
ATOM     36  F   UNL     1       0.183   7.622  21.233  0.00  0.00    +0.000 F 
ATOM     37  F   UNL     1      -0.612   9.073  22.647  0.00  0.00    +0.000 F 
ENDBRANCH  33  34
ENDBRANCH  11  33
TORSDOF 5
ENDMDL
MODEL 8
REMARK VINA RESULT:      -6.7      3.364      4.902
REMARK  Name = 
REMARK  6 active torsions:
REMARK  status: ('A' for Active; 'I' for Inactive)
REMARK    1  A    between atoms: N_2  and  C_3
REMARK    2  A    between atoms: C_7  and  C_8
REMARK    3  A    between atoms: N_18  and  C_19
REMARK    4  A    between atoms: C_19  and  C_20
REMARK    5  A    between atoms: C_29  and  O_30
REMARK    6  A    between atoms: O_30  and  C_31
REMARK                            x       y       z     vdW  Elec       q    Type
REMARK                         _______ _______ _______ _____ _____    ______ ____
ROOT
ATOM      1  C   UNL     1      -2.077  11.732  18.921  0.00  0.00    +0.000 A 
ATOM      2  C   UNL     1      -2.999  11.520  17.877  0.00  0.00    +0.000 A 
ATOM      3  C   UNL     1      -4.350  11.798  18.051  0.00  0.00    +0.000 A 
ATOM      4  C   UNL     1      -4.769  12.315  19.268  0.00  0.00    +0.000 A 
ATOM      5  C   UNL     1      -3.912  12.532  20.302  0.00  0.00    +0.000 A 
ATOM      6  C   UNL     1      -2.567  12.208  20.157  0.00  0.00    +0.000 A 
ATOM      7  C   UNL     1      -4.605  13.260  21.415  0.00  0.00    +0.000 C 
ATOM      8  N   UNL     1      -4.687  12.383  22.657  0.00  0.00    +0.000 NA
ATOM      9  C   UNL     1      -4.191  13.085  23.635  0.00  0.00    +0.000 C 
ATOM     10  N   UNL     1      -4.222  12.662  24.917  0.00  0.00    +0.000 N 
ATOM     11  N   UNL     1      -3.643  14.273  23.306  0.00  0.00    +0.000 N 
ATOM     12  C   UNL     1      -3.644  14.371  21.951  0.00  0.00    +0.000 C 
ATOM     13  O   UNL     1      -2.965  15.158  21.305  0.00  0.00    +0.000 OA
ATOM     14  C   UNL     1      -6.282  13.558  21.005  0.00  0.00    +0.000 C 
ATOM     15  C   UNL     1      -6.406  14.767  22.024  0.00  0.00    +0.000 C 
ATOM     16  C   UNL     1      -5.839  16.119  21.546  0.00  0.00    +0.000 C 
ATOM     17  C   UNL     1      -6.795  16.796  20.603  0.00  0.00    +0.000 C 
ATOM     18  C   UNL     1      -7.108  15.769  19.524  0.00  0.00    +0.000 C 
ATOM     19  C   UNL     1      -7.496  14.417  20.155  0.00  0.00    +0.000 C 
ATOM     20  C   UNL     1      -6.115  12.833  19.568  0.00  0.00    +0.000 C 
ATOM     21  H   UNL     1      -4.446  11.672  24.986  0.00  0.00    +0.000 HD
ATOM     22  H   UNL     1      -3.408  12.890  25.483  0.00  0.00    +0.000 HD
ENDROOT
BRANCH   1  27
ATOM     23  C   UNL     1       1.279  10.121  18.351  0.00  0.00    +0.000 A 
ATOM     24  C   UNL     1       2.094  11.233  18.370  0.00  0.00    +0.000 A 
ATOM     25  N   UNL     1       1.616  12.483  18.555  0.00  0.00    +0.000 NA
ATOM     26  C   UNL     1       0.273  12.594  18.728  0.00  0.00    +0.000 A 
ATOM     27  C   UNL     1      -0.635  11.526  18.710  0.00  0.00    +0.000 A 
ATOM     28  C   UNL     1      -0.092  10.253  18.518  0.00  0.00    +0.000 A 
BRANCH  23  30
ATOM     29  C   UNL     1       2.313   7.801  18.034  0.00  0.00    +0.000 C 
ATOM     30  N   UNL     1       1.838   8.862  18.177  0.00  0.00    +0.000 NA
ENDBRANCH  23  30
ENDBRANCH   1  27
BRANCH  17  31
ATOM     31  O   UNL     1      -7.916  17.163  21.400  0.00  0.00    +0.000 OA
ATOM     32  C   UNL     1      -7.706  18.325  22.174  0.00  0.00    +0.000 C 
ENDBRANCH  17  31
BRANCH  11  33
ATOM     33  C   UNL     1      -3.549  15.486  24.136  0.00  0.00    +0.000 C 
BRANCH  33  34
ATOM     34  C   UNL     1      -2.202  15.884  24.708  0.00  0.00    +0.000 C 
ATOM     35  F   UNL     1      -2.308  16.600  25.848  0.00  0.00    +0.000 F 
ATOM     36  F   UNL     1      -1.449  14.791  24.973  0.00  0.00    +0.000 F 
ATOM     37  F   UNL     1      -1.507  16.639  23.824  0.00  0.00    +0.000 F 
ENDBRANCH  33  34
ENDBRANCH  11  33
TORSDOF 5
ENDMDL
MODEL 9
REMARK VINA RESULT:      -6.7      3.692      7.368
REMARK  Name = 
REMARK  6 active torsions:
REMARK  status: ('A' for Active; 'I' for Inactive)
REMARK    1  A    between atoms: N_2  and  C_3
REMARK    2  A    between atoms: C_7  and  C_8
REMARK    3  A    between atoms: N_18  and  C_19
REMARK    4  A    between atoms: C_19  and  C_20
REMARK    5  A    between atoms: C_29  and  O_30
REMARK    6  A    between atoms: O_30  and  C_31
REMARK                            x       y       z     vdW  Elec       q    Type
REMARK                         _______ _______ _______ _____ _____    ______ ____
ROOT
ATOM      1  C   UNL     1      -4.000  13.859  20.849  0.00  0.00    +0.000 A 
ATOM      2  C   UNL     1      -3.968  15.170  21.365  0.00  0.00    +0.000 A 
ATOM      3  C   UNL     1      -2.772  15.745  21.780  0.00  0.00    +0.000 A 
ATOM      4  C   UNL     1      -1.603  15.008  21.649  0.00  0.00    +0.000 A 
ATOM      5  C   UNL     1      -1.591  13.740  21.159  0.00  0.00    +0.000 A 
ATOM      6  C   UNL     1      -2.789  13.136  20.790  0.00  0.00    +0.000 A 
ATOM      7  C   UNL     1      -0.183  13.265  20.963  0.00  0.00    +0.000 C 
ATOM      8  N   UNL     1       0.124  12.100  21.895  0.00  0.00    +0.000 NA
ATOM      9  C   UNL     1       0.588  11.143  21.145  0.00  0.00    +0.000 C 
ATOM     10  N   UNL     1       1.083   9.997  21.660  0.00  0.00    +0.000 N 
ATOM     11  N   UNL     1       0.558  11.352  19.813  0.00  0.00    +0.000 N 
ATOM     12  C   UNL     1      -0.099  12.521  19.590  0.00  0.00    +0.000 C 
ATOM     13  O   UNL     1      -0.569  12.866  18.514  0.00  0.00    +0.000 OA
ATOM     14  C   UNL     1       0.957  14.501  21.455  0.00  0.00    +0.000 C 
ATOM     15  C   UNL     1       2.123  13.905  20.559  0.00  0.00    +0.000 C 
ATOM     16  C   UNL     1       2.076  14.260  19.060  0.00  0.00    +0.000 C 
ATOM     17  C   UNL     1       2.589  15.655  18.825  0.00  0.00    +0.000 C 
ATOM     18  C   UNL     1       1.791  16.551  19.762  0.00  0.00    +0.000 C 
ATOM     19  C   UNL     1       1.787  15.977  21.192  0.00  0.00    +0.000 C 
ATOM     20  C   UNL     1      -0.236  15.514  21.864  0.00  0.00    +0.000 C 
ATOM     21  H   UNL     1       0.833   9.880  22.639  0.00  0.00    +0.000 HD
ATOM     22  H   UNL     1       0.889   9.149  21.133  0.00  0.00    +0.000 HD
ENDROOT
BRANCH   1  27
ATOM     23  C   UNL     1      -6.722  11.434  19.903  0.00  0.00    +0.000 A 
ATOM     24  C   UNL     1      -7.600  12.284  19.265  0.00  0.00    +0.000 A 
ATOM     25  N   UNL     1      -7.361  13.606  19.125  0.00  0.00    +0.000 NA
ATOM     26  C   UNL     1      -6.194  14.066  19.648  0.00  0.00    +0.000 A 
ATOM     27  C   UNL     1      -5.249  13.283  20.325  0.00  0.00    +0.000 A 
ATOM     28  C   UNL     1      -5.540  11.922  20.442  0.00  0.00    +0.000 A 
BRANCH  23  30
ATOM     29  C   UNL     1      -7.271   8.940  20.076  0.00  0.00    +0.000 C 
ATOM     30  N   UNL     1      -7.019  10.081  19.995  0.00  0.00    +0.000 NA
ENDBRANCH  23  30
ENDBRANCH   1  27
BRANCH  17  31
ATOM     31  O   UNL     1       3.981  15.600  19.115  0.00  0.00    +0.000 OA
ATOM     32  C   UNL     1       4.777  15.217  18.013  0.00  0.00    +0.000 C 
ENDBRANCH  17  31
BRANCH  11  33
ATOM     33  C   UNL     1       1.469  10.809  18.792  0.00  0.00    +0.000 C 
BRANCH  33  34
ATOM     34  C   UNL     1       1.116   9.501  18.112  0.00  0.00    +0.000 C 
ATOM     35  F   UNL     1      -0.093   9.533  17.509  0.00  0.00    +0.000 F 
ATOM     36  F   UNL     1       2.037   9.178  17.176  0.00  0.00    +0.000 F 
ATOM     37  F   UNL     1       1.088   8.484  19.008  0.00  0.00    +0.000 F 
ENDBRANCH  33  34
ENDBRANCH  11  33
TORSDOF 5
ENDMDL
