MODEL 1
REMARK VINA RESULT:      -9.0      0.000      0.000
REMARK  Name = 
REMARK  7 active torsions:
REMARK  status: ('A' for Active; 'I' for Inactive)
REMARK    1  A    between atoms: C_1  and  C_2
REMARK    2  A    between atoms: N_4  and  C_5
REMARK    3  A    between atoms: C_12  and  N_13
REMARK    4  A    between atoms: N_13  and  C_14
REMARK    5  A    between atoms: C_17  and  O_18
REMARK    6  A    between atoms: O_18  and  C_19
REMARK    7  A    between atoms: C_19  and  C_20
REMARK                            x       y       z     vdW  Elec       q    Type
REMARK                         _______ _______ _______ _____ _____    ______ ____
ROOT
ATOM      1  N   UNL     1       2.897   6.642  20.008  0.00  0.00    +0.000 N 
ATOM      2  H   UNL     1       3.822   6.868  19.665  0.00  0.00    +0.000 HD
ENDROOT
BRANCH   1  10
ATOM      3  C   UNL     1       4.352   3.781  17.004  0.00  0.00    +0.000 A 
ATOM      4  C   UNL     1       3.902   2.474  17.121  0.00  0.00    +0.000 A 
ATOM      5  C   UNL     1       3.095   2.103  18.196  0.00  0.00    +0.000 A 
ATOM      6  C   UNL     1       2.685   3.011  19.154  0.00  0.00    +0.000 A 
ATOM      7  N   UNL     1       1.858   2.566  20.111  0.00  0.00    +0.000 NA
ATOM      8  C   UNL     1       1.399   3.440  21.019  0.00  0.00    +0.000 A 
ATOM      9  C   UNL     1       1.727   4.780  21.013  0.00  0.00    +0.000 A 
ATOM     10  C   UNL     1       2.598   5.259  20.030  0.00  0.00    +0.000 A 
ATOM     11  C   UNL     1       3.124   4.351  19.065  0.00  0.00    +0.000 A 
ATOM     12  C   UNL     1       4.012   4.700  18.005  0.00  0.00    +0.000 A 
BRANCH   3  16
ATOM     13  C   UNL     1       6.992   4.877  14.547  0.00  0.00    +0.000 C 
ATOM     14  C   UNL     1       6.480   4.444  15.897  0.00  0.00    +0.000 C 
ATOM     15  O   UNL     1       7.252   4.280  16.835  0.00  0.00    +0.000 OA
ATOM     16  N   UNL     1       5.108   4.241  15.904  0.00  0.00    +0.000 N 
ATOM     17  H   UNL     1       4.643   4.259  15.006  0.00  0.00    +0.000 HD
ENDBRANCH   3  16
ENDBRANCH   1  10
BRANCH   1  18
ATOM     18  C   UNL     1       2.017   7.722  19.775  0.00  0.00    +0.000 A 
ATOM     19  C   UNL     1       1.243   8.174  20.844  0.00  0.00    +0.000 A 
ATOM     20  C   UNL     1       0.412   9.286  20.707  0.00  0.00    +0.000 A 
ATOM     21  C   UNL     1       0.354   9.987  19.503  0.00  0.00    +0.000 A 
ATOM     22  C   UNL     1       1.101   9.526  18.418  0.00  0.00    +0.000 A 
ATOM     23  C   UNL     1       1.926   8.398  18.553  0.00  0.00    +0.000 A 
BRANCH  21  24
ATOM     24  O   UNL     1      -0.386  11.126  19.291  0.00  0.00    +0.000 OA
BRANCH  24  25
ATOM     25  C   UNL     1      -1.025  11.202  18.012  0.00  0.00    +0.000 C 
BRANCH  25  26
ATOM     26  C   UNL     1      -2.125  10.139  17.862  0.00  0.00    +0.000 C 
ATOM     27  C   UNL     1      -3.503  10.641  18.317  0.00  0.00    +0.000 C 
ATOM     28  C   UNL     1      -4.108  11.669  17.362  0.00  0.00    +0.000 C 
ATOM     29  C   UNL     1      -4.164  11.144  15.930  0.00  0.00    +0.000 C 
ATOM     30  C   UNL     1      -2.806  10.653  15.443  0.00  0.00    +0.000 C 
ATOM     31  C   UNL     1      -2.188   9.637  16.406  0.00  0.00    +0.000 C 
ENDBRANCH  25  26
ENDBRANCH  24  25
ENDBRANCH  21  24
ENDBRANCH   1  18
TORSDOF 6
ENDMDL
MODEL 2
REMARK VINA RESULT:      -8.9      1.498      1.875
REMARK  Name = 
REMARK  7 active torsions:
REMARK  status: ('A' for Active; 'I' for Inactive)
REMARK    1  A    between atoms: C_1  and  C_2
REMARK    2  A    between atoms: N_4  and  C_5
REMARK    3  A    between atoms: C_12  and  N_13
REMARK    4  A    between atoms: N_13  and  C_14
REMARK    5  A    between atoms: C_17  and  O_18
REMARK    6  A    between atoms: O_18  and  C_19
REMARK    7  A    between atoms: C_19  and  C_20
REMARK                            x       y       z     vdW  Elec       q    Type
REMARK                         _______ _______ _______ _____ _____    ______ ____
ROOT
ATOM      1  N   UNL     1       2.081   6.457  20.865  0.00  0.00    +0.000 N 
ATOM      2  H   UNL     1       2.912   6.583  21.430  0.00  0.00    +0.000 HD
ENDROOT
BRANCH   1  10
ATOM      3  C   UNL     1       5.034   5.787  17.677  0.00  0.00    +0.000 A 
ATOM      4  C   UNL     1       4.865   4.647  16.902  0.00  0.00    +0.000 A 
ATOM      5  C   UNL     1       3.849   3.740  17.201  0.00  0.00    +0.000 A 
ATOM      6  C   UNL     1       2.958   3.950  18.237  0.00  0.00    +0.000 A 
ATOM      7  N   UNL     1       1.979   3.049  18.399  0.00  0.00    +0.000 NA
ATOM      8  C   UNL     1       1.067   3.260  19.360  0.00  0.00    +0.000 A 
ATOM      9  C   UNL     1       1.079   4.363  20.187  0.00  0.00    +0.000 A 
ATOM     10  C   UNL     1       2.100   5.307  20.040  0.00  0.00    +0.000 A 
ATOM     11  C   UNL     1       3.100   5.101  19.044  0.00  0.00    +0.000 A 
ATOM     12  C   UNL     1       4.190   5.980  18.778  0.00  0.00    +0.000 A 
BRANCH   3  16
ATOM     13  C   UNL     1       8.057   8.018  17.388  0.00  0.00    +0.000 C 
ATOM     14  C   UNL     1       7.250   6.882  17.962  0.00  0.00    +0.000 C 
ATOM     15  O   UNL     1       7.726   6.148  18.821  0.00  0.00    +0.000 OA
ATOM     16  N   UNL     1       5.992   6.782  17.386  0.00  0.00    +0.000 N 
ATOM     17  H   UNL     1       5.817   7.361  16.575  0.00  0.00    +0.000 HD
ENDBRANCH   3  16
ENDBRANCH   1  10
BRANCH   1  18
ATOM     18  C   UNL     1       1.476   7.706  20.608  0.00  0.00    +0.000 A 
ATOM     19  C   UNL     1       1.793   8.349  19.411  0.00  0.00    +0.000 A 
ATOM     20  C   UNL     1       1.172   9.546  19.054  0.00  0.00    +0.000 A 
ATOM     21  C   UNL     1       0.200  10.116  19.876  0.00  0.00    +0.000 A 
ATOM     22  C   UNL     1      -0.104   9.497  21.090  0.00  0.00    +0.000 A 
ATOM     23  C   UNL     1       0.533   8.300  21.455  0.00  0.00    +0.000 A 
BRANCH  21  24
ATOM     24  O   UNL     1      -0.508  11.258  19.582  0.00  0.00    +0.000 OA
BRANCH  24  25
ATOM     25  C   UNL     1      -1.106  11.278  18.281  0.00  0.00    +0.000 C 
BRANCH  25  26
ATOM     26  C   UNL     1      -2.185  10.195  18.133  0.00  0.00    +0.000 C 
ATOM     27  C   UNL     1      -3.602  10.728  18.393  0.00  0.00    +0.000 C 
ATOM     28  C   UNL     1      -4.107  11.643  17.278  0.00  0.00    +0.000 C 
ATOM     29  C   UNL     1      -4.018  10.971  15.911  0.00  0.00    +0.000 C 
ATOM     30  C   UNL     1      -2.617  10.445  15.618  0.00  0.00    +0.000 C 
ATOM     31  C   UNL     1      -2.101   9.542  16.740  0.00  0.00    +0.000 C 
ENDBRANCH  25  26
ENDBRANCH  24  25
ENDBRANCH  21  24
ENDBRANCH   1  18
TORSDOF 6
ENDMDL
MODEL 3
REMARK VINA RESULT:      -8.8      0.876      1.239
REMARK  Name = 
REMARK  7 active torsions:
REMARK  status: ('A' for Active; 'I' for Inactive)
REMARK    1  A    between atoms: C_1  and  C_2
REMARK    2  A    between atoms: N_4  and  C_5
REMARK    3  A    between atoms: C_12  and  N_13
REMARK    4  A    between atoms: N_13  and  C_14
REMARK    5  A    between atoms: C_17  and  O_18
REMARK    6  A    between atoms: O_18  and  C_19
REMARK    7  A    between atoms: C_19  and  C_20
REMARK                            x       y       z     vdW  Elec       q    Type
REMARK                         _______ _______ _______ _____ _____    ______ ____
ROOT
ATOM      1  N   UNL     1       2.739   6.363  20.275  0.00  0.00    +0.000 N 
ATOM      2  H   UNL     1       3.741   6.506  20.312  0.00  0.00    +0.000 HD
ENDROOT
BRANCH   1  10
ATOM      3  C   UNL     1       4.848   3.607  17.576  0.00  0.00    +0.000 A 
ATOM      4  C   UNL     1       4.285   2.350  17.405  0.00  0.00    +0.000 A 
ATOM      5  C   UNL     1       3.152   1.985  18.132  0.00  0.00    +0.000 A 
ATOM      6  C   UNL     1       2.531   2.854  19.009  0.00  0.00    +0.000 A 
ATOM      7  N   UNL     1       1.411   2.426  19.610  0.00  0.00    +0.000 NA
ATOM      8  C   UNL     1       0.756   3.271  20.421  0.00  0.00    +0.000 A 
ATOM      9  C   UNL     1       1.171   4.564  20.662  0.00  0.00    +0.000 A 
ATOM     10  C   UNL     1       2.343   5.022  20.053  0.00  0.00    +0.000 A 
ATOM     11  C   UNL     1       3.078   4.142  19.205  0.00  0.00    +0.000 A 
ATOM     12  C   UNL     1       4.280   4.475  18.516  0.00  0.00    +0.000 A 
BRANCH   3  16
ATOM     13  C   UNL     1       7.248   4.888  14.968  0.00  0.00    +0.000 C 
ATOM     14  C   UNL     1       5.929   4.353  15.462  0.00  0.00    +0.000 C 
ATOM     15  O   UNL     1       4.977   4.234  14.699  0.00  0.00    +0.000 OA
ATOM     16  N   UNL     1       5.948   4.068  16.819  0.00  0.00    +0.000 N 
ATOM     17  H   UNL     1       6.760   4.380  17.336  0.00  0.00    +0.000 HD
ENDBRANCH   3  16
ENDBRANCH   1  10
BRANCH   1  18
ATOM     18  C   UNL     1       2.097   7.545  19.846  0.00  0.00    +0.000 A 
ATOM     19  C   UNL     1       2.211   7.896  18.500  0.00  0.00    +0.000 A 
ATOM     20  C   UNL     1       1.537   9.006  17.990  0.00  0.00    +0.000 A 
ATOM     21  C   UNL     1       0.712   9.777  18.810  0.00  0.00    +0.000 A 
ATOM     22  C   UNL     1       0.615   9.452  20.163  0.00  0.00    +0.000 A 
ATOM     23  C   UNL     1       1.305   8.344  20.679  0.00  0.00    +0.000 A 
BRANCH  21  24
ATOM     24  O   UNL     1      -0.037  10.849  18.385  0.00  0.00    +0.000 OA
BRANCH  24  25
ATOM     25  C   UNL     1      -1.427  10.785  18.723  0.00  0.00    +0.000 C 
BRANCH  25  26
ATOM     26  C   UNL     1      -2.167   9.730  17.885  0.00  0.00    +0.000 C 
ATOM     27  C   UNL     1      -3.657   9.626  18.242  0.00  0.00    +0.000 C 
ATOM     28  C   UNL     1      -4.467  10.834  17.773  0.00  0.00    +0.000 C 
ATOM     29  C   UNL     1      -4.279  11.097  16.281  0.00  0.00    +0.000 C 
ATOM     30  C   UNL     1      -2.809  11.220  15.900  0.00  0.00    +0.000 C 
ATOM     31  C   UNL     1      -1.991  10.021  16.382  0.00  0.00    +0.000 C 
ENDBRANCH  25  26
ENDBRANCH  24  25
ENDBRANCH  21  24
ENDBRANCH   1  18
TORSDOF 6
ENDMDL
MODEL 4
REMARK VINA RESULT:      -8.6      3.584      9.706
REMARK  Name = 
REMARK  7 active torsions:
REMARK  status: ('A' for Active; 'I' for Inactive)
REMARK    1  A    between atoms: C_1  and  C_2
REMARK    2  A    between atoms: N_4  and  C_5
REMARK    3  A    between atoms: C_12  and  N_13
REMARK    4  A    between atoms: N_13  and  C_14
REMARK    5  A    between atoms: C_17  and  O_18
REMARK    6  A    between atoms: O_18  and  C_19
REMARK    7  A    between atoms: C_19  and  C_20
REMARK                            x       y       z     vdW  Elec       q    Type
REMARK                         _______ _______ _______ _____ _____    ______ ____
ROOT
ATOM      1  N   UNL     1      -0.101  10.863  18.473  0.00  0.00    +0.000 N 
ATOM      2  H   UNL     1       0.152  11.670  19.029  0.00  0.00    +0.000 HD
ENDROOT
BRANCH   1  10
ATOM      3  C   UNL     1      -3.340  12.945  20.594  0.00  0.00    +0.000 A 
ATOM      4  C   UNL     1      -4.628  12.747  20.114  0.00  0.00    +0.000 A 
ATOM      5  C   UNL     1      -4.838  11.984  18.965  0.00  0.00    +0.000 A 
ATOM      6  C   UNL     1      -3.798  11.375  18.289  0.00  0.00    +0.000 A 
ATOM      7  N   UNL     1      -4.114  10.611  17.233  0.00  0.00    +0.000 NA
ATOM      8  C   UNL     1      -3.130   9.962  16.594  0.00  0.00    +0.000 A 
ATOM      9  C   UNL     1      -1.806  10.030  16.974  0.00  0.00    +0.000 A 
ATOM     10  C   UNL     1      -1.456  10.831  18.065  0.00  0.00    +0.000 A 
ATOM     11  C   UNL     1      -2.475  11.555  18.752  0.00  0.00    +0.000 A 
ATOM     12  C   UNL     1      -2.266  12.400  19.880  0.00  0.00    +0.000 A 
BRANCH   3  16
ATOM     13  C   UNL     1      -2.830  14.124  24.137  0.00  0.00    +0.000 C 
ATOM     14  C   UNL     1      -3.298  13.166  23.073  0.00  0.00    +0.000 C 
ATOM     15  O   UNL     1      -3.796  12.088  23.377  0.00  0.00    +0.000 OA
ATOM     16  N   UNL     1      -3.063  13.641  21.791  0.00  0.00    +0.000 N 
ATOM     17  H   UNL     1      -2.493  14.473  21.714  0.00  0.00    +0.000 HD
ENDBRANCH   3  16
ENDBRANCH   1  10
BRANCH   1  18
ATOM     18  C   UNL     1       0.742   9.775  18.786  0.00  0.00    +0.000 A 
ATOM     19  C   UNL     1       0.708   9.279  20.090  0.00  0.00    +0.000 A 
ATOM     20  C   UNL     1       1.454   8.156  20.449  0.00  0.00    +0.000 A 
ATOM     21  C   UNL     1       2.233   7.487  19.505  0.00  0.00    +0.000 A 
ATOM     22  C   UNL     1       2.297   7.992  18.205  0.00  0.00    +0.000 A 
ATOM     23  C   UNL     1       1.558   9.131  17.849  0.00  0.00    +0.000 A 
BRANCH  21  24
ATOM     24  O   UNL     1       2.953   6.341  19.748  0.00  0.00    +0.000 OA
BRANCH  24  25
ATOM     25  C   UNL     1       3.089   5.464  18.625  0.00  0.00    +0.000 C 
BRANCH  25  26
ATOM     26  C   UNL     1       1.846   4.579  18.440  0.00  0.00    +0.000 C 
ATOM     27  C   UNL     1       2.042   3.492  17.373  0.00  0.00    +0.000 C 
ATOM     28  C   UNL     1       2.992   2.383  17.822  0.00  0.00    +0.000 C 
ATOM     29  C   UNL     1       2.559   1.771  19.151  0.00  0.00    +0.000 C 
ATOM     30  C   UNL     1       2.371   2.826  20.236  0.00  0.00    +0.000 C 
ATOM     31  C   UNL     1       1.435   3.947  19.784  0.00  0.00    +0.000 C 
ENDBRANCH  25  26
ENDBRANCH  24  25
ENDBRANCH  21  24
ENDBRANCH   1  18
TORSDOF 6
ENDMDL
MODEL 5
REMARK VINA RESULT:      -8.6      0.626      1.093
REMARK  Name = 
REMARK  7 active torsions:
REMARK  status: ('A' for Active; 'I' for Inactive)
REMARK    1  A    between atoms: C_1  and  C_2
REMARK    2  A    between atoms: N_4  and  C_5
REMARK    3  A    between atoms: C_12  and  N_13
REMARK    4  A    between atoms: N_13  and  C_14
REMARK    5  A    between atoms: C_17  and  O_18
REMARK    6  A    between atoms: O_18  and  C_19
REMARK    7  A    between atoms: C_19  and  C_20
REMARK                            x       y       z     vdW  Elec       q    Type
REMARK                         _______ _______ _______ _____ _____    ______ ____
ROOT
ATOM      1  N   UNL     1       2.799   7.290  19.259  0.00  0.00    +0.000 N 
ATOM      2  H   UNL     1       3.446   7.477  18.503  0.00  0.00    +0.000 HD
ENDROOT
BRANCH   1  10
ATOM      3  C   UNL     1       4.480   4.043  16.818  0.00  0.00    +0.000 A 
ATOM      4  C   UNL     1       4.107   2.750  17.159  0.00  0.00    +0.000 A 
ATOM      5  C   UNL     1       3.303   2.524  18.276  0.00  0.00    +0.000 A 
ATOM      6  C   UNL     1       2.822   3.559  19.055  0.00  0.00    +0.000 A 
ATOM      7  N   UNL     1       2.004   3.238  20.069  0.00  0.00    +0.000 NA
ATOM      8  C   UNL     1       1.477   4.227  20.805  0.00  0.00    +0.000 A 
ATOM      9  C   UNL     1       1.724   5.563  20.567  0.00  0.00    +0.000 A 
ATOM     10  C   UNL     1       2.583   5.916  19.522  0.00  0.00    +0.000 A 
ATOM     11  C   UNL     1       3.182   4.888  18.735  0.00  0.00    +0.000 A 
ATOM     12  C   UNL     1       4.066   5.100  17.639  0.00  0.00    +0.000 A 
BRANCH   3  16
ATOM     13  C   UNL     1       7.102   4.781  14.213  0.00  0.00    +0.000 C 
ATOM     14  C   UNL     1       6.602   4.530  15.612  0.00  0.00    +0.000 C 
ATOM     15  O   UNL     1       7.384   4.475  16.555  0.00  0.00    +0.000 OA
ATOM     16  N   UNL     1       5.228   4.350  15.660  0.00  0.00    +0.000 N 
ATOM     17  H   UNL     1       4.752   4.260  14.772  0.00  0.00    +0.000 HD
ENDBRANCH   3  16
ENDBRANCH   1  10
BRANCH   1  18
ATOM     18  C   UNL     1       1.885   8.358  19.392  0.00  0.00    +0.000 A 
ATOM     19  C   UNL     1       1.709   9.204  18.297  0.00  0.00    +0.000 A 
ATOM     20  C   UNL     1       0.764  10.230  18.329  0.00  0.00    +0.000 A 
ATOM     21  C   UNL     1      -0.044  10.418  19.450  0.00  0.00    +0.000 A 
ATOM     22  C   UNL     1       0.144   9.597  20.562  0.00  0.00    +0.000 A 
ATOM     23  C   UNL     1       1.105   8.574  20.534  0.00  0.00    +0.000 A 
BRANCH  21  24
ATOM     24  O   UNL     1      -1.041  11.361  19.551  0.00  0.00    +0.000 OA
BRANCH  24  25
ATOM     25  C   UNL     1      -1.797  11.571  18.353  0.00  0.00    +0.000 C 
BRANCH  25  26
ATOM     26  C   UNL     1      -2.738  10.392  18.061  0.00  0.00    +0.000 C 
ATOM     27  C   UNL     1      -4.214  10.811  17.993  0.00  0.00    +0.000 C 
ATOM     28  C   UNL     1      -4.544  11.625  16.743  0.00  0.00    +0.000 C 
ATOM     29  C   UNL     1      -4.124  10.899  15.468  0.00  0.00    +0.000 C 
ATOM     30  C   UNL     1      -2.658  10.483  15.499  0.00  0.00    +0.000 C 
ATOM     31  C   UNL     1      -2.318   9.683  16.758  0.00  0.00    +0.000 C 
ENDBRANCH  25  26
ENDBRANCH  24  25
ENDBRANCH  21  24
ENDBRANCH   1  18
TORSDOF 6
ENDMDL
MODEL 6
REMARK VINA RESULT:      -8.5      1.577      2.205
REMARK  Name = 
REMARK  7 active torsions:
REMARK  status: ('A' for Active; 'I' for Inactive)
REMARK    1  A    between atoms: C_1  and  C_2
REMARK    2  A    between atoms: N_4  and  C_5
REMARK    3  A    between atoms: C_12  and  N_13
REMARK    4  A    between atoms: N_13  and  C_14
REMARK    5  A    between atoms: C_17  and  O_18
REMARK    6  A    between atoms: O_18  and  C_19
REMARK    7  A    between atoms: C_19  and  C_20
REMARK                            x       y       z     vdW  Elec       q    Type
REMARK                         _______ _______ _______ _____ _____    ______ ____
ROOT
ATOM      1  N   UNL     1       2.030   6.292  20.885  0.00  0.00    +0.000 N 
ATOM      2  H   UNL     1       2.832   6.343  21.502  0.00  0.00    +0.000 HD
ENDROOT
BRANCH   1  10
ATOM      3  C   UNL     1       4.935   5.698  17.639  0.00  0.00    +0.000 A 
ATOM      4  C   UNL     1       4.743   4.588  16.827  0.00  0.00    +0.000 A 
ATOM      5  C   UNL     1       3.718   3.684  17.106  0.00  0.00    +0.000 A 
ATOM      6  C   UNL     1       2.843   3.868  18.160  0.00  0.00    +0.000 A 
ATOM      7  N   UNL     1       1.854   2.974  18.303  0.00  0.00    +0.000 NA
ATOM      8  C   UNL     1       0.957   3.163  19.283  0.00  0.00    +0.000 A 
ATOM      9  C   UNL     1       0.993   4.237  20.147  0.00  0.00    +0.000 A 
ATOM     10  C   UNL     1       2.024   5.172  20.020  0.00  0.00    +0.000 A 
ATOM     11  C   UNL     1       3.010   4.989  19.006  0.00  0.00    +0.000 A 
ATOM     12  C   UNL     1       4.108   5.862  18.757  0.00  0.00    +0.000 A 
BRANCH   3  16
ATOM     13  C   UNL     1       7.985   7.896  17.385  0.00  0.00    +0.000 C 
ATOM     14  C   UNL     1       7.172   6.749  17.927  0.00  0.00    +0.000 C 
ATOM     15  O   UNL     1       7.652   5.974  18.746  0.00  0.00    +0.000 OA
ATOM     16  N   UNL     1       5.902   6.690  17.371  0.00  0.00    +0.000 N 
ATOM     17  H   UNL     1       5.722   7.304  16.588  0.00  0.00    +0.000 HD
ENDBRANCH   3  16
ENDBRANCH   1  10
BRANCH   1  18
ATOM     18  C   UNL     1       1.524   7.587  20.640  0.00  0.00    +0.000 A 
ATOM     19  C   UNL     1       1.834   8.187  19.419  0.00  0.00    +0.000 A 
ATOM     20  C   UNL     1       1.303   9.430  19.076  0.00  0.00    +0.000 A 
ATOM     21  C   UNL     1       0.429  10.093  19.937  0.00  0.00    +0.000 A 
ATOM     22  C   UNL     1       0.135   9.516  21.174  0.00  0.00    +0.000 A 
ATOM     23  C   UNL     1       0.682   8.271  21.524  0.00  0.00    +0.000 A 
BRANCH  21  24
ATOM     24  O   UNL     1      -0.191  11.289  19.661  0.00  0.00    +0.000 OA
BRANCH  24  25
ATOM     25  C   UNL     1      -1.620  11.264  19.751  0.00  0.00    +0.000 C 
BRANCH  25  26
ATOM     26  C   UNL     1      -2.278  11.932  18.534  0.00  0.00    +0.000 C 
ATOM     27  C   UNL     1      -1.626  11.521  17.205  0.00  0.00    +0.000 C 
ATOM     28  C   UNL     1      -1.935  10.077  16.812  0.00  0.00    +0.000 C 
ATOM     29  C   UNL     1      -3.437   9.806  16.791  0.00  0.00    +0.000 C 
ATOM     30  C   UNL     1      -4.110  10.190  18.104  0.00  0.00    +0.000 C 
ATOM     31  C   UNL     1      -3.789  11.629  18.510  0.00  0.00    +0.000 C 
ENDBRANCH  25  26
ENDBRANCH  24  25
ENDBRANCH  21  24
ENDBRANCH   1  18
TORSDOF 6
ENDMDL
MODEL 7
REMARK VINA RESULT:      -8.5      2.443      3.210
REMARK  Name = 
REMARK  7 active torsions:
REMARK  status: ('A' for Active; 'I' for Inactive)
REMARK    1  A    between atoms: C_1  and  C_2
REMARK    2  A    between atoms: N_4  and  C_5
REMARK    3  A    between atoms: C_12  and  N_13
REMARK    4  A    between atoms: N_13  and  C_14
REMARK    5  A    between atoms: C_17  and  O_18
REMARK    6  A    between atoms: O_18  and  C_19
REMARK    7  A    between atoms: C_19  and  C_20
REMARK                            x       y       z     vdW  Elec       q    Type
REMARK                         _______ _______ _______ _____ _____    ______ ____
ROOT
ATOM      1  N   UNL     1       1.990   6.301  20.895  0.00  0.00    +0.000 N 
ATOM      2  H   UNL     1       2.789   6.414  21.507  0.00  0.00    +0.000 HD
ENDROOT
BRANCH   1  10
ATOM      3  C   UNL     1       4.948   5.554  17.730  0.00  0.00    +0.000 A 
ATOM      4  C   UNL     1       4.787   4.391  16.989  0.00  0.00    +0.000 A 
ATOM      5  C   UNL     1       3.775   3.487  17.313  0.00  0.00    +0.000 A 
ATOM      6  C   UNL     1       2.883   3.723  18.342  0.00  0.00    +0.000 A 
ATOM      7  N   UNL     1       1.908   2.821  18.531  0.00  0.00    +0.000 NA
ATOM      8  C   UNL     1       0.995   3.055  19.485  0.00  0.00    +0.000 A 
ATOM      9  C   UNL     1       1.000   4.183  20.279  0.00  0.00    +0.000 A 
ATOM     10  C   UNL     1       2.016   5.128  20.104  0.00  0.00    +0.000 A 
ATOM     11  C   UNL     1       3.018   4.898  19.116  0.00  0.00    +0.000 A 
ATOM     12  C   UNL     1       4.103   5.775  18.824  0.00  0.00    +0.000 A 
BRANCH   3  16
ATOM     13  C   UNL     1       7.951   7.806  17.393  0.00  0.00    +0.000 C 
ATOM     14  C   UNL     1       7.145   6.690  18.006  0.00  0.00    +0.000 C 
ATOM     15  O   UNL     1       7.611   6.005  18.910  0.00  0.00    +0.000 OA
ATOM     16  N   UNL     1       5.901   6.545  17.410  0.00  0.00    +0.000 N 
ATOM     17  H   UNL     1       5.738   7.081  16.567  0.00  0.00    +0.000 HD
ENDBRANCH   3  16
ENDBRANCH   1  10
BRANCH   1  18
ATOM     18  C   UNL     1       1.449   7.564  20.567  0.00  0.00    +0.000 A 
ATOM     19  C   UNL     1       0.646   8.195  21.517  0.00  0.00    +0.000 A 
ATOM     20  C   UNL     1       0.144   9.477  21.293  0.00  0.00    +0.000 A 
ATOM     21  C   UNL     1       0.454  10.168  20.121  0.00  0.00    +0.000 A 
ATOM     22  C   UNL     1       1.232   9.534  19.151  0.00  0.00    +0.000 A 
ATOM     23  C   UNL     1       1.724   8.238  19.372  0.00  0.00    +0.000 A 
BRANCH  21  24
ATOM     24  O   UNL     1       0.057  11.454  19.839  0.00  0.00    +0.000 OA
BRANCH  24  25
ATOM     25  C   UNL     1      -1.308  11.748  20.157  0.00  0.00    +0.000 C 
BRANCH  25  26
ATOM     26  C   UNL     1      -1.430  13.003  21.035  0.00  0.00    +0.000 C 
ATOM     27  C   UNL     1      -2.846  13.596  21.031  0.00  0.00    +0.000 C 
ATOM     28  C   UNL     1      -3.852  12.738  21.797  0.00  0.00    +0.000 C 
ATOM     29  C   UNL     1      -3.384  12.452  23.220  0.00  0.00    +0.000 C 
ATOM     30  C   UNL     1      -1.985  11.847  23.255  0.00  0.00    +0.000 C 
ATOM     31  C   UNL     1      -0.978  12.694  22.475  0.00  0.00    +0.000 C 
ENDBRANCH  25  26
ENDBRANCH  24  25
ENDBRANCH  21  24
ENDBRANCH   1  18
TORSDOF 6
ENDMDL
MODEL 8
REMARK VINA RESULT:      -8.5      2.638      3.558
REMARK  Name = 
REMARK  7 active torsions:
REMARK  status: ('A' for Active; 'I' for Inactive)
REMARK    1  A    between atoms: C_1  and  C_2
REMARK    2  A    between atoms: N_4  and  C_5
REMARK    3  A    between atoms: C_12  and  N_13
REMARK    4  A    between atoms: N_13  and  C_14
REMARK    5  A    between atoms: C_17  and  O_18
REMARK    6  A    between atoms: O_18  and  C_19
REMARK    7  A    between atoms: C_19  and  C_20
REMARK                            x       y       z     vdW  Elec       q    Type
REMARK                         _______ _______ _______ _____ _____    ______ ____
ROOT
ATOM      1  N   UNL     1       2.484   6.243  20.030  0.00  0.00    +0.000 N 
ATOM      2  H   UNL     1       3.197   6.291  20.747  0.00  0.00    +0.000 HD
ENDROOT
BRANCH   1  10
ATOM      3  C   UNL     1       5.770   6.405  17.114  0.00  0.00    +0.000 A 
ATOM      4  C   UNL     1       5.804   5.399  16.157  0.00  0.00    +0.000 A 
ATOM      5  C   UNL     1       4.874   4.360  16.199  0.00  0.00    +0.000 A 
ATOM      6  C   UNL     1       3.876   4.306  17.153  0.00  0.00    +0.000 A 
ATOM      7  N   UNL     1       2.994   3.299  17.067  0.00  0.00    +0.000 NA
ATOM      8  C   UNL     1       1.982   3.257  17.945  0.00  0.00    +0.000 A 
ATOM      9  C   UNL     1       1.793   4.204  18.930  0.00  0.00    +0.000 A 
ATOM     10  C   UNL     1       2.708   5.254  19.042  0.00  0.00    +0.000 A 
ATOM     11  C   UNL     1       3.812   5.316  18.141  0.00  0.00    +0.000 A 
ATOM     12  C   UNL     1       4.814   6.329  18.134  0.00  0.00    +0.000 A 
BRANCH   3  16
ATOM     13  C   UNL     1       8.491   8.972  17.569  0.00  0.00    +0.000 C 
ATOM     14  C   UNL     1       7.747   7.702  17.890  0.00  0.00    +0.000 C 
ATOM     15  O   UNL     1       8.156   6.940  18.759  0.00  0.00    +0.000 OA
ATOM     16  N   UNL     1       6.631   7.524  17.086  0.00  0.00    +0.000 N 
ATOM     17  H   UNL     1       6.528   8.160  16.306  0.00  0.00    +0.000 HD
ENDBRANCH   3  16
ENDBRANCH   1  10
BRANCH   1  18
ATOM     18  C   UNL     1       1.863   7.502  19.878  0.00  0.00    +0.000 A 
ATOM     19  C   UNL     1       1.237   8.058  20.995  0.00  0.00    +0.000 A 
ATOM     20  C   UNL     1       0.673   9.333  20.940  0.00  0.00    +0.000 A 
ATOM     21  C   UNL     1       0.744  10.092  19.772  0.00  0.00    +0.000 A 
ATOM     22  C   UNL     1       1.341   9.535  18.640  0.00  0.00    +0.000 A 
ATOM     23  C   UNL     1       1.895   8.245  18.693  0.00  0.00    +0.000 A 
BRANCH  21  24
ATOM     24  O   UNL     1       0.272  11.377  19.640  0.00  0.00    +0.000 OA
BRANCH  24  25
ATOM     25  C   UNL     1      -1.050  11.590  20.146  0.00  0.00    +0.000 C 
BRANCH  25  26
ATOM     26  C   UNL     1      -1.119  12.825  21.057  0.00  0.00    +0.000 C 
ATOM     27  C   UNL     1      -2.468  13.554  20.970  0.00  0.00    +0.000 C 
ATOM     28  C   UNL     1      -3.607  12.777  21.629  0.00  0.00    +0.000 C 
ATOM     29  C   UNL     1      -3.279  12.406  23.072  0.00  0.00    +0.000 C 
ATOM     30  C   UNL     1      -1.951  11.666  23.188  0.00  0.00    +0.000 C 
ATOM     31  C   UNL     1      -0.811  12.433  22.515  0.00  0.00    +0.000 C 
ENDBRANCH  25  26
ENDBRANCH  24  25
ENDBRANCH  21  24
ENDBRANCH   1  18
TORSDOF 6
ENDMDL
MODEL 9
REMARK VINA RESULT:      -8.5      2.306      3.212
REMARK  Name = 
REMARK  7 active torsions:
REMARK  status: ('A' for Active; 'I' for Inactive)
REMARK    1  A    between atoms: C_1  and  C_2
REMARK    2  A    between atoms: N_4  and  C_5
REMARK    3  A    between atoms: C_12  and  N_13
REMARK    4  A    between atoms: N_13  and  C_14
REMARK    5  A    between atoms: C_17  and  O_18
REMARK    6  A    between atoms: O_18  and  C_19
REMARK    7  A    between atoms: C_19  and  C_20
REMARK                            x       y       z     vdW  Elec       q    Type
REMARK                         _______ _______ _______ _____ _____    ______ ____
ROOT
ATOM      1  N   UNL     1       2.016   6.223  21.096  0.00  0.00    +0.000 N 
ATOM      2  H   UNL     1       2.750   6.309  21.789  0.00  0.00    +0.000 HD
ENDROOT
BRANCH   1  10
ATOM      3  C   UNL     1       5.403   5.145  18.509  0.00  0.00    +0.000 A 
ATOM      4  C   UNL     1       5.266   3.988  17.754  0.00  0.00    +0.000 A 
ATOM      5  C   UNL     1       4.132   3.188  17.896  0.00  0.00    +0.000 A 
ATOM      6  C   UNL     1       3.098   3.524  18.749  0.00  0.00    +0.000 A 
ATOM      7  N   UNL     1       2.025   2.721  18.764  0.00  0.00    +0.000 NA
ATOM      8  C   UNL     1       0.984   3.056  19.540  0.00  0.00    +0.000 A 
ATOM      9  C   UNL     1       0.955   4.194  20.319  0.00  0.00    +0.000 A 
ATOM     10  C   UNL     1       2.070   5.037  20.325  0.00  0.00    +0.000 A 
ATOM     11  C   UNL     1       3.205   4.697  19.532  0.00  0.00    +0.000 A 
ATOM     12  C   UNL     1       4.402   5.464  19.435  0.00  0.00    +0.000 A 
BRANCH   3  16
ATOM     13  C   UNL     1       7.881   7.795  17.488  0.00  0.00    +0.000 C 
ATOM     14  C   UNL     1       6.653   6.938  17.319  0.00  0.00    +0.000 C 
ATOM     15  O   UNL     1       5.909   7.094  16.357  0.00  0.00    +0.000 OA
ATOM     16  N   UNL     1       6.486   6.038  18.361  0.00  0.00    +0.000 N 
ATOM     17  H   UNL     1       7.096   6.152  19.160  0.00  0.00    +0.000 HD
ENDBRANCH   3  16
ENDBRANCH   1  10
BRANCH   1  18
ATOM     18  C   UNL     1       1.572   7.503  20.698  0.00  0.00    +0.000 A 
ATOM     19  C   UNL     1       1.925   7.947  19.424  0.00  0.00    +0.000 A 
ATOM     20  C   UNL     1       1.455   9.166  18.934  0.00  0.00    +0.000 A 
ATOM     21  C   UNL     1       0.601   9.959  19.700  0.00  0.00    +0.000 A 
ATOM     22  C   UNL     1       0.265   9.539  20.988  0.00  0.00    +0.000 A 
ATOM     23  C   UNL     1       0.751   8.319  21.485  0.00  0.00    +0.000 A 
BRANCH  21  24
ATOM     24  O   UNL     1       0.040  11.143  19.281  0.00  0.00    +0.000 OA
BRANCH  24  25
ATOM     25  C   UNL     1      -1.357  11.282  19.564  0.00  0.00    +0.000 C 
BRANCH  25  26
ATOM     26  C   UNL     1      -1.721  12.730  19.929  0.00  0.00    +0.000 C 
ATOM     27  C   UNL     1      -2.888  12.816  20.924  0.00  0.00    +0.000 C 
ATOM     28  C   UNL     1      -2.505  12.362  22.332  0.00  0.00    +0.000 C 
ATOM     29  C   UNL     1      -1.285  13.113  22.855  0.00  0.00    +0.000 C 
ATOM     30  C   UNL     1      -0.103  13.032  21.895  0.00  0.00    +0.000 C 
ATOM     31  C   UNL     1      -0.487  13.469  20.481  0.00  0.00    +0.000 C 
ENDBRANCH  25  26
ENDBRANCH  24  25
ENDBRANCH  21  24
ENDBRANCH   1  18
TORSDOF 6
ENDMDL
