MODEL 1
REMARK VINA RESULT:      -7.4      0.000      0.000
REMARK  Name = 
REMARK  7 active torsions:
REMARK  status: ('A' for Active; 'I' for Inactive)
REMARK    1  A    between atoms: C_1  and  C_2
REMARK    2  A    between atoms: C_2  and  O_3
REMARK    3  A    between atoms: O_3  and  C_4
REMARK    4  A    between atoms: C_5  and  C_6
REMARK    5  A    between atoms: C_6  and  C_7
REMARK    6  A    between atoms: C_8  and  C_9
REMARK    7  A    between atoms: C_8  and  C_10
REMARK                            x       y       z     vdW  Elec       q    Type
REMARK                         _______ _______ _______ _____ _____    ______ ____
ROOT
ATOM      1  C   UNL     1       5.127   6.099  17.196  0.00  0.00    +0.000 C 
ATOM      2  C   UNL     1       5.221   4.748  17.137  0.00  0.00    +0.000 C 
ATOM      3  C   UNL     1       4.192   3.890  17.795  0.00  0.00    +0.000 C 
ATOM      4  O   UNL     1       4.111   2.683  17.572  0.00  0.00    +0.000 OA
ATOM      5  C   UNL     1       3.264   4.513  18.753  0.00  0.00    +0.000 A 
ATOM      6  C   UNL     1       2.453   3.723  19.578  0.00  0.00    +0.000 A 
ATOM      7  C   UNL     1       1.556   4.324  20.470  0.00  0.00    +0.000 A 
ATOM      8  C   UNL     1       1.454   5.713  20.522  0.00  0.00    +0.000 A 
ATOM      9  C   UNL     1       2.254   6.498  19.693  0.00  0.00    +0.000 A 
ATOM     10  C   UNL     1       3.160   5.893  18.811  0.00  0.00    +0.000 A 
ATOM     11  C   UNL     1       3.985   6.735  17.935  0.00  0.00    +0.000 C 
ATOM     12  O   UNL     1       3.675   7.919  17.852  0.00  0.00    +0.000 OA
ENDROOT
BRANCH   1  13
ATOM     13  O   UNL     1       6.096   6.865  16.535  0.00  0.00    +0.000 OA
BRANCH  13  15
ATOM     14  C   UNL     1       7.692   8.345  17.606  0.00  0.00    +0.000 C 
ATOM     15  C   UNL     1       7.387   6.932  17.145  0.00  0.00    +0.000 C 
ENDBRANCH  13  15
ENDBRANCH   1  13
BRANCH   2  16
ATOM     16  C   UNL     1       6.243   4.005  16.298  0.00  0.00    +0.000 C 
BRANCH  16  17
ATOM     17  C   UNL     1       5.754   3.565  14.934  0.00  0.00    +0.000 C 
ATOM     18  C   UNL     1       6.261   4.006  13.758  0.00  0.00    +0.000 C 
ATOM     19  C   UNL     1       7.415   4.969  13.648  0.00  0.00    +0.000 C 
ATOM     20  C   UNL     1       5.686   3.587  12.435  0.00  0.00    +0.000 C 
ENDBRANCH  16  17
ENDBRANCH   2  16
TORSDOF 4
ENDMDL
MODEL 2
REMARK VINA RESULT:      -7.1      1.499      3.541
REMARK  Name = 
REMARK  7 active torsions:
REMARK  status: ('A' for Active; 'I' for Inactive)
REMARK    1  A    between atoms: C_1  and  C_2
REMARK    2  A    between atoms: C_2  and  O_3
REMARK    3  A    between atoms: O_3  and  C_4
REMARK    4  A    between atoms: C_5  and  C_6
REMARK    5  A    between atoms: C_6  and  C_7
REMARK    6  A    between atoms: C_8  and  C_9
REMARK    7  A    between atoms: C_8  and  C_10
REMARK                            x       y       z     vdW  Elec       q    Type
REMARK                         _______ _______ _______ _____ _____    ______ ____
ROOT
ATOM      1  C   UNL     1       4.398   4.326  18.544  0.00  0.00    +0.000 C 
ATOM      2  C   UNL     1       5.008   4.888  17.472  0.00  0.00    +0.000 C 
ATOM      3  C   UNL     1       4.787   6.329  17.148  0.00  0.00    +0.000 C 
ATOM      4  O   UNL     1       5.491   6.929  16.337  0.00  0.00    +0.000 OA
ATOM      5  C   UNL     1       3.680   7.037  17.811  0.00  0.00    +0.000 A 
ATOM      6  C   UNL     1       3.274   8.303  17.365  0.00  0.00    +0.000 A 
ATOM      7  C   UNL     1       2.235   8.979  18.015  0.00  0.00    +0.000 A 
ATOM      8  C   UNL     1       1.617   8.403  19.123  0.00  0.00    +0.000 A 
ATOM      9  C   UNL     1       2.028   7.150  19.572  0.00  0.00    +0.000 A 
ATOM     10  C   UNL     1       3.059   6.469  18.910  0.00  0.00    +0.000 A 
ATOM     11  C   UNL     1       3.490   5.154  19.406  0.00  0.00    +0.000 C 
ATOM     12  O   UNL     1       3.083   4.820  20.514  0.00  0.00    +0.000 OA
ENDROOT
BRANCH   1  13
ATOM     13  O   UNL     1       4.660   2.979  18.830  0.00  0.00    +0.000 OA
BRANCH  13  15
ATOM     14  C   UNL     1       2.684   2.506  17.506  0.00  0.00    +0.000 C 
ATOM     15  C   UNL     1       3.580   2.061  18.647  0.00  0.00    +0.000 C 
ENDBRANCH  13  15
ENDBRANCH   1  13
BRANCH   2  16
ATOM     16  C   UNL     1       6.054   4.187  16.626  0.00  0.00    +0.000 C 
BRANCH  16  17
ATOM     17  C   UNL     1       5.565   3.696  15.280  0.00  0.00    +0.000 C 
ATOM     18  C   UNL     1       6.110   4.046  14.091  0.00  0.00    +0.000 C 
ATOM     19  C   UNL     1       7.310   4.946  13.948  0.00  0.00    +0.000 C 
ATOM     20  C   UNL     1       5.536   3.582  12.782  0.00  0.00    +0.000 C 
ENDBRANCH  16  17
ENDBRANCH   2  16
TORSDOF 4
ENDMDL
MODEL 3
REMARK VINA RESULT:      -7.0      2.213      5.093
REMARK  Name = 
REMARK  7 active torsions:
REMARK  status: ('A' for Active; 'I' for Inactive)
REMARK    1  A    between atoms: C_1  and  C_2
REMARK    2  A    between atoms: C_2  and  O_3
REMARK    3  A    between atoms: O_3  and  C_4
REMARK    4  A    between atoms: C_5  and  C_6
REMARK    5  A    between atoms: C_6  and  C_7
REMARK    6  A    between atoms: C_8  and  C_9
REMARK    7  A    between atoms: C_8  and  C_10
REMARK                            x       y       z     vdW  Elec       q    Type
REMARK                         _______ _______ _______ _____ _____    ______ ____
ROOT
ATOM      1  C   UNL     1       3.705   6.033  17.571  0.00  0.00    +0.000 C 
ATOM      2  C   UNL     1       2.950   6.834  18.361  0.00  0.00    +0.000 C 
ATOM      3  C   UNL     1       2.258   6.274  19.561  0.00  0.00    +0.000 C 
ATOM      4  O   UNL     1       1.762   6.998  20.423  0.00  0.00    +0.000 OA
ATOM      5  C   UNL     1       2.156   4.812  19.695  0.00  0.00    +0.000 A 
ATOM      6  C   UNL     1       1.310   4.242  20.657  0.00  0.00    +0.000 A 
ATOM      7  C   UNL     1       1.237   2.850  20.794  0.00  0.00    +0.000 A 
ATOM      8  C   UNL     1       2.022   2.030  19.986  0.00  0.00    +0.000 A 
ATOM      9  C   UNL     1       2.869   2.599  19.038  0.00  0.00    +0.000 A 
ATOM     10  C   UNL     1       2.931   3.991  18.894  0.00  0.00    +0.000 A 
ATOM     11  C   UNL     1       3.841   4.574  17.898  0.00  0.00    +0.000 C 
ATOM     12  O   UNL     1       4.673   3.822  17.402  0.00  0.00    +0.000 OA
ENDROOT
BRANCH   1  13
ATOM     13  O   UNL     1       4.364   6.608  16.475  0.00  0.00    +0.000 OA
BRANCH  13  15
ATOM     14  C   UNL     1       6.548   7.158  17.375  0.00  0.00    +0.000 C 
ATOM     15  C   UNL     1       5.765   6.347  16.359  0.00  0.00    +0.000 C 
ENDBRANCH  13  15
ENDBRANCH   1  13
BRANCH   2  16
ATOM     16  C   UNL     1       2.865   8.341  18.209  0.00  0.00    +0.000 C 
BRANCH  16  17
ATOM     17  C   UNL     1       1.548   8.857  17.668  0.00  0.00    +0.000 C 
ATOM     18  C   UNL     1       0.705   9.670  18.347  0.00  0.00    +0.000 C 
ATOM     19  C   UNL     1       0.984  10.208  19.726  0.00  0.00    +0.000 C 
ATOM     20  C   UNL     1      -0.623  10.092  17.783  0.00  0.00    +0.000 C 
ENDBRANCH  16  17
ENDBRANCH   2  16
TORSDOF 4
ENDMDL
MODEL 4
REMARK VINA RESULT:      -7.0      1.506      5.620
REMARK  Name = 
REMARK  7 active torsions:
REMARK  status: ('A' for Active; 'I' for Inactive)
REMARK    1  A    between atoms: C_1  and  C_2
REMARK    2  A    between atoms: C_2  and  O_3
REMARK    3  A    between atoms: O_3  and  C_4
REMARK    4  A    between atoms: C_5  and  C_6
REMARK    5  A    between atoms: C_6  and  C_7
REMARK    6  A    between atoms: C_8  and  C_9
REMARK    7  A    between atoms: C_8  and  C_10
REMARK                            x       y       z     vdW  Elec       q    Type
REMARK                         _______ _______ _______ _____ _____    ______ ____
ROOT
ATOM      1  C   UNL     1       3.625   6.551  17.880  0.00  0.00    +0.000 C 
ATOM      2  C   UNL     1       2.985   5.359  17.793  0.00  0.00    +0.000 C 
ATOM      3  C   UNL     1       3.633   4.203  17.106  0.00  0.00    +0.000 C 
ATOM      4  O   UNL     1       3.196   3.057  17.207  0.00  0.00    +0.000 OA
ATOM      5  C   UNL     1       4.818   4.455  16.271  0.00  0.00    +0.000 A 
ATOM      6  C   UNL     1       5.311   3.462  15.413  0.00  0.00    +0.000 A 
ATOM      7  C   UNL     1       6.452   3.702  14.639  0.00  0.00    +0.000 A 
ATOM      8  C   UNL     1       7.114   4.924  14.737  0.00  0.00    +0.000 A 
ATOM      9  C   UNL     1       6.630   5.907  15.598  0.00  0.00    +0.000 A 
ATOM     10  C   UNL     1       5.479   5.668  16.362  0.00  0.00    +0.000 A 
ATOM     11  C   UNL     1       4.990   6.711  17.275  0.00  0.00    +0.000 C 
ATOM     12  O   UNL     1       5.745   7.651  17.496  0.00  0.00    +0.000 OA
ENDROOT
BRANCH   1  13
ATOM     13  O   UNL     1       2.994   7.599  18.563  0.00  0.00    +0.000 OA
BRANCH  13  15
ATOM     14  C   UNL     1       1.332   9.365  18.583  0.00  0.00    +0.000 C 
ATOM     15  C   UNL     1       2.346   8.589  17.762  0.00  0.00    +0.000 C 
ENDBRANCH  13  15
ENDBRANCH   1  13
BRANCH   2  16
ATOM     16  C   UNL     1       1.676   5.046  18.493  0.00  0.00    +0.000 C 
BRANCH  16  17
ATOM     17  C   UNL     1       1.818   4.454  19.880  0.00  0.00    +0.000 C 
ATOM     18  C   UNL     1       1.341   3.241  20.249  0.00  0.00    +0.000 C 
ATOM     19  C   UNL     1       0.636   2.295  19.313  0.00  0.00    +0.000 C 
ATOM     20  C   UNL     1       1.450   2.737  21.660  0.00  0.00    +0.000 C 
ENDBRANCH  16  17
ENDBRANCH   2  16
TORSDOF 4
ENDMDL
MODEL 5
REMARK VINA RESULT:      -6.9      1.876      3.771
REMARK  Name = 
REMARK  7 active torsions:
REMARK  status: ('A' for Active; 'I' for Inactive)
REMARK    1  A    between atoms: C_1  and  C_2
REMARK    2  A    between atoms: C_2  and  O_3
REMARK    3  A    between atoms: O_3  and  C_4
REMARK    4  A    between atoms: C_5  and  C_6
REMARK    5  A    between atoms: C_6  and  C_7
REMARK    6  A    between atoms: C_8  and  C_9
REMARK    7  A    between atoms: C_8  and  C_10
REMARK                            x       y       z     vdW  Elec       q    Type
REMARK                         _______ _______ _______ _____ _____    ______ ____
ROOT
ATOM      1  C   UNL     1       4.438   4.203  16.649  0.00  0.00    +0.000 C 
ATOM      2  C   UNL     1       5.352   4.507  17.602  0.00  0.00    +0.000 C 
ATOM      3  C   UNL     1       5.019   4.343  19.048  0.00  0.00    +0.000 C 
ATOM      4  O   UNL     1       5.882   4.383  19.924  0.00  0.00    +0.000 OA
ATOM      5  C   UNL     1       3.610   4.147  19.427  0.00  0.00    +0.000 A 
ATOM      6  C   UNL     1       3.213   4.238  20.768  0.00  0.00    +0.000 A 
ATOM      7  C   UNL     1       1.875   4.028  21.123  0.00  0.00    +0.000 A 
ATOM      8  C   UNL     1       0.938   3.707  20.142  0.00  0.00    +0.000 A 
ATOM      9  C   UNL     1       1.336   3.606  18.811  0.00  0.00    +0.000 A 
ATOM     10  C   UNL     1       2.674   3.830  18.457  0.00  0.00    +0.000 A 
ATOM     11  C   UNL     1       3.079   3.706  17.050  0.00  0.00    +0.000 C 
ATOM     12  O   UNL     1       2.273   3.185  16.286  0.00  0.00    +0.000 OA
ENDROOT
BRANCH   1  13
ATOM     13  O   UNL     1       4.805   4.340  15.303  0.00  0.00    +0.000 OA
BRANCH  13  15
ATOM     14  C   UNL     1       6.291   3.904  13.436  0.00  0.00    +0.000 C 
ATOM     15  C   UNL     1       5.877   3.515  14.843  0.00  0.00    +0.000 C 
ENDBRANCH  13  15
ENDBRANCH   1  13
BRANCH   2  16
ATOM     16  C   UNL     1       6.795   4.873  17.307  0.00  0.00    +0.000 C 
BRANCH  16  17
ATOM     17  C   UNL     1       7.045   6.347  17.065  0.00  0.00    +0.000 C 
ATOM     18  C   UNL     1       7.707   7.163  17.920  0.00  0.00    +0.000 C 
ATOM     19  C   UNL     1       8.322   6.703  19.216  0.00  0.00    +0.000 C 
ATOM     20  C   UNL     1       7.862   8.634  17.657  0.00  0.00    +0.000 C 
ENDBRANCH  16  17
ENDBRANCH   2  16
TORSDOF 4
ENDMDL
MODEL 6
REMARK VINA RESULT:      -6.9      2.217      3.634
REMARK  Name = 
REMARK  7 active torsions:
REMARK  status: ('A' for Active; 'I' for Inactive)
REMARK    1  A    between atoms: C_1  and  C_2
REMARK    2  A    between atoms: C_2  and  O_3
REMARK    3  A    between atoms: O_3  and  C_4
REMARK    4  A    between atoms: C_5  and  C_6
REMARK    5  A    between atoms: C_6  and  C_7
REMARK    6  A    between atoms: C_8  and  C_9
REMARK    7  A    between atoms: C_8  and  C_10
REMARK                            x       y       z     vdW  Elec       q    Type
REMARK                         _______ _______ _______ _____ _____    ______ ____
ROOT
ATOM      1  C   UNL     1       3.251   6.633  18.567  0.00  0.00    +0.000 C 
ATOM      2  C   UNL     1       4.039   5.787  17.859  0.00  0.00    +0.000 C 
ATOM      3  C   UNL     1       4.059   4.329  18.180  0.00  0.00    +0.000 C 
ATOM      4  O   UNL     1       4.572   3.503  17.426  0.00  0.00    +0.000 OA
ATOM      5  C   UNL     1       3.461   3.879  19.447  0.00  0.00    +0.000 A 
ATOM      6  C   UNL     1       3.672   2.573  19.912  0.00  0.00    +0.000 A 
ATOM      7  C   UNL     1       3.081   2.146  21.107  0.00  0.00    +0.000 A 
ATOM      8  C   UNL     1       2.263   3.015  21.827  0.00  0.00    +0.000 A 
ATOM      9  C   UNL     1       2.046   4.310  21.359  0.00  0.00    +0.000 A 
ATOM     10  C   UNL     1       2.650   4.738  20.169  0.00  0.00    +0.000 A 
ATOM     11  C   UNL     1       2.399   6.102  19.683  0.00  0.00    +0.000 C 
ATOM     12  O   UNL     1       1.488   6.723  20.221  0.00  0.00    +0.000 OA
ENDROOT
BRANCH   1  13
ATOM     13  O   UNL     1       3.238   7.989  18.209  0.00  0.00    +0.000 OA
BRANCH  13  15
ATOM     14  C   UNL     1       1.624   9.799  18.204  0.00  0.00    +0.000 C 
ATOM     15  C   UNL     1       2.047   8.478  17.590  0.00  0.00    +0.000 C 
ENDBRANCH  13  15
ENDBRANCH   1  13
BRANCH   2  16
ATOM     16  C   UNL     1       4.821   6.189  16.624  0.00  0.00    +0.000 C 
BRANCH  16  17
ATOM     17  C   UNL     1       5.878   7.250  16.851  0.00  0.00    +0.000 C 
ATOM     18  C   UNL     1       7.058   7.034  17.478  0.00  0.00    +0.000 C 
ATOM     19  C   UNL     1       7.500   5.692  18.002  0.00  0.00    +0.000 C 
ATOM     20  C   UNL     1       8.038   8.144  17.738  0.00  0.00    +0.000 C 
ENDBRANCH  16  17
ENDBRANCH   2  16
TORSDOF 4
ENDMDL
MODEL 7
REMARK VINA RESULT:      -6.8      2.280      6.816
REMARK  Name = 
REMARK  7 active torsions:
REMARK  status: ('A' for Active; 'I' for Inactive)
REMARK    1  A    between atoms: C_1  and  C_2
REMARK    2  A    between atoms: C_2  and  O_3
REMARK    3  A    between atoms: O_3  and  C_4
REMARK    4  A    between atoms: C_5  and  C_6
REMARK    5  A    between atoms: C_6  and  C_7
REMARK    6  A    between atoms: C_8  and  C_9
REMARK    7  A    between atoms: C_8  and  C_10
REMARK                            x       y       z     vdW  Elec       q    Type
REMARK                         _______ _______ _______ _____ _____    ______ ____
ROOT
ATOM      1  C   UNL     1       2.248   5.221  19.445  0.00  0.00    +0.000 C 
ATOM      2  C   UNL     1       2.516   6.545  19.344  0.00  0.00    +0.000 C 
ATOM      3  C   UNL     1       3.281   7.074  18.176  0.00  0.00    +0.000 C 
ATOM      4  O   UNL     1       3.343   8.278  17.929  0.00  0.00    +0.000 OA
ATOM      5  C   UNL     1       3.993   6.119  17.311  0.00  0.00    +0.000 A 
ATOM      6  C   UNL     1       4.920   6.571  16.361  0.00  0.00    +0.000 A 
ATOM      7  C   UNL     1       5.576   5.658  15.527  0.00  0.00    +0.000 A 
ATOM      8  C   UNL     1       5.291   4.297  15.626  0.00  0.00    +0.000 A 
ATOM      9  C   UNL     1       4.362   3.851  16.563  0.00  0.00    +0.000 A 
ATOM     10  C   UNL     1       3.717   4.766  17.406  0.00  0.00    +0.000 A 
ATOM     11  C   UNL     1       2.729   4.279  18.380  0.00  0.00    +0.000 C 
ATOM     12  O   UNL     1       2.347   3.121  18.248  0.00  0.00    +0.000 OA
ENDROOT
BRANCH   1  13
ATOM     13  O   UNL     1       1.498   4.773  20.541  0.00  0.00    +0.000 OA
BRANCH  13  15
ATOM     14  C   UNL     1       1.510   2.599  21.615  0.00  0.00    +0.000 C 
ATOM     15  C   UNL     1       2.180   3.955  21.494  0.00  0.00    +0.000 C 
ENDBRANCH  13  15
ENDBRANCH   1  13
BRANCH   2  16
ATOM     16  C   UNL     1       1.954   7.598  20.280  0.00  0.00    +0.000 C 
BRANCH  16  17
ATOM     17  C   UNL     1       1.130   8.678  19.609  0.00  0.00    +0.000 C 
ATOM     18  C   UNL     1       0.238   9.471  20.248  0.00  0.00    +0.000 C 
ATOM     19  C   UNL     1      -0.029   9.413  21.729  0.00  0.00    +0.000 C 
ATOM     20  C   UNL     1      -0.603  10.477  19.514  0.00  0.00    +0.000 C 
ENDBRANCH  16  17
ENDBRANCH   2  16
TORSDOF 4
ENDMDL
MODEL 8
REMARK VINA RESULT:      -6.8      0.616      1.032
REMARK  Name = 
REMARK  7 active torsions:
REMARK  status: ('A' for Active; 'I' for Inactive)
REMARK    1  A    between atoms: C_1  and  C_2
REMARK    2  A    between atoms: C_2  and  O_3
REMARK    3  A    between atoms: O_3  and  C_4
REMARK    4  A    between atoms: C_5  and  C_6
REMARK    5  A    between atoms: C_6  and  C_7
REMARK    6  A    between atoms: C_8  and  C_9
REMARK    7  A    between atoms: C_8  and  C_10
REMARK                            x       y       z     vdW  Elec       q    Type
REMARK                         _______ _______ _______ _____ _____    ______ ____
ROOT
ATOM      1  C   UNL     1       4.990   5.830  16.997  0.00  0.00    +0.000 C 
ATOM      2  C   UNL     1       4.977   4.484  16.838  0.00  0.00    +0.000 C 
ATOM      3  C   UNL     1       3.929   3.655  17.505  0.00  0.00    +0.000 C 
ATOM      4  O   UNL     1       3.742   2.477  17.205  0.00  0.00    +0.000 OA
ATOM      5  C   UNL     1       3.115   4.271  18.566  0.00  0.00    +0.000 A 
ATOM      6  C   UNL     1       2.301   3.481  19.389  0.00  0.00    +0.000 A 
ATOM      7  C   UNL     1       1.512   4.077  20.381  0.00  0.00    +0.000 A 
ATOM      8  C   UNL     1       1.520   5.462  20.536  0.00  0.00    +0.000 A 
ATOM      9  C   UNL     1       2.322   6.247  19.710  0.00  0.00    +0.000 A 
ATOM     10  C   UNL     1       3.121   5.646  18.727  0.00  0.00    +0.000 A 
ATOM     11  C   UNL     1       3.950   6.490  17.856  0.00  0.00    +0.000 C 
ATOM     12  O   UNL     1       3.726   7.696  17.878  0.00  0.00    +0.000 OA
ENDROOT
BRANCH   1  13
ATOM     13  O   UNL     1       5.971   6.572  16.325  0.00  0.00    +0.000 OA
BRANCH  13  15
ATOM     14  C   UNL     1       7.587   6.467  18.130  0.00  0.00    +0.000 C 
ATOM     15  C   UNL     1       6.856   7.349  17.135  0.00  0.00    +0.000 C 
ENDBRANCH  13  15
ENDBRANCH   1  13
BRANCH   2  16
ATOM     16  C   UNL     1       5.883   3.734  15.880  0.00  0.00    +0.000 C 
BRANCH  16  17
ATOM     17  C   UNL     1       6.754   4.610  15.004  0.00  0.00    +0.000 C 
ATOM     18  C   UNL     1       6.850   4.495  13.658  0.00  0.00    +0.000 C 
ATOM     19  C   UNL     1       6.068   3.500  12.841  0.00  0.00    +0.000 C 
ATOM     20  C   UNL     1       7.786   5.348  12.849  0.00  0.00    +0.000 C 
ENDBRANCH  16  17
ENDBRANCH   2  16
TORSDOF 4
ENDMDL
MODEL 9
REMARK VINA RESULT:      -6.7      2.239      6.922
REMARK  Name = 
REMARK  7 active torsions:
REMARK  status: ('A' for Active; 'I' for Inactive)
REMARK    1  A    between atoms: C_1  and  C_2
REMARK    2  A    between atoms: C_2  and  O_3
REMARK    3  A    between atoms: O_3  and  C_4
REMARK    4  A    between atoms: C_5  and  C_6
REMARK    5  A    between atoms: C_6  and  C_7
REMARK    6  A    between atoms: C_8  and  C_9
REMARK    7  A    between atoms: C_8  and  C_10
REMARK                            x       y       z     vdW  Elec       q    Type
REMARK                         _______ _______ _______ _____ _____    ______ ____
ROOT
ATOM      1  C   UNL     1       3.055   5.321  19.857  0.00  0.00    +0.000 C 
ATOM      2  C   UNL     1       2.791   6.505  19.254  0.00  0.00    +0.000 C 
ATOM      3  C   UNL     1       3.627   6.970  18.107  0.00  0.00    +0.000 C 
ATOM      4  O   UNL     1       3.284   7.910  17.391  0.00  0.00    +0.000 OA
ATOM      5  C   UNL     1       4.906   6.289  17.847  0.00  0.00    +0.000 A 
ATOM      6  C   UNL     1       5.837   6.838  16.954  0.00  0.00    +0.000 A 
ATOM      7  C   UNL     1       7.041   6.172  16.696  0.00  0.00    +0.000 A 
ATOM      8  C   UNL     1       7.306   4.950  17.311  0.00  0.00    +0.000 A 
ATOM      9  C   UNL     1       6.375   4.401  18.190  0.00  0.00    +0.000 A 
ATOM     10  C   UNL     1       5.176   5.076  18.457  0.00  0.00    +0.000 A 
ATOM     11  C   UNL     1       4.199   4.476  19.377  0.00  0.00    +0.000 C 
ATOM     12  O   UNL     1       4.378   3.303  19.685  0.00  0.00    +0.000 OA
ENDROOT
BRANCH   1  13
ATOM     13  O   UNL     1       2.224   4.907  20.908  0.00  0.00    +0.000 OA
BRANCH  13  15
ATOM     14  C   UNL     1       1.350   2.710  21.448  0.00  0.00    +0.000 C 
ATOM     15  C   UNL     1       1.211   3.952  20.586  0.00  0.00    +0.000 C 
ENDBRANCH  13  15
ENDBRANCH   1  13
BRANCH   2  16
ATOM     16  C   UNL     1       1.577   7.361  19.560  0.00  0.00    +0.000 C 
BRANCH  16  17
ATOM     17  C   UNL     1       1.496   7.872  20.983  0.00  0.00    +0.000 C 
ATOM     18  C   UNL     1       0.705   8.894  21.388  0.00  0.00    +0.000 C 
ATOM     19  C   UNL     1      -0.236   9.640  20.479  0.00  0.00    +0.000 C 
ATOM     20  C   UNL     1       0.721   9.403  22.802  0.00  0.00    +0.000 C 
ENDBRANCH  16  17
ENDBRANCH   2  16
TORSDOF 4
ENDMDL
