MODEL 1
REMARK VINA RESULT:      -6.8      0.000      0.000
REMARK  Name = 
REMARK  10 active torsions:
REMARK  status: ('A' for Active; 'I' for Inactive)
REMARK    1  A    between atoms: C_1  and  C_2
REMARK    2  A    between atoms: C_2  and  C_3
REMARK    3  A    between atoms: C_2  and  N_11
REMARK    4  A    between atoms: C_3  and  O_4
REMARK    5  A    between atoms: O_4  and  C_5
REMARK    6  A    between atoms: C_12  and  C_14
REMARK    7  A    between atoms: C_14  and  N_15
REMARK    8  A    between atoms: C_14  and  C_16
REMARK    9  A    between atoms: C_16  and  C_17
REMARK   10  A    between atoms: C_17  and  O_19
REMARK                            x       y       z     vdW  Elec       q    Type
REMARK                         _______ _______ _______ _____ _____    ______ ____
ROOT
ATOM      1  N   UNL     1       5.833   5.475  15.928  0.00  0.00    +0.000 N 
ATOM      2  C   UNL     1       6.957   4.761  15.579  0.00  0.00    +0.000 C 
ATOM      3  O   UNL     1       7.875   4.498  16.350  0.00  0.00    +0.000 OA
ATOM      4  H   UNL     1       5.018   5.293  15.346  0.00  0.00    +0.000 HD
ENDROOT
BRANCH   1   6
ATOM      5  C   UNL     1       6.395   7.315  17.428  0.00  0.00    +0.000 C 
ATOM      6  C   UNL     1       5.640   5.995  17.276  0.00  0.00    +0.000 C 
BRANCH   6   7
ATOM      7  C   UNL     1       4.145   6.164  17.599  0.00  0.00    +0.000 C 
BRANCH   7   8
ATOM      8  O   UNL     1       3.434   4.963  17.284  0.00  0.00    +0.000 OA
BRANCH   8   9
ATOM      9  C   UNL     1       2.598   4.508  18.269  0.00  0.00    +0.000 A 
ATOM     10  C   UNL     1       2.549   5.287  19.427  0.00  0.00    +0.000 A 
ATOM     11  C   UNL     1       1.728   4.914  20.494  0.00  0.00    +0.000 A 
ATOM     12  C   UNL     1       0.939   3.770  20.398  0.00  0.00    +0.000 A 
ATOM     13  C   UNL     1       0.966   3.004  19.236  0.00  0.00    +0.000 A 
ATOM     14  C   UNL     1       1.792   3.373  18.172  0.00  0.00    +0.000 A 
ENDBRANCH   8   9
ENDBRANCH   7   8
ENDBRANCH   6   7
ENDBRANCH   1   6
BRANCH   2  15
ATOM     15  C   UNL     1       6.941   4.277  14.114  0.00  0.00    +0.000 C 
BRANCH  15  16
ATOM     16  N   UNL     1       7.630   5.307  13.298  0.00  0.00    +0.000 NA
ATOM     17  H   UNL     1       7.312   6.231  13.598  0.00  0.00    +0.000 HD
ATOM     18  H   UNL     1       7.326   5.224  12.326  0.00  0.00    +0.000 HD
ENDBRANCH  15  16
BRANCH  15  19
ATOM     19  C   UNL     1       5.515   4.051  13.622  0.00  0.00    +0.000 C 
BRANCH  19  20
ATOM     20  C   UNL     1       5.480   3.312  12.306  0.00  0.00    +0.000 C 
ATOM     21  O   UNL     1       4.496   3.272  11.584  0.00  0.00    +0.000 OA
BRANCH  20  22
ATOM     22  O   UNL     1       6.633   2.683  11.992  0.00  0.00    +0.000 OA
ATOM     23  H   UNL     1       7.436   3.236  12.154  0.00  0.00    +0.000 HD
ENDBRANCH  20  22
ENDBRANCH  19  20
ENDBRANCH  15  19
ENDBRANCH   2  15
TORSDOF 9
ENDMDL
MODEL 2
REMARK VINA RESULT:      -6.8      2.552      6.519
REMARK  Name = 
REMARK  10 active torsions:
REMARK  status: ('A' for Active; 'I' for Inactive)
REMARK    1  A    between atoms: C_1  and  C_2
REMARK    2  A    between atoms: C_2  and  C_3
REMARK    3  A    between atoms: C_2  and  N_11
REMARK    4  A    between atoms: C_3  and  O_4
REMARK    5  A    between atoms: O_4  and  C_5
REMARK    6  A    between atoms: C_12  and  C_14
REMARK    7  A    between atoms: C_14  and  N_15
REMARK    8  A    between atoms: C_14  and  C_16
REMARK    9  A    between atoms: C_16  and  C_17
REMARK   10  A    between atoms: C_17  and  O_19
REMARK                            x       y       z     vdW  Elec       q    Type
REMARK                         _______ _______ _______ _____ _____    ______ ____
ROOT
ATOM      1  N   UNL     1       5.390   3.914  18.016  0.00  0.00    +0.000 N 
ATOM      2  C   UNL     1       4.510   3.973  19.074  0.00  0.00    +0.000 C 
ATOM      3  O   UNL     1       4.396   4.938  19.823  0.00  0.00    +0.000 OA
ATOM      4  H   UNL     1       5.123   3.263  17.279  0.00  0.00    +0.000 HD
ENDROOT
BRANCH   1   6
ATOM      5  C   UNL     1       7.736   4.548  17.800  0.00  0.00    +0.000 C 
ATOM      6  C   UNL     1       6.285   5.018  17.697  0.00  0.00    +0.000 C 
BRANCH   6   7
ATOM      7  C   UNL     1       5.981   5.598  16.305  0.00  0.00    +0.000 C 
BRANCH   7   8
ATOM      8  O   UNL     1       7.143   5.522  15.474  0.00  0.00    +0.000 OA
BRANCH   8   9
ATOM      9  C   UNL     1       6.951   4.913  14.262  0.00  0.00    +0.000 A 
ATOM     10  C   UNL     1       5.873   4.029  14.194  0.00  0.00    +0.000 A 
ATOM     11  C   UNL     1       5.586   3.356  13.004  0.00  0.00    +0.000 A 
ATOM     12  C   UNL     1       6.369   3.579  11.872  0.00  0.00    +0.000 A 
ATOM     13  C   UNL     1       7.430   4.478  11.929  0.00  0.00    +0.000 A 
ATOM     14  C   UNL     1       7.719   5.147  13.120  0.00  0.00    +0.000 A 
ENDBRANCH   8   9
ENDBRANCH   7   8
ENDBRANCH   6   7
ENDBRANCH   1   6
BRANCH   2  15
ATOM     15  C   UNL     1       3.635   2.709  19.210  0.00  0.00    +0.000 C 
BRANCH  15  16
ATOM     16  N   UNL     1       3.726   1.965  17.929  0.00  0.00    +0.000 NA
ATOM     17  H   UNL     1       4.690   2.010  17.591  0.00  0.00    +0.000 HD
ATOM     18  H   UNL     1       3.173   2.449  17.219  0.00  0.00    +0.000 HD
ENDBRANCH  15  16
BRANCH  15  19
ATOM     19  C   UNL     1       2.188   3.070  19.532  0.00  0.00    +0.000 C 
BRANCH  19  20
ATOM     20  C   UNL     1       1.296   2.968  18.318  0.00  0.00    +0.000 C 
ATOM     21  O   UNL     1       1.351   3.746  17.377  0.00  0.00    +0.000 OA
BRANCH  20  22
ATOM     22  O   UNL     1       0.415   1.946  18.361  0.00  0.00    +0.000 OA
ATOM     23  H   UNL     1      -0.522   2.243  18.455  0.00  0.00    +0.000 HD
ENDBRANCH  20  22
ENDBRANCH  19  20
ENDBRANCH  15  19
ENDBRANCH   2  15
TORSDOF 9
ENDMDL
MODEL 3
REMARK VINA RESULT:      -6.7      2.702      7.120
REMARK  Name = 
REMARK  10 active torsions:
REMARK  status: ('A' for Active; 'I' for Inactive)
REMARK    1  A    between atoms: C_1  and  C_2
REMARK    2  A    between atoms: C_2  and  C_3
REMARK    3  A    between atoms: C_2  and  N_11
REMARK    4  A    between atoms: C_3  and  O_4
REMARK    5  A    between atoms: O_4  and  C_5
REMARK    6  A    between atoms: C_12  and  C_14
REMARK    7  A    between atoms: C_14  and  N_15
REMARK    8  A    between atoms: C_14  and  C_16
REMARK    9  A    between atoms: C_16  and  C_17
REMARK   10  A    between atoms: C_17  and  O_19
REMARK                            x       y       z     vdW  Elec       q    Type
REMARK                         _______ _______ _______ _____ _____    ______ ____
ROOT
ATOM      1  N   UNL     1       5.711   3.919  18.906  0.00  0.00    +0.000 N 
ATOM      2  C   UNL     1       4.409   3.969  19.353  0.00  0.00    +0.000 C 
ATOM      3  O   UNL     1       3.635   4.893  19.123  0.00  0.00    +0.000 OA
ATOM      4  H   UNL     1       6.097   2.980  18.831  0.00  0.00    +0.000 HD
ENDROOT
BRANCH   1   6
ATOM      5  C   UNL     1       7.412   5.667  18.898  0.00  0.00    +0.000 C 
ATOM      6  C   UNL     1       6.292   4.991  18.108  0.00  0.00    +0.000 C 
BRANCH   6   7
ATOM      7  C   UNL     1       6.798   4.466  16.753  0.00  0.00    +0.000 C 
BRANCH   7   8
ATOM      8  O   UNL     1       5.769   4.577  15.766  0.00  0.00    +0.000 OA
BRANCH   8   9
ATOM      9  C   UNL     1       6.189   4.427  14.470  0.00  0.00    +0.000 A 
ATOM     10  C   UNL     1       7.313   5.172  14.110  0.00  0.00    +0.000 A 
ATOM     11  C   UNL     1       7.826   5.092  12.813  0.00  0.00    +0.000 A 
ATOM     12  C   UNL     1       7.227   4.251  11.878  0.00  0.00    +0.000 A 
ATOM     13  C   UNL     1       6.121   3.487  12.240  0.00  0.00    +0.000 A 
ATOM     14  C   UNL     1       5.604   3.572  13.535  0.00  0.00    +0.000 A 
ENDBRANCH   8   9
ENDBRANCH   7   8
ENDBRANCH   6   7
ENDBRANCH   1   6
BRANCH   2  15
ATOM     15  C   UNL     1       3.990   2.716  20.150  0.00  0.00    +0.000 C 
BRANCH  15  16
ATOM     16  N   UNL     1       4.893   1.609  19.745  0.00  0.00    +0.000 NA
ATOM     17  H   UNL     1       5.856   1.873  19.965  0.00  0.00    +0.000 HD
ATOM     18  H   UNL     1       4.870   1.513  18.728  0.00  0.00    +0.000 HD
ENDBRANCH  15  16
BRANCH  15  19
ATOM     19  C   UNL     1       2.531   2.356  19.889  0.00  0.00    +0.000 C 
BRANCH  19  20
ATOM     20  C   UNL     1       1.614   2.901  20.957  0.00  0.00    +0.000 C 
ATOM     21  O   UNL     1       1.583   2.470  22.099  0.00  0.00    +0.000 OA
BRANCH  20  22
ATOM     22  O   UNL     1       0.813   3.905  20.541  0.00  0.00    +0.000 OA
ATOM     23  H   UNL     1       0.164   3.627  19.851  0.00  0.00    +0.000 HD
ENDBRANCH  20  22
ENDBRANCH  19  20
ENDBRANCH  15  19
ENDBRANCH   2  15
TORSDOF 9
ENDMDL
MODEL 4
REMARK VINA RESULT:      -6.7      2.554      4.643
REMARK  Name = 
REMARK  10 active torsions:
REMARK  status: ('A' for Active; 'I' for Inactive)
REMARK    1  A    between atoms: C_1  and  C_2
REMARK    2  A    between atoms: C_2  and  C_3
REMARK    3  A    between atoms: C_2  and  N_11
REMARK    4  A    between atoms: C_3  and  O_4
REMARK    5  A    between atoms: O_4  and  C_5
REMARK    6  A    between atoms: C_12  and  C_14
REMARK    7  A    between atoms: C_14  and  N_15
REMARK    8  A    between atoms: C_14  and  C_16
REMARK    9  A    between atoms: C_16  and  C_17
REMARK   10  A    between atoms: C_17  and  O_19
REMARK                            x       y       z     vdW  Elec       q    Type
REMARK                         _______ _______ _______ _____ _____    ______ ____
ROOT
ATOM      1  N   UNL     1       5.144   3.691  17.540  0.00  0.00    +0.000 N 
ATOM      2  C   UNL     1       5.662   4.299  16.418  0.00  0.00    +0.000 C 
ATOM      3  O   UNL     1       5.138   4.261  15.309  0.00  0.00    +0.000 OA
ATOM      4  H   UNL     1       5.443   4.105  18.421  0.00  0.00    +0.000 HD
ENDROOT
BRANCH   1   6
ATOM      5  C   UNL     1       3.926   1.855  18.586  0.00  0.00    +0.000 C 
ATOM      6  C   UNL     1       3.903   2.929  17.499  0.00  0.00    +0.000 C 
BRANCH   6   7
ATOM      7  C   UNL     1       2.679   3.850  17.646  0.00  0.00    +0.000 C 
BRANCH   7   8
ATOM      8  O   UNL     1       2.533   4.263  19.007  0.00  0.00    +0.000 OA
BRANCH   8   9
ATOM      9  C   UNL     1       2.327   5.606  19.187  0.00  0.00    +0.000 A 
ATOM     10  C   UNL     1       2.533   6.405  18.060  0.00  0.00    +0.000 A 
ATOM     11  C   UNL     1       2.350   7.788  18.132  0.00  0.00    +0.000 A 
ATOM     12  C   UNL     1       1.942   8.374  19.329  0.00  0.00    +0.000 A 
ATOM     13  C   UNL     1       1.712   7.579  20.448  0.00  0.00    +0.000 A 
ATOM     14  C   UNL     1       1.902   6.197  20.377  0.00  0.00    +0.000 A 
ENDBRANCH   8   9
ENDBRANCH   7   8
ENDBRANCH   6   7
ENDBRANCH   1   6
BRANCH   2  15
ATOM     15  C   UNL     1       6.964   5.080  16.694  0.00  0.00    +0.000 C 
BRANCH  15  16
ATOM     16  N   UNL     1       7.947   4.121  17.257  0.00  0.00    +0.000 NA
ATOM     17  H   UNL     1       8.861   4.301  16.835  0.00  0.00    +0.000 HD
ATOM     18  H   UNL     1       7.699   3.175  16.961  0.00  0.00    +0.000 HD
ENDBRANCH  15  16
BRANCH  15  19
ATOM     19  C   UNL     1       6.720   6.241  17.653  0.00  0.00    +0.000 C 
BRANCH  19  20
ATOM     20  C   UNL     1       7.345   5.999  19.005  0.00  0.00    +0.000 C 
ATOM     21  O   UNL     1       6.857   5.261  19.848  0.00  0.00    +0.000 OA
BRANCH  20  22
ATOM     22  O   UNL     1       8.493   6.677  19.216  0.00  0.00    +0.000 OA
ATOM     23  H   UNL     1       9.246   6.097  19.483  0.00  0.00    +0.000 HD
ENDBRANCH  20  22
ENDBRANCH  19  20
ENDBRANCH  15  19
ENDBRANCH   2  15
TORSDOF 9
ENDMDL
MODEL 5
REMARK VINA RESULT:      -6.7      2.710      7.153
REMARK  Name = 
REMARK  10 active torsions:
REMARK  status: ('A' for Active; 'I' for Inactive)
REMARK    1  A    between atoms: C_1  and  C_2
REMARK    2  A    between atoms: C_2  and  C_3
REMARK    3  A    between atoms: C_2  and  N_11
REMARK    4  A    between atoms: C_3  and  O_4
REMARK    5  A    between atoms: O_4  and  C_5
REMARK    6  A    between atoms: C_12  and  C_14
REMARK    7  A    between atoms: C_14  and  N_15
REMARK    8  A    between atoms: C_14  and  C_16
REMARK    9  A    between atoms: C_16  and  C_17
REMARK   10  A    between atoms: C_17  and  O_19
REMARK                            x       y       z     vdW  Elec       q    Type
REMARK                         _______ _______ _______ _____ _____    ______ ____
ROOT
ATOM      1  N   UNL     1       5.750   4.498  18.940  0.00  0.00    +0.000 N 
ATOM      2  C   UNL     1       4.461   4.851  19.270  0.00  0.00    +0.000 C 
ATOM      3  O   UNL     1       3.915   5.888  18.907  0.00  0.00    +0.000 OA
ATOM      4  H   UNL     1       5.935   3.497  18.969  0.00  0.00    +0.000 HD
ENDROOT
BRANCH   1   6
ATOM      5  C   UNL     1       7.695   5.969  18.980  0.00  0.00    +0.000 C 
ATOM      6  C   UNL     1       6.595   5.353  18.116  0.00  0.00    +0.000 C 
BRANCH   6   7
ATOM      7  C   UNL     1       7.184   4.574  16.928  0.00  0.00    +0.000 C 
BRANCH   7   8
ATOM      8  O   UNL     1       7.369   5.447  15.810  0.00  0.00    +0.000 OA
BRANCH   8   9
ATOM      9  C   UNL     1       7.052   4.905  14.592  0.00  0.00    +0.000 A 
ATOM     10  C   UNL     1       7.796   5.377  13.509  0.00  0.00    +0.000 A 
ATOM     11  C   UNL     1       7.555   4.891  12.221  0.00  0.00    +0.000 A 
ATOM     12  C   UNL     1       6.580   3.916  12.017  0.00  0.00    +0.000 A 
ATOM     13  C   UNL     1       5.853   3.425  13.098  0.00  0.00    +0.000 A 
ATOM     14  C   UNL     1       6.090   3.916  14.383  0.00  0.00    +0.000 A 
ENDBRANCH   8   9
ENDBRANCH   7   8
ENDBRANCH   6   7
ENDBRANCH   1   6
BRANCH   2  15
ATOM     15  C   UNL     1       3.736   3.787  20.121  0.00  0.00    +0.000 C 
BRANCH  15  16
ATOM     16  N   UNL     1       3.472   2.620  19.242  0.00  0.00    +0.000 NA
ATOM     17  H   UNL     1       3.611   2.903  18.269  0.00  0.00    +0.000 HD
ATOM     18  H   UNL     1       2.485   2.367  19.308  0.00  0.00    +0.000 HD
ENDBRANCH  15  16
BRANCH  15  19
ATOM     19  C   UNL     1       2.439   4.335  20.707  0.00  0.00    +0.000 C 
BRANCH  19  20
ATOM     20  C   UNL     1       1.476   3.234  21.080  0.00  0.00    +0.000 C 
ATOM     21  O   UNL     1       1.648   2.485  22.029  0.00  0.00    +0.000 OA
BRANCH  20  22
ATOM     22  O   UNL     1       0.403   3.135  20.266  0.00  0.00    +0.000 OA
ATOM     23  H   UNL     1       0.174   2.202  20.035  0.00  0.00    +0.000 HD
ENDBRANCH  20  22
ENDBRANCH  19  20
ENDBRANCH  15  19
ENDBRANCH   2  15
TORSDOF 9
ENDMDL
MODEL 6
REMARK VINA RESULT:      -6.6      0.229      1.129
REMARK  Name = 
REMARK  10 active torsions:
REMARK  status: ('A' for Active; 'I' for Inactive)
REMARK    1  A    between atoms: C_1  and  C_2
REMARK    2  A    between atoms: C_2  and  C_3
REMARK    3  A    between atoms: C_2  and  N_11
REMARK    4  A    between atoms: C_3  and  O_4
REMARK    5  A    between atoms: O_4  and  C_5
REMARK    6  A    between atoms: C_12  and  C_14
REMARK    7  A    between atoms: C_14  and  N_15
REMARK    8  A    between atoms: C_14  and  C_16
REMARK    9  A    between atoms: C_16  and  C_17
REMARK   10  A    between atoms: C_17  and  O_19
REMARK                            x       y       z     vdW  Elec       q    Type
REMARK                         _______ _______ _______ _____ _____    ______ ____
ROOT
ATOM      1  N   UNL     1       5.821   5.482  15.912  0.00  0.00    +0.000 N 
ATOM      2  C   UNL     1       6.908   4.698  15.595  0.00  0.00    +0.000 C 
ATOM      3  O   UNL     1       7.804   4.410  16.382  0.00  0.00    +0.000 OA
ATOM      4  H   UNL     1       5.002   5.326  15.328  0.00  0.00    +0.000 HD
ENDROOT
BRANCH   1   6
ATOM      5  C   UNL     1       6.491   7.320  17.370  0.00  0.00    +0.000 C 
ATOM      6  C   UNL     1       5.646   6.053  17.242  0.00  0.00    +0.000 C 
BRANCH   6   7
ATOM      7  C   UNL     1       4.163   6.335  17.536  0.00  0.00    +0.000 C 
BRANCH   7   8
ATOM      8  O   UNL     1       3.398   5.132  17.415  0.00  0.00    +0.000 OA
BRANCH   8   9
ATOM      9  C   UNL     1       2.624   4.825  18.503  0.00  0.00    +0.000 A 
ATOM     10  C   UNL     1       1.903   3.633  18.414  0.00  0.00    +0.000 A 
ATOM     11  C   UNL     1       1.084   3.223  19.468  0.00  0.00    +0.000 A 
ATOM     12  C   UNL     1       0.996   3.998  20.624  0.00  0.00    +0.000 A 
ATOM     13  C   UNL     1       1.733   5.175  20.727  0.00  0.00    +0.000 A 
ATOM     14  C   UNL     1       2.547   5.587  19.670  0.00  0.00    +0.000 A 
ENDBRANCH   8   9
ENDBRANCH   7   8
ENDBRANCH   6   7
ENDBRANCH   1   6
BRANCH   2  15
ATOM     15  C   UNL     1       6.877   4.172  14.145  0.00  0.00    +0.000 C 
BRANCH  15  16
ATOM     16  N   UNL     1       7.607   5.150  13.301  0.00  0.00    +0.000 NA
ATOM     17  H   UNL     1       8.246   5.684  13.894  0.00  0.00    +0.000 HD
ATOM     18  H   UNL     1       6.945   5.838  12.937  0.00  0.00    +0.000 HD
ENDBRANCH  15  16
BRANCH  15  19
ATOM     19  C   UNL     1       5.444   3.986  13.654  0.00  0.00    +0.000 C 
BRANCH  19  20
ATOM     20  C   UNL     1       5.388   3.256  12.334  0.00  0.00    +0.000 C 
ATOM     21  O   UNL     1       4.394   3.225  11.626  0.00  0.00    +0.000 OA
BRANCH  20  22
ATOM     22  O   UNL     1       6.533   2.624  12.000  0.00  0.00    +0.000 OA
ATOM     23  H   UNL     1       7.341   3.171  12.157  0.00  0.00    +0.000 HD
ENDBRANCH  20  22
ENDBRANCH  19  20
ENDBRANCH  15  19
ENDBRANCH   2  15
TORSDOF 9
ENDMDL
MODEL 7
REMARK VINA RESULT:      -6.6      2.689      6.942
REMARK  Name = 
REMARK  10 active torsions:
REMARK  status: ('A' for Active; 'I' for Inactive)
REMARK    1  A    between atoms: C_1  and  C_2
REMARK    2  A    between atoms: C_2  and  C_3
REMARK    3  A    between atoms: C_2  and  N_11
REMARK    4  A    between atoms: C_3  and  O_4
REMARK    5  A    between atoms: O_4  and  C_5
REMARK    6  A    between atoms: C_12  and  C_14
REMARK    7  A    between atoms: C_14  and  N_15
REMARK    8  A    between atoms: C_14  and  C_16
REMARK    9  A    between atoms: C_16  and  C_17
REMARK   10  A    between atoms: C_17  and  O_19
REMARK                            x       y       z     vdW  Elec       q    Type
REMARK                         _______ _______ _______ _____ _____    ______ ____
ROOT
ATOM      1  N   UNL     1       5.934   4.037  18.794  0.00  0.00    +0.000 N 
ATOM      2  C   UNL     1       4.591   3.847  18.559  0.00  0.00    +0.000 C 
ATOM      3  O   UNL     1       3.912   4.556  17.824  0.00  0.00    +0.000 OA
ATOM      4  H   UNL     1       6.436   3.201  19.087  0.00  0.00    +0.000 HD
ENDROOT
BRANCH   1   6
ATOM      5  C   UNL     1       7.775   5.603  19.130  0.00  0.00    +0.000 C 
ATOM      6  C   UNL     1       6.677   5.130  18.178  0.00  0.00    +0.000 C 
BRANCH   6   7
ATOM      7  C   UNL     1       7.256   4.711  16.816  0.00  0.00    +0.000 C 
BRANCH   7   8
ATOM      8  O   UNL     1       6.705   5.523  15.775  0.00  0.00    +0.000 OA
BRANCH   8   9
ATOM      9  C   UNL     1       6.707   4.950  14.530  0.00  0.00    +0.000 A 
ATOM     10  C   UNL     1       5.638   4.094  14.258  0.00  0.00    +0.000 A 
ATOM     11  C   UNL     1       5.541   3.459  13.018  0.00  0.00    +0.000 A 
ATOM     12  C   UNL     1       6.505   3.692  12.039  0.00  0.00    +0.000 A 
ATOM     13  C   UNL     1       7.559   4.564  12.297  0.00  0.00    +0.000 A 
ATOM     14  C   UNL     1       7.659   5.194  13.540  0.00  0.00    +0.000 A 
ENDBRANCH   8   9
ENDBRANCH   7   8
ENDBRANCH   6   7
ENDBRANCH   1   6
BRANCH   2  15
ATOM     15  C   UNL     1       4.014   2.613  19.285  0.00  0.00    +0.000 C 
BRANCH  15  16
ATOM     16  N   UNL     1       4.131   1.459  18.359  0.00  0.00    +0.000 NA
ATOM     17  H   UNL     1       4.571   0.681  18.857  0.00  0.00    +0.000 HD
ATOM     18  H   UNL     1       4.781   1.696  17.608  0.00  0.00    +0.000 HD
ENDBRANCH  15  16
BRANCH  15  19
ATOM     19  C   UNL     1       2.563   2.842  19.696  0.00  0.00    +0.000 C 
BRANCH  19  20
ATOM     20  C   UNL     1       2.456   3.528  21.037  0.00  0.00    +0.000 C 
ATOM     21  O   UNL     1       2.293   4.731  21.163  0.00  0.00    +0.000 OA
BRANCH  20  22
ATOM     22  O   UNL     1       2.568   2.698  22.095  0.00  0.00    +0.000 OA
ATOM     23  H   UNL     1       3.489   2.375  22.243  0.00  0.00    +0.000 HD
ENDBRANCH  20  22
ENDBRANCH  19  20
ENDBRANCH  15  19
ENDBRANCH   2  15
TORSDOF 9
ENDMDL
MODEL 8
REMARK VINA RESULT:      -6.6      1.299      1.869
REMARK  Name = 
REMARK  10 active torsions:
REMARK  status: ('A' for Active; 'I' for Inactive)
REMARK    1  A    between atoms: C_1  and  C_2
REMARK    2  A    between atoms: C_2  and  C_3
REMARK    3  A    between atoms: C_2  and  N_11
REMARK    4  A    between atoms: C_3  and  O_4
REMARK    5  A    between atoms: O_4  and  C_5
REMARK    6  A    between atoms: C_12  and  C_14
REMARK    7  A    between atoms: C_14  and  N_15
REMARK    8  A    between atoms: C_14  and  C_16
REMARK    9  A    between atoms: C_16  and  C_17
REMARK   10  A    between atoms: C_17  and  O_19
REMARK                            x       y       z     vdW  Elec       q    Type
REMARK                         _______ _______ _______ _____ _____    ______ ____
ROOT
ATOM      1  N   UNL     1       5.613   5.197  16.666  0.00  0.00    +0.000 N 
ATOM      2  C   UNL     1       6.815   5.569  16.107  0.00  0.00    +0.000 C 
ATOM      3  O   UNL     1       7.537   6.456  16.551  0.00  0.00    +0.000 OA
ATOM      4  H   UNL     1       5.323   4.245  16.452  0.00  0.00    +0.000 HD
ENDROOT
BRANCH   1   6
ATOM      5  C   UNL     1       3.656   6.322  17.592  0.00  0.00    +0.000 C 
ATOM      6  C   UNL     1       5.085   5.847  17.859  0.00  0.00    +0.000 C 
BRANCH   6   7
ATOM      7  C   UNL     1       5.147   4.912  19.078  0.00  0.00    +0.000 C 
BRANCH   7   8
ATOM      8  O   UNL     1       4.581   3.639  18.752  0.00  0.00    +0.000 OA
BRANCH   8   9
ATOM      9  C   UNL     1       3.289   3.454  19.170  0.00  0.00    +0.000 A 
ATOM     10  C   UNL     1       2.469   2.738  18.297  0.00  0.00    +0.000 A 
ATOM     11  C   UNL     1       1.134   2.491  18.625  0.00  0.00    +0.000 A 
ATOM     12  C   UNL     1       0.620   2.945  19.839  0.00  0.00    +0.000 A 
ATOM     13  C   UNL     1       1.441   3.639  20.723  0.00  0.00    +0.000 A 
ATOM     14  C   UNL     1       2.774   3.891  20.391  0.00  0.00    +0.000 A 
ENDBRANCH   8   9
ENDBRANCH   7   8
ENDBRANCH   6   7
ENDBRANCH   1   6
BRANCH   2  15
ATOM     15  C   UNL     1       7.199   4.728  14.871  0.00  0.00    +0.000 C 
BRANCH  15  16
ATOM     16  N   UNL     1       8.102   5.555  14.033  0.00  0.00    +0.000 NA
ATOM     17  H   UNL     1       7.826   5.454  13.054  0.00  0.00    +0.000 HD
ATOM     18  H   UNL     1       9.049   5.175  14.084  0.00  0.00    +0.000 HD
ENDBRANCH  15  16
BRANCH  15  19
ATOM     19  C   UNL     1       5.962   4.300  14.087  0.00  0.00    +0.000 C 
BRANCH  19  20
ATOM     20  C   UNL     1       6.322   3.650  12.773  0.00  0.00    +0.000 C 
ATOM     21  O   UNL     1       7.013   4.192  11.924  0.00  0.00    +0.000 OA
BRANCH  20  22
ATOM     22  O   UNL     1       5.804   2.415  12.605  0.00  0.00    +0.000 OA
ATOM     23  H   UNL     1       4.859   2.347  12.883  0.00  0.00    +0.000 HD
ENDBRANCH  20  22
ENDBRANCH  19  20
ENDBRANCH  15  19
ENDBRANCH   2  15
TORSDOF 9
ENDMDL
MODEL 9
REMARK VINA RESULT:      -6.5      0.993      1.169
REMARK  Name = 
REMARK  10 active torsions:
REMARK  status: ('A' for Active; 'I' for Inactive)
REMARK    1  A    between atoms: C_1  and  C_2
REMARK    2  A    between atoms: C_2  and  C_3
REMARK    3  A    between atoms: C_2  and  N_11
REMARK    4  A    between atoms: C_3  and  O_4
REMARK    5  A    between atoms: O_4  and  C_5
REMARK    6  A    between atoms: C_12  and  C_14
REMARK    7  A    between atoms: C_14  and  N_15
REMARK    8  A    between atoms: C_14  and  C_16
REMARK    9  A    between atoms: C_16  and  C_17
REMARK   10  A    between atoms: C_17  and  O_19
REMARK                            x       y       z     vdW  Elec       q    Type
REMARK                         _______ _______ _______ _____ _____    ______ ____
ROOT
ATOM      1  N   UNL     1       5.819   5.437  16.159  0.00  0.00    +0.000 N 
ATOM      2  C   UNL     1       6.997   4.803  15.832  0.00  0.00    +0.000 C 
ATOM      3  O   UNL     1       7.891   4.553  16.633  0.00  0.00    +0.000 OA
ATOM      4  H   UNL     1       5.043   5.240  15.530  0.00  0.00    +0.000 HD
ENDROOT
BRANCH   1   6
ATOM      5  C   UNL     1       4.363   6.860  17.503  0.00  0.00    +0.000 C 
ATOM      6  C   UNL     1       5.536   5.881  17.518  0.00  0.00    +0.000 C 
BRANCH   6   7
ATOM      7  C   UNL     1       5.258   4.687  18.447  0.00  0.00    +0.000 C 
BRANCH   7   8
ATOM      8  O   UNL     1       4.395   5.084  19.516  0.00  0.00    +0.000 OA
BRANCH   8   9
ATOM      9  C   UNL     1       3.279   4.307  19.681  0.00  0.00    +0.000 A 
ATOM     10  C   UNL     1       2.182   4.941  20.268  0.00  0.00    +0.000 A 
ATOM     11  C   UNL     1       0.992   4.240  20.481  0.00  0.00    +0.000 A 
ATOM     12  C   UNL     1       0.891   2.906  20.090  0.00  0.00    +0.000 A 
ATOM     13  C   UNL     1       1.974   2.277  19.482  0.00  0.00    +0.000 A 
ATOM     14  C   UNL     1       3.165   2.976  19.275  0.00  0.00    +0.000 A 
ENDBRANCH   8   9
ENDBRANCH   7   8
ENDBRANCH   6   7
ENDBRANCH   1   6
BRANCH   2  15
ATOM     15  C   UNL     1       7.074   4.389  14.347  0.00  0.00    +0.000 C 
BRANCH  15  16
ATOM     16  N   UNL     1       7.744   5.492  13.614  0.00  0.00    +0.000 NA
ATOM     17  H   UNL     1       8.113   6.162  14.292  0.00  0.00    +0.000 HD
ATOM     18  H   UNL     1       7.046   6.012  13.079  0.00  0.00    +0.000 HD
ENDBRANCH  15  16
BRANCH  15  19
ATOM     19  C   UNL     1       5.686   4.116  13.776  0.00  0.00    +0.000 C 
BRANCH  19  20
ATOM     20  C   UNL     1       5.752   3.488  12.404  0.00  0.00    +0.000 C 
ATOM     21  O   UNL     1       4.764   3.133  11.780  0.00  0.00    +0.000 OA
BRANCH  20  22
ATOM     22  O   UNL     1       7.004   3.339  11.922  0.00  0.00    +0.000 OA
ATOM     23  H   UNL     1       7.031   3.178  10.948  0.00  0.00    +0.000 HD
ENDBRANCH  20  22
ENDBRANCH  19  20
ENDBRANCH  15  19
ENDBRANCH   2  15
TORSDOF 9
ENDMDL
