MODEL 1
REMARK VINA RESULT:      -7.6      0.000      0.000
REMARK  Name = 
REMARK  10 active torsions:
REMARK  status: ('A' for Active; 'I' for Inactive)
REMARK    1  A    between atoms: C_1  and  N_2
REMARK    2  A    between atoms: N_2  and  C_3
REMARK    3  A    between atoms: N_2  and  S_4
REMARK    4  A    between atoms: S_4  and  C_7
REMARK    5  A    between atoms: C_10  and  N_11
REMARK    6  A    between atoms: C_16  and  C_17
REMARK    7  A    between atoms: N_19  and  N_20
REMARK    8  A    between atoms: C_21  and  C_23
REMARK    9  A    between atoms: C_23  and  O_24
REMARK   10  A    between atoms: O_24  and  C_25
REMARK                            x       y       z     vdW  Elec       q    Type
REMARK                         _______ _______ _______ _____ _____    ______ ____
ROOT
ATOM      1  C   UNL     1       1.549  13.177  19.879  0.00  0.00    +0.000 A 
ATOM      2  C   UNL     1       0.619  13.684  18.993  0.00  0.00    +0.000 A 
ATOM      3  C   UNL     1      -0.415  12.865  18.542  0.00  0.00    +0.000 A 
ATOM      4  C   UNL     1      -0.572  11.501  18.905  0.00  0.00    +0.000 A 
ATOM      5  C   UNL     1       0.392  11.025  19.839  0.00  0.00    +0.000 A 
ATOM      6  C   UNL     1       1.422  11.867  20.334  0.00  0.00    +0.000 A 
ENDROOT
BRANCH   4   7
ATOM      7  N   UNL     1      -1.637  10.785  18.350  0.00  0.00    +0.000 N 
ATOM      8  C   UNL     1      -1.536   9.799  17.258  0.00  0.00    +0.000 C 
ATOM      9  C   UNL     1      -2.681  10.138  16.313  0.00  0.00    +0.000 C 
ATOM     10  C   UNL     1      -3.768  10.617  17.251  0.00  0.00    +0.000 C 
ATOM     11  C   UNL     1      -2.992  11.388  18.309  0.00  0.00    +0.000 C 
ENDBRANCH   4   7
BRANCH   5  12
ATOM     12  C   UNL     1       0.448   9.660  20.426  0.00  0.00    +0.000 C 
ATOM     13  O   UNL     1      -0.325   9.322  21.317  0.00  0.00    +0.000 OA
ATOM     14  N   UNL     1       1.383   8.811  19.874  0.00  0.00    +0.000 N 
ATOM     15  H   UNL     1       2.093   9.211  19.264  0.00  0.00    +0.000 HD
BRANCH  14  16
ATOM     16  N   UNL     1       1.643   7.600  20.529  0.00  0.00    +0.000 N 
ATOM     17  C   UNL     1       2.174   6.499  19.896  0.00  0.00    +0.000 C 
ATOM     18  O   UNL     1       2.255   5.416  20.475  0.00  0.00    +0.000 OA
ATOM     19  H   UNL     1       1.238   7.477  21.458  0.00  0.00    +0.000 HD
BRANCH  17  20
ATOM     20  C   UNL     1       2.687   6.699  18.473  0.00  0.00    +0.000 C 
BRANCH  20  21
ATOM     21  O   UNL     1       3.558   5.605  18.178  0.00  0.00    +0.000 OA
BRANCH  21  22
ATOM     22  C   UNL     1       4.902   5.855  18.115  0.00  0.00    +0.000 A 
ATOM     23  C   UNL     1       5.630   5.360  19.206  0.00  0.00    +0.000 A 
ATOM     24  C   UNL     1       7.007   5.575  19.291  0.00  0.00    +0.000 A 
ATOM     25  C   UNL     1       7.674   6.286  18.300  0.00  0.00    +0.000 A 
ATOM     26  C   UNL     1       6.962   6.767  17.203  0.00  0.00    +0.000 A 
ATOM     27  C   UNL     1       5.587   6.548  17.115  0.00  0.00    +0.000 A 
ATOM     28  F   UNL     1       4.953   7.040  16.040  0.00  0.00    +0.000 F 
ENDBRANCH  21  22
ENDBRANCH  20  21
ENDBRANCH  17  20
ENDBRANCH  14  16
ENDBRANCH   5  12
BRANCH   1  29
ATOM     29  S   UNL     1       2.877  14.226  20.426  0.00  0.00    +0.000 S 
ATOM     30  O   UNL     1       3.735  14.471  19.288  0.00  0.00    +0.000 OA
ATOM     31  O   UNL     1       3.398  13.654  21.650  0.00  0.00    +0.000 OA
BRANCH  29  33
ATOM     32  C   UNL     1       1.392  15.690  22.139  0.00  0.00    +0.000 C 
ATOM     33  N   UNL     1       2.056  15.667  20.827  0.00  0.00    +0.000 NA
ATOM     34  C   UNL     1       2.752  16.927  20.500  0.00  0.00    +0.000 C 
ENDBRANCH  29  33
ENDBRANCH   1  29
TORSDOF 8
ENDMDL
MODEL 2
REMARK VINA RESULT:      -7.4      0.922      1.257
REMARK  Name = 
REMARK  10 active torsions:
REMARK  status: ('A' for Active; 'I' for Inactive)
REMARK    1  A    between atoms: C_1  and  N_2
REMARK    2  A    between atoms: N_2  and  C_3
REMARK    3  A    between atoms: N_2  and  S_4
REMARK    4  A    between atoms: S_4  and  C_7
REMARK    5  A    between atoms: C_10  and  N_11
REMARK    6  A    between atoms: C_16  and  C_17
REMARK    7  A    between atoms: N_19  and  N_20
REMARK    8  A    between atoms: C_21  and  C_23
REMARK    9  A    between atoms: C_23  and  O_24
REMARK   10  A    between atoms: O_24  and  C_25
REMARK                            x       y       z     vdW  Elec       q    Type
REMARK                         _______ _______ _______ _____ _____    ______ ____
ROOT
ATOM      1  C   UNL     1       1.221  13.337  20.105  0.00  0.00    +0.000 A 
ATOM      2  C   UNL     1       0.295  13.807  19.194  0.00  0.00    +0.000 A 
ATOM      3  C   UNL     1      -0.667  12.935  18.683  0.00  0.00    +0.000 A 
ATOM      4  C   UNL     1      -0.749  11.555  19.009  0.00  0.00    +0.000 A 
ATOM      5  C   UNL     1       0.208  11.118  19.969  0.00  0.00    +0.000 A 
ATOM      6  C   UNL     1       1.161  12.011  20.525  0.00  0.00    +0.000 A 
ENDROOT
BRANCH   4   7
ATOM      7  N   UNL     1      -1.744  10.788  18.395  0.00  0.00    +0.000 N 
ATOM      8  C   UNL     1      -1.537   9.838  17.286  0.00  0.00    +0.000 C 
ATOM      9  C   UNL     1      -2.664  10.127  16.304  0.00  0.00    +0.000 C 
ATOM     10  C   UNL     1      -3.815  10.513  17.208  0.00  0.00    +0.000 C 
ATOM     11  C   UNL     1      -3.131  11.305  18.314  0.00  0.00    +0.000 C 
ENDBRANCH   4   7
BRANCH   5  12
ATOM     12  C   UNL     1       0.329   9.745  20.527  0.00  0.00    +0.000 C 
ATOM     13  O   UNL     1      -0.452   9.338  21.382  0.00  0.00    +0.000 OA
ATOM     14  N   UNL     1       1.333   8.969  19.989  0.00  0.00    +0.000 N 
ATOM     15  H   UNL     1       2.036   9.428  19.414  0.00  0.00    +0.000 HD
BRANCH  14  16
ATOM     16  N   UNL     1       1.646   7.760  20.624  0.00  0.00    +0.000 N 
ATOM     17  C   UNL     1       2.204   6.686  19.970  0.00  0.00    +0.000 C 
ATOM     18  O   UNL     1       2.332   5.600  20.534  0.00  0.00    +0.000 OA
ATOM     19  H   UNL     1       1.261   7.613  21.559  0.00  0.00    +0.000 HD
BRANCH  17  20
ATOM     20  C   UNL     1       2.686   6.920  18.541  0.00  0.00    +0.000 C 
BRANCH  20  21
ATOM     21  O   UNL     1       3.457   5.779  18.161  0.00  0.00    +0.000 OA
BRANCH  21  22
ATOM     22  C   UNL     1       4.816   5.919  18.087  0.00  0.00    +0.000 A 
ATOM     23  C   UNL     1       5.510   5.372  19.174  0.00  0.00    +0.000 A 
ATOM     24  C   UNL     1       6.901   5.476  19.248  0.00  0.00    +0.000 A 
ATOM     25  C   UNL     1       7.616   6.127  18.249  0.00  0.00    +0.000 A 
ATOM     26  C   UNL     1       6.936   6.660  17.155  0.00  0.00    +0.000 A 
ATOM     27  C   UNL     1       5.546   6.552  17.078  0.00  0.00    +0.000 A 
ATOM     28  F   UNL     1       4.946   7.088  16.006  0.00  0.00    +0.000 F 
ENDBRANCH  21  22
ENDBRANCH  20  21
ENDBRANCH  17  20
ENDBRANCH  14  16
ENDBRANCH   5  12
BRANCH   1  29
ATOM     29  S   UNL     1       2.457  14.454  20.729  0.00  0.00    +0.000 S 
ATOM     30  O   UNL     1       3.328  13.698  21.600  0.00  0.00    +0.000 OA
ATOM     31  O   UNL     1       1.766  15.637  21.199  0.00  0.00    +0.000 OA
BRANCH  29  33
ATOM     32  C   UNL     1       4.485  15.739  19.497  0.00  0.00    +0.000 C 
ATOM     33  N   UNL     1       3.311  14.874  19.313  0.00  0.00    +0.000 NA
ATOM     34  C   UNL     1       3.530  13.788  18.337  0.00  0.00    +0.000 C 
ENDBRANCH  29  33
ENDBRANCH   1  29
TORSDOF 8
ENDMDL
MODEL 3
REMARK VINA RESULT:      -7.4      3.884      8.940
REMARK  Name = 
REMARK  10 active torsions:
REMARK  status: ('A' for Active; 'I' for Inactive)
REMARK    1  A    between atoms: C_1  and  N_2
REMARK    2  A    between atoms: N_2  and  C_3
REMARK    3  A    between atoms: N_2  and  S_4
REMARK    4  A    between atoms: S_4  and  C_7
REMARK    5  A    between atoms: C_10  and  N_11
REMARK    6  A    between atoms: C_16  and  C_17
REMARK    7  A    between atoms: N_19  and  N_20
REMARK    8  A    between atoms: C_21  and  C_23
REMARK    9  A    between atoms: C_23  and  O_24
REMARK   10  A    between atoms: O_24  and  C_25
REMARK                            x       y       z     vdW  Elec       q    Type
REMARK                         _______ _______ _______ _____ _____    ______ ____
ROOT
ATOM      1  C   UNL     1       4.726   5.104  16.708  0.00  0.00    +0.000 A 
ATOM      2  C   UNL     1       4.522   3.742  16.592  0.00  0.00    +0.000 A 
ATOM      3  C   UNL     1       3.739   3.084  17.540  0.00  0.00    +0.000 A 
ATOM      4  C   UNL     1       3.148   3.715  18.667  0.00  0.00    +0.000 A 
ATOM      5  C   UNL     1       3.362   5.121  18.735  0.00  0.00    +0.000 A 
ATOM      6  C   UNL     1       4.122   5.804  17.748  0.00  0.00    +0.000 A 
ENDROOT
BRANCH   4   7
ATOM      7  N   UNL     1       2.415   2.926  19.559  0.00  0.00    +0.000 N 
ATOM      8  C   UNL     1       0.955   2.980  19.756  0.00  0.00    +0.000 C 
ATOM      9  C   UNL     1       0.760   2.964  21.266  0.00  0.00    +0.000 C 
ATOM     10  C   UNL     1       1.893   2.083  21.748  0.00  0.00    +0.000 C 
ATOM     11  C   UNL     1       3.040   2.463  20.821  0.00  0.00    +0.000 C 
ENDBRANCH   4   7
BRANCH   5  12
ATOM     12  C   UNL     1       2.829   6.042  19.774  0.00  0.00    +0.000 C 
ATOM     13  O   UNL     1       2.862   5.742  20.963  0.00  0.00    +0.000 OA
ATOM     14  N   UNL     1       2.348   7.248  19.311  0.00  0.00    +0.000 N 
ATOM     15  H   UNL     1       2.200   7.353  18.310  0.00  0.00    +0.000 HD
BRANCH  14  16
ATOM     16  N   UNL     1       1.628   8.056  20.201  0.00  0.00    +0.000 N 
ATOM     17  C   UNL     1       1.016   9.232  19.826  0.00  0.00    +0.000 C 
ATOM     18  O   UNL     1       0.515   9.977  20.667  0.00  0.00    +0.000 OA
ATOM     19  H   UNL     1       1.734   7.861  21.198  0.00  0.00    +0.000 HD
BRANCH  17  20
ATOM     20  C   UNL     1       0.957   9.536  18.332  0.00  0.00    +0.000 C 
BRANCH  20  21
ATOM     21  O   UNL     1       0.314  10.803  18.183  0.00  0.00    +0.000 OA
BRANCH  21  22
ATOM     22  C   UNL     1      -1.052  10.822  18.086  0.00  0.00    +0.000 A 
ATOM     23  C   UNL     1      -1.579   9.858  17.216  0.00  0.00    +0.000 A 
ATOM     24  C   UNL     1      -2.956   9.788  16.992  0.00  0.00    +0.000 A 
ATOM     25  C   UNL     1      -3.821  10.674  17.623  0.00  0.00    +0.000 A 
ATOM     26  C   UNL     1      -3.308  11.626  18.503  0.00  0.00    +0.000 A 
ATOM     27  C   UNL     1      -1.932  11.693  18.731  0.00  0.00    +0.000 A 
ATOM     28  F   UNL     1      -1.495  12.632  19.583  0.00  0.00    +0.000 F 
ENDBRANCH  21  22
ENDBRANCH  20  21
ENDBRANCH  17  20
ENDBRANCH  14  16
ENDBRANCH   5  12
BRANCH   1  29
ATOM     29  S   UNL     1       5.747   5.925  15.505  0.00  0.00    +0.000 S 
ATOM     30  O   UNL     1       5.177   7.233  15.270  0.00  0.00    +0.000 OA
ATOM     31  O   UNL     1       5.963   4.993  14.419  0.00  0.00    +0.000 OA
BRANCH  29  33
ATOM     32  C   UNL     1       7.429   7.391  17.024  0.00  0.00    +0.000 C 
ATOM     33  N   UNL     1       7.222   6.103  16.345  0.00  0.00    +0.000 NA
ATOM     34  C   UNL     1       7.662   4.942  17.144  0.00  0.00    +0.000 C 
ENDBRANCH  29  33
ENDBRANCH   1  29
TORSDOF 8
ENDMDL
MODEL 4
REMARK VINA RESULT:      -7.4      1.228      1.643
REMARK  Name = 
REMARK  10 active torsions:
REMARK  status: ('A' for Active; 'I' for Inactive)
REMARK    1  A    between atoms: C_1  and  N_2
REMARK    2  A    between atoms: N_2  and  C_3
REMARK    3  A    between atoms: N_2  and  S_4
REMARK    4  A    between atoms: S_4  and  C_7
REMARK    5  A    between atoms: C_10  and  N_11
REMARK    6  A    between atoms: C_16  and  C_17
REMARK    7  A    between atoms: N_19  and  N_20
REMARK    8  A    between atoms: C_21  and  C_23
REMARK    9  A    between atoms: C_23  and  O_24
REMARK   10  A    between atoms: O_24  and  C_25
REMARK                            x       y       z     vdW  Elec       q    Type
REMARK                         _______ _______ _______ _____ _____    ______ ____
ROOT
ATOM      1  C   UNL     1       1.284  13.342  20.032  0.00  0.00    +0.000 A 
ATOM      2  C   UNL     1       0.344  13.796  19.126  0.00  0.00    +0.000 A 
ATOM      3  C   UNL     1      -0.605  12.907  18.622  0.00  0.00    +0.000 A 
ATOM      4  C   UNL     1      -0.660  11.525  18.947  0.00  0.00    +0.000 A 
ATOM      5  C   UNL     1       0.310  11.106  19.902  0.00  0.00    +0.000 A 
ATOM      6  C   UNL     1       1.251  12.016  20.451  0.00  0.00    +0.000 A 
ENDROOT
BRANCH   4   7
ATOM      7  N   UNL     1      -1.645  10.741  18.340  0.00  0.00    +0.000 N 
ATOM      8  C   UNL     1      -1.422   9.768  17.254  0.00  0.00    +0.000 C 
ATOM      9  C   UNL     1      -2.540  10.031  16.253  0.00  0.00    +0.000 C 
ATOM     10  C   UNL     1      -3.702  10.431  17.137  0.00  0.00    +0.000 C 
ATOM     11  C   UNL     1      -3.034  11.249  18.233  0.00  0.00    +0.000 C 
ENDBRANCH   4   7
BRANCH   5  12
ATOM     12  C   UNL     1       0.459   9.734  20.458  0.00  0.00    +0.000 C 
ATOM     13  O   UNL     1      -0.238   9.351  21.392  0.00  0.00    +0.000 OA
ATOM     14  N   UNL     1       1.387   8.933  19.829  0.00  0.00    +0.000 N 
ATOM     15  H   UNL     1       2.037   9.372  19.180  0.00  0.00    +0.000 HD
BRANCH  14  16
ATOM     16  N   UNL     1       1.739   7.723  20.441  0.00  0.00    +0.000 N 
ATOM     17  C   UNL     1       2.282   6.660  19.756  0.00  0.00    +0.000 C 
ATOM     18  O   UNL     1       2.444   5.572  20.306  0.00  0.00    +0.000 OA
ATOM     19  H   UNL     1       1.394   7.564  21.389  0.00  0.00    +0.000 HD
BRANCH  17  20
ATOM     20  C   UNL     1       2.703   6.910  18.310  0.00  0.00    +0.000 C 
BRANCH  20  21
ATOM     21  O   UNL     1       3.551   5.829  17.923  0.00  0.00    +0.000 OA
BRANCH  21  22
ATOM     22  C   UNL     1       4.903   5.990  18.068  0.00  0.00    +0.000 A 
ATOM     23  C   UNL     1       5.458   6.964  17.227  0.00  0.00    +0.000 A 
ATOM     24  C   UNL     1       6.834   7.208  17.241  0.00  0.00    +0.000 A 
ATOM     25  C   UNL     1       7.670   6.486  18.085  0.00  0.00    +0.000 A 
ATOM     26  C   UNL     1       7.125   5.528  18.937  0.00  0.00    +0.000 A 
ATOM     27  C   UNL     1       5.750   5.287  18.927  0.00  0.00    +0.000 A 
ATOM     28  F   UNL     1       5.283   4.349  19.763  0.00  0.00    +0.000 F 
ENDBRANCH  21  22
ENDBRANCH  20  21
ENDBRANCH  17  20
ENDBRANCH  14  16
ENDBRANCH   5  12
BRANCH   1  29
ATOM     29  S   UNL     1       2.503  14.482  20.647  0.00  0.00    +0.000 S 
ATOM     30  O   UNL     1       3.449  13.723  21.436  0.00  0.00    +0.000 OA
ATOM     31  O   UNL     1       1.790  15.609  21.210  0.00  0.00    +0.000 OA
BRANCH  29  33
ATOM     32  C   UNL     1       2.831  16.308  18.688  0.00  0.00    +0.000 C 
ATOM     33  N   UNL     1       3.265  15.005  19.213  0.00  0.00    +0.000 NA
ATOM     34  C   UNL     1       4.724  14.799  19.136  0.00  0.00    +0.000 C 
ENDBRANCH  29  33
ENDBRANCH   1  29
TORSDOF 8
ENDMDL
MODEL 5
REMARK VINA RESULT:      -7.3      1.441      1.648
REMARK  Name = 
REMARK  10 active torsions:
REMARK  status: ('A' for Active; 'I' for Inactive)
REMARK    1  A    between atoms: C_1  and  N_2
REMARK    2  A    between atoms: N_2  and  C_3
REMARK    3  A    between atoms: N_2  and  S_4
REMARK    4  A    between atoms: S_4  and  C_7
REMARK    5  A    between atoms: C_10  and  N_11
REMARK    6  A    between atoms: C_16  and  C_17
REMARK    7  A    between atoms: N_19  and  N_20
REMARK    8  A    between atoms: C_21  and  C_23
REMARK    9  A    between atoms: C_23  and  O_24
REMARK   10  A    between atoms: O_24  and  C_25
REMARK                            x       y       z     vdW  Elec       q    Type
REMARK                         _______ _______ _______ _____ _____    ______ ____
ROOT
ATOM      1  C   UNL     1       1.541  13.146  19.344  0.00  0.00    +0.000 A 
ATOM      2  C   UNL     1       0.541  13.657  18.539  0.00  0.00    +0.000 A 
ATOM      3  C   UNL     1      -0.569  12.867  18.241  0.00  0.00    +0.000 A 
ATOM      4  C   UNL     1      -0.740  11.528  18.683  0.00  0.00    +0.000 A 
ATOM      5  C   UNL     1       0.301  11.050  19.529  0.00  0.00    +0.000 A 
ATOM      6  C   UNL     1       1.412  11.865  19.871  0.00  0.00    +0.000 A 
ENDROOT
BRANCH   4   7
ATOM      7  N   UNL     1      -1.887  10.838  18.279  0.00  0.00    +0.000 N 
ATOM      8  C   UNL     1      -1.953   9.831  17.204  0.00  0.00    +0.000 C 
ATOM      9  C   UNL     1      -3.197  10.191  16.402  0.00  0.00    +0.000 C 
ATOM     10  C   UNL     1      -4.143  10.721  17.458  0.00  0.00    +0.000 C 
ATOM     11  C   UNL     1      -3.217  11.484  18.396  0.00  0.00    +0.000 C 
ENDBRANCH   4   7
BRANCH   5  12
ATOM     12  C   UNL     1       0.365   9.709  20.171  0.00  0.00    +0.000 C 
ATOM     13  O   UNL     1      -0.541   9.311  20.896  0.00  0.00    +0.000 OA
ATOM     14  N   UNL     1       1.474   8.952  19.860  0.00  0.00    +0.000 N 
ATOM     15  H   UNL     1       2.253   9.412  19.394  0.00  0.00    +0.000 HD
BRANCH  14  16
ATOM     16  N   UNL     1       1.708   7.788  20.603  0.00  0.00    +0.000 N 
ATOM     17  C   UNL     1       2.100   6.596  20.036  0.00  0.00    +0.000 C 
ATOM     18  O   UNL     1       2.157   5.567  20.708  0.00  0.00    +0.000 OA
ATOM     19  H   UNL     1       1.383   7.781  21.572  0.00  0.00    +0.000 HD
BRANCH  17  20
ATOM     20  C   UNL     1       2.491   6.627  18.561  0.00  0.00    +0.000 C 
BRANCH  20  21
ATOM     21  O   UNL     1       2.864   5.298  18.194  0.00  0.00    +0.000 OA
BRANCH  21  22
ATOM     22  C   UNL     1       3.911   5.142  17.326  0.00  0.00    +0.000 A 
ATOM     23  C   UNL     1       4.463   6.347  16.870  0.00  0.00    +0.000 A 
ATOM     24  C   UNL     1       5.514   6.337  15.950  0.00  0.00    +0.000 A 
ATOM     25  C   UNL     1       6.024   5.136  15.471  0.00  0.00    +0.000 A 
ATOM     26  C   UNL     1       5.493   3.933  15.932  0.00  0.00    +0.000 A 
ATOM     27  C   UNL     1       4.446   3.941  16.855  0.00  0.00    +0.000 A 
ATOM     28  F   UNL     1       3.971   2.754  17.257  0.00  0.00    +0.000 F 
ENDBRANCH  21  22
ENDBRANCH  20  21
ENDBRANCH  17  20
ENDBRANCH  14  16
ENDBRANCH   5  12
BRANCH   1  29
ATOM     29  S   UNL     1       2.962  14.157  19.694  0.00  0.00    +0.000 S 
ATOM     30  O   UNL     1       3.822  14.116  18.533  0.00  0.00    +0.000 OA
ATOM     31  O   UNL     1       3.448  13.773  21.003  0.00  0.00    +0.000 OA
BRANCH  29  33
ATOM     32  C   UNL     1       2.129  16.244  21.189  0.00  0.00    +0.000 C 
ATOM     33  N   UNL     1       2.274  15.713  19.825  0.00  0.00    +0.000 NA
ATOM     34  C   UNL     1       2.742  16.718  18.851  0.00  0.00    +0.000 C 
ENDBRANCH  29  33
ENDBRANCH   1  29
TORSDOF 8
ENDMDL
MODEL 6
REMARK VINA RESULT:      -7.3      1.659      2.129
REMARK  Name = 
REMARK  10 active torsions:
REMARK  status: ('A' for Active; 'I' for Inactive)
REMARK    1  A    between atoms: C_1  and  N_2
REMARK    2  A    between atoms: N_2  and  C_3
REMARK    3  A    between atoms: N_2  and  S_4
REMARK    4  A    between atoms: S_4  and  C_7
REMARK    5  A    between atoms: C_10  and  N_11
REMARK    6  A    between atoms: C_16  and  C_17
REMARK    7  A    between atoms: N_19  and  N_20
REMARK    8  A    between atoms: C_21  and  C_23
REMARK    9  A    between atoms: C_23  and  O_24
REMARK   10  A    between atoms: O_24  and  C_25
REMARK                            x       y       z     vdW  Elec       q    Type
REMARK                         _______ _______ _______ _____ _____    ______ ____
ROOT
ATOM      1  C   UNL     1       1.064  13.613  20.171  0.00  0.00    +0.000 A 
ATOM      2  C   UNL     1       0.141  14.000  19.218  0.00  0.00    +0.000 A 
ATOM      3  C   UNL     1      -0.748  13.056  18.704  0.00  0.00    +0.000 A 
ATOM      4  C   UNL     1      -0.756  11.683  19.066  0.00  0.00    +0.000 A 
ATOM      5  C   UNL     1       0.194  11.333  20.068  0.00  0.00    +0.000 A 
ATOM      6  C   UNL     1       1.073  12.298  20.626  0.00  0.00    +0.000 A 
ENDROOT
BRANCH   4   7
ATOM      7  N   UNL     1      -1.681  10.839  18.445  0.00  0.00    +0.000 N 
ATOM      8  C   UNL     1      -1.386   9.895  17.352  0.00  0.00    +0.000 C 
ATOM      9  C   UNL     1      -2.514  10.090  16.347  0.00  0.00    +0.000 C 
ATOM     10  C   UNL     1      -3.705  10.401  17.227  0.00  0.00    +0.000 C 
ATOM     11  C   UNL     1      -3.101  11.251  18.335  0.00  0.00    +0.000 C 
ENDBRANCH   4   7
BRANCH   5  12
ATOM     12  C   UNL     1       0.382   9.985  20.669  0.00  0.00    +0.000 C 
ATOM     13  O   UNL     1      -0.190   9.670  21.707  0.00  0.00    +0.000 OA
ATOM     14  N   UNL     1       1.193   9.124  19.961  0.00  0.00    +0.000 N 
ATOM     15  H   UNL     1       1.759   9.510  19.208  0.00  0.00    +0.000 HD
BRANCH  14  16
ATOM     16  N   UNL     1       1.592   7.933  20.581  0.00  0.00    +0.000 N 
ATOM     17  C   UNL     1       2.187   6.892  19.905  0.00  0.00    +0.000 C 
ATOM     18  O   UNL     1       2.393   5.815  20.461  0.00  0.00    +0.000 OA
ATOM     19  H   UNL     1       1.247   7.763  21.528  0.00  0.00    +0.000 HD
BRANCH  17  20
ATOM     20  C   UNL     1       2.608   7.155  18.462  0.00  0.00    +0.000 C 
BRANCH  20  21
ATOM     21  O   UNL     1       4.013   6.915  18.379  0.00  0.00    +0.000 OA
BRANCH  21  22
ATOM     22  C   UNL     1       4.456   6.005  17.457  0.00  0.00    +0.000 A 
ATOM     23  C   UNL     1       4.947   6.577  16.276  0.00  0.00    +0.000 A 
ATOM     24  C   UNL     1       5.397   5.764  15.233  0.00  0.00    +0.000 A 
ATOM     25  C   UNL     1       5.360   4.379  15.349  0.00  0.00    +0.000 A 
ATOM     26  C   UNL     1       4.889   3.801  16.527  0.00  0.00    +0.000 A 
ATOM     27  C   UNL     1       4.444   4.613  17.572  0.00  0.00    +0.000 A 
ATOM     28  F   UNL     1       3.997   4.002  18.678  0.00  0.00    +0.000 F 
ENDBRANCH  21  22
ENDBRANCH  20  21
ENDBRANCH  17  20
ENDBRANCH  14  16
ENDBRANCH   5  12
BRANCH   1  29
ATOM     29  S   UNL     1       2.208  14.822  20.799  0.00  0.00    +0.000 S 
ATOM     30  O   UNL     1       2.301  14.631  22.229  0.00  0.00    +0.000 OA
ATOM     31  O   UNL     1       1.831  16.102  20.234  0.00  0.00    +0.000 OA
BRANCH  29  33
ATOM     32  C   UNL     1       3.743  14.456  18.610  0.00  0.00    +0.000 C 
ATOM     33  N   UNL     1       3.675  14.341  20.074  0.00  0.00    +0.000 NA
ATOM     34  C   UNL     1       4.912  14.773  20.754  0.00  0.00    +0.000 C 
ENDBRANCH  29  33
ENDBRANCH   1  29
TORSDOF 8
ENDMDL
MODEL 7
REMARK VINA RESULT:      -7.1      5.662      8.867
REMARK  Name = 
REMARK  10 active torsions:
REMARK  status: ('A' for Active; 'I' for Inactive)
REMARK    1  A    between atoms: C_1  and  N_2
REMARK    2  A    between atoms: N_2  and  C_3
REMARK    3  A    between atoms: N_2  and  S_4
REMARK    4  A    between atoms: S_4  and  C_7
REMARK    5  A    between atoms: C_10  and  N_11
REMARK    6  A    between atoms: C_16  and  C_17
REMARK    7  A    between atoms: N_19  and  N_20
REMARK    8  A    between atoms: C_21  and  C_23
REMARK    9  A    between atoms: C_23  and  O_24
REMARK   10  A    between atoms: O_24  and  C_25
REMARK                            x       y       z     vdW  Elec       q    Type
REMARK                         _______ _______ _______ _____ _____    ______ ____
ROOT
ATOM      1  C   UNL     1      -2.004  13.333  21.935  0.00  0.00    +0.000 A 
ATOM      2  C   UNL     1      -1.081  14.348  22.096  0.00  0.00    +0.000 A 
ATOM      3  C   UNL     1      -0.129  14.572  21.102  0.00  0.00    +0.000 A 
ATOM      4  C   UNL     1      -0.007  13.793  19.920  0.00  0.00    +0.000 A 
ATOM      5  C   UNL     1      -0.993  12.775  19.782  0.00  0.00    +0.000 A 
ATOM      6  C   UNL     1      -1.992  12.570  20.771  0.00  0.00    +0.000 A 
ENDROOT
BRANCH   4   7
ATOM      7  N   UNL     1       1.017  14.107  19.023  0.00  0.00    +0.000 N 
ATOM      8  C   UNL     1       2.177  13.252  18.706  0.00  0.00    +0.000 C 
ATOM      9  C   UNL     1       3.376  14.189  18.730  0.00  0.00    +0.000 C 
ATOM     10  C   UNL     1       2.805  15.489  18.205  0.00  0.00    +0.000 C 
ATOM     11  C   UNL     1       1.411  15.521  18.813  0.00  0.00    +0.000 C 
ENDBRANCH   4   7
BRANCH   5  12
ATOM     12  C   UNL     1      -1.137  11.841  18.633  0.00  0.00    +0.000 C 
ATOM     13  O   UNL     1      -0.587  10.744  18.637  0.00  0.00    +0.000 OA
ATOM     14  N   UNL     1      -1.953  12.274  17.610  0.00  0.00    +0.000 N 
ATOM     15  H   UNL     1      -2.233  13.253  17.604  0.00  0.00    +0.000 HD
BRANCH  14  16
ATOM     16  N   UNL     1      -1.947  11.552  16.410  0.00  0.00    +0.000 N 
ATOM     17  C   UNL     1      -2.962  10.701  16.036  0.00  0.00    +0.000 C 
ATOM     18  O   UNL     1      -2.850   9.983  15.044  0.00  0.00    +0.000 OA
ATOM     19  H   UNL     1      -1.065  11.511  15.896  0.00  0.00    +0.000 HD
BRANCH  17  20
ATOM     20  C   UNL     1      -4.231  10.724  16.883  0.00  0.00    +0.000 C 
BRANCH  20  21
ATOM     21  O   UNL     1      -4.858  11.990  16.674  0.00  0.00    +0.000 OA
BRANCH  21  22
ATOM     22  C   UNL     1      -5.789  12.404  17.589  0.00  0.00    +0.000 A 
ATOM     23  C   UNL     1      -5.875  11.591  18.728  0.00  0.00    +0.000 A 
ATOM     24  C   UNL     1      -6.810  11.874  19.727  0.00  0.00    +0.000 A 
ATOM     25  C   UNL     1      -7.669  12.960  19.604  0.00  0.00    +0.000 A 
ATOM     26  C   UNL     1      -7.578  13.784  18.484  0.00  0.00    +0.000 A 
ATOM     27  C   UNL     1      -6.641  13.505  17.487  0.00  0.00    +0.000 A 
ATOM     28  F   UNL     1      -6.604  14.328  16.430  0.00  0.00    +0.000 F 
ENDBRANCH  21  22
ENDBRANCH  20  21
ENDBRANCH  17  20
ENDBRANCH  14  16
ENDBRANCH   5  12
BRANCH   1  29
ATOM     29  S   UNL     1      -3.197  13.044  23.223  0.00  0.00    +0.000 S 
ATOM     30  O   UNL     1      -3.036  14.090  24.208  0.00  0.00    +0.000 OA
ATOM     31  O   UNL     1      -3.100  11.646  23.589  0.00  0.00    +0.000 OA
BRANCH  29  33
ATOM     32  C   UNL     1      -5.894  12.983  23.173  0.00  0.00    +0.000 C 
ATOM     33  N   UNL     1      -4.675  13.271  22.403  0.00  0.00    +0.000 NA
ATOM     34  C   UNL     1      -4.781  14.486  21.571  0.00  0.00    +0.000 C 
ENDBRANCH  29  33
ENDBRANCH   1  29
TORSDOF 8
ENDMDL
MODEL 8
REMARK VINA RESULT:      -7.1      3.840      8.830
REMARK  Name = 
REMARK  10 active torsions:
REMARK  status: ('A' for Active; 'I' for Inactive)
REMARK    1  A    between atoms: C_1  and  N_2
REMARK    2  A    between atoms: N_2  and  C_3
REMARK    3  A    between atoms: N_2  and  S_4
REMARK    4  A    between atoms: S_4  and  C_7
REMARK    5  A    between atoms: C_10  and  N_11
REMARK    6  A    between atoms: C_16  and  C_17
REMARK    7  A    between atoms: N_19  and  N_20
REMARK    8  A    between atoms: C_21  and  C_23
REMARK    9  A    between atoms: C_23  and  O_24
REMARK   10  A    between atoms: O_24  and  C_25
REMARK                            x       y       z     vdW  Elec       q    Type
REMARK                         _______ _______ _______ _____ _____    ______ ____
ROOT
ATOM      1  C   UNL     1       2.343   4.966  19.033  0.00  0.00    +0.000 A 
ATOM      2  C   UNL     1       1.757   4.912  20.283  0.00  0.00    +0.000 A 
ATOM      3  C   UNL     1       1.339   6.094  20.895  0.00  0.00    +0.000 A 
ATOM      4  C   UNL     1       1.505   7.388  20.334  0.00  0.00    +0.000 A 
ATOM      5  C   UNL     1       2.090   7.396  19.035  0.00  0.00    +0.000 A 
ATOM      6  C   UNL     1       2.478   6.193  18.389  0.00  0.00    +0.000 A 
ENDROOT
BRANCH   4   7
ATOM      7  N   UNL     1       1.071   8.491  21.074  0.00  0.00    +0.000 N 
ATOM      8  C   UNL     1       1.769   9.081  22.231  0.00  0.00    +0.000 C 
ATOM      9  C   UNL     1       0.680   9.317  23.270  0.00  0.00    +0.000 C 
ATOM     10  C   UNL     1      -0.525   9.674  22.427  0.00  0.00    +0.000 C 
ATOM     11  C   UNL     1      -0.381   8.760  21.218  0.00  0.00    +0.000 C 
ENDBRANCH   4   7
BRANCH   5  12
ATOM     12  C   UNL     1       2.343   8.596  18.193  0.00  0.00    +0.000 C 
ATOM     13  O   UNL     1       3.171   8.571  17.288  0.00  0.00    +0.000 OA
ATOM     14  N   UNL     1       1.562   9.697  18.473  0.00  0.00    +0.000 N 
ATOM     15  H   UNL     1       1.024   9.695  19.337  0.00  0.00    +0.000 HD
BRANCH  14  16
ATOM     16  N   UNL     1       1.905  10.918  17.879  0.00  0.00    +0.000 N 
ATOM     17  C   UNL     1       1.746  12.133  18.505  0.00  0.00    +0.000 C 
ATOM     18  O   UNL     1       1.929  13.186  17.895  0.00  0.00    +0.000 OA
ATOM     19  H   UNL     1       2.093  10.911  16.875  0.00  0.00    +0.000 HD
BRANCH  17  20
ATOM     20  C   UNL     1       1.375  12.106  19.985  0.00  0.00    +0.000 C 
BRANCH  20  21
ATOM     21  O   UNL     1       0.610  13.282  20.252  0.00  0.00    +0.000 OA
BRANCH  21  22
ATOM     22  C   UNL     1      -0.540  13.146  20.983  0.00  0.00    +0.000 A 
ATOM     23  C   UNL     1      -0.393  13.443  22.345  0.00  0.00    +0.000 A 
ATOM     24  C   UNL     1      -1.477  13.311  23.217  0.00  0.00    +0.000 A 
ATOM     25  C   UNL     1      -2.712  12.880  22.748  0.00  0.00    +0.000 A 
ATOM     26  C   UNL     1      -2.873  12.598  21.392  0.00  0.00    +0.000 A 
ATOM     27  C   UNL     1      -1.792  12.735  20.520  0.00  0.00    +0.000 A 
ATOM     28  F   UNL     1      -2.003  12.445  19.228  0.00  0.00    +0.000 F 
ENDBRANCH  21  22
ENDBRANCH  20  21
ENDBRANCH  17  20
ENDBRANCH  14  16
ENDBRANCH   5  12
BRANCH   1  29
ATOM     29  S   UNL     1       2.893   3.454  18.275  0.00  0.00    +0.000 S 
ATOM     30  O   UNL     1       3.089   3.718  16.867  0.00  0.00    +0.000 OA
ATOM     31  O   UNL     1       2.006   2.402  18.726  0.00  0.00    +0.000 OA
BRANCH  29  33
ATOM     32  C   UNL     1       5.250   4.410  19.178  0.00  0.00    +0.000 C 
ATOM     33  N   UNL     1       4.412   3.213  19.014  0.00  0.00    +0.000 NA
ATOM     34  C   UNL     1       4.432   2.319  20.189  0.00  0.00    +0.000 C 
ENDBRANCH  29  33
ENDBRANCH   1  29
TORSDOF 8
ENDMDL
MODEL 9
REMARK VINA RESULT:      -7.0      1.228      1.553
REMARK  Name = 
REMARK  10 active torsions:
REMARK  status: ('A' for Active; 'I' for Inactive)
REMARK    1  A    between atoms: C_1  and  N_2
REMARK    2  A    between atoms: N_2  and  C_3
REMARK    3  A    between atoms: N_2  and  S_4
REMARK    4  A    between atoms: S_4  and  C_7
REMARK    5  A    between atoms: C_10  and  N_11
REMARK    6  A    between atoms: C_16  and  C_17
REMARK    7  A    between atoms: N_19  and  N_20
REMARK    8  A    between atoms: C_21  and  C_23
REMARK    9  A    between atoms: C_23  and  O_24
REMARK   10  A    between atoms: O_24  and  C_25
REMARK                            x       y       z     vdW  Elec       q    Type
REMARK                         _______ _______ _______ _____ _____    ______ ____
ROOT
ATOM      1  C   UNL     1       1.168  13.260  20.576  0.00  0.00    +0.000 A 
ATOM      2  C   UNL     1       0.230  13.765  19.696  0.00  0.00    +0.000 A 
ATOM      3  C   UNL     1      -0.669  12.894  19.080  0.00  0.00    +0.000 A 
ATOM      4  C   UNL     1      -0.673  11.486  19.263  0.00  0.00    +0.000 A 
ATOM      5  C   UNL     1       0.293  11.010  20.196  0.00  0.00    +0.000 A 
ATOM      6  C   UNL     1       1.183  11.897  20.859  0.00  0.00    +0.000 A 
ENDROOT
BRANCH   4   7
ATOM      7  N   UNL     1      -1.609  10.728  18.555  0.00  0.00    +0.000 N 
ATOM      8  C   UNL     1      -1.311   9.823  17.429  0.00  0.00    +0.000 C 
ATOM      9  C   UNL     1      -2.372  10.132  16.382  0.00  0.00    +0.000 C 
ATOM     10  C   UNL     1      -3.589  10.468  17.217  0.00  0.00    +0.000 C 
ATOM     11  C   UNL     1      -2.997  11.227  18.396  0.00  0.00    +0.000 C 
ENDBRANCH   4   7
BRANCH   5  12
ATOM     12  C   UNL     1       0.488   9.597  20.616  0.00  0.00    +0.000 C 
ATOM     13  O   UNL     1      -0.246   9.077  21.450  0.00  0.00    +0.000 OA
ATOM     14  N   UNL     1       1.505   8.920  19.977  0.00  0.00    +0.000 N 
ATOM     15  H   UNL     1       2.170   9.461  19.428  0.00  0.00    +0.000 HD
BRANCH  14  16
ATOM     16  N   UNL     1       1.887   7.672  20.484  0.00  0.00    +0.000 N 
ATOM     17  C   UNL     1       2.231   6.605  19.685  0.00  0.00    +0.000 C 
ATOM     18  O   UNL     1       2.424   5.491  20.169  0.00  0.00    +0.000 OA
ATOM     19  H   UNL     1       1.711   7.498  21.476  0.00  0.00    +0.000 HD
BRANCH  17  20
ATOM     20  C   UNL     1       2.397   6.883  18.193  0.00  0.00    +0.000 C 
BRANCH  20  21
ATOM     21  O   UNL     1       3.746   7.302  17.987  0.00  0.00    +0.000 OA
BRANCH  21  22
ATOM     22  C   UNL     1       4.620   6.404  17.435  0.00  0.00    +0.000 A 
ATOM     23  C   UNL     1       5.921   6.896  17.269  0.00  0.00    +0.000 A 
ATOM     24  C   UNL     1       6.908   6.100  16.683  0.00  0.00    +0.000 A 
ATOM     25  C   UNL     1       6.612   4.812  16.251  0.00  0.00    +0.000 A 
ATOM     26  C   UNL     1       5.325   4.307  16.427  0.00  0.00    +0.000 A 
ATOM     27  C   UNL     1       4.340   5.101  17.018  0.00  0.00    +0.000 A 
ATOM     28  F   UNL     1       3.119   4.565  17.156  0.00  0.00    +0.000 F 
ENDBRANCH  21  22
ENDBRANCH  20  21
ENDBRANCH  17  20
ENDBRANCH  14  16
ENDBRANCH   5  12
BRANCH   1  29
ATOM     29  S   UNL     1       2.324  14.379  21.334  0.00  0.00    +0.000 S 
ATOM     30  O   UNL     1       3.530  13.632  21.618  0.00  0.00    +0.000 OA
ATOM     31  O   UNL     1       1.614  15.084  22.380  0.00  0.00    +0.000 OA
BRANCH  29  33
ATOM     32  C   UNL     1       2.549  16.910  20.426  0.00  0.00    +0.000 C 
ATOM     33  N   UNL     1       2.636  15.485  20.073  0.00  0.00    +0.000 NA
ATOM     34  C   UNL     1       3.778  15.167  19.194  0.00  0.00    +0.000 C 
ENDBRANCH  29  33
ENDBRANCH   1  29
TORSDOF 8
ENDMDL
