MODEL 1
REMARK VINA RESULT:      -8.0      0.000      0.000
REMARK  Name = 
REMARK  6 active torsions:
REMARK  status: ('A' for Active; 'I' for Inactive)
REMARK    1  A    between atoms: C_1  and  C_2
REMARK    2  A    between atoms: C_5  and  C_6
REMARK    3  A    between atoms: C_9  and  S_10
REMARK    4  A    between atoms: S_10  and  N_13
REMARK    5  A    between atoms: C_18  and  C_19
REMARK    6  A    between atoms: C_24  and  N_25
REMARK                            x       y       z     vdW  Elec       q    Type
REMARK                         _______ _______ _______ _____ _____    ______ ____
ROOT
ATOM      1  S   UNL     1       2.629   6.775  18.724  0.00  0.00    +0.000 S 
ATOM      2  O   UNL     1       1.844   6.633  17.513  0.00  0.00    +0.000 OA
ATOM      3  O   UNL     1       4.024   7.176  18.684  0.00  0.00    +0.000 OA
ENDROOT
BRANCH   1   7
ATOM      4  C   UNL     1       0.410   9.952  21.188  0.00  0.00    +0.000 A 
ATOM      5  C   UNL     1       0.897   8.801  21.820  0.00  0.00    +0.000 A 
ATOM      6  C   UNL     1       1.627   7.849  21.100  0.00  0.00    +0.000 A 
ATOM      7  C   UNL     1       1.800   7.995  19.723  0.00  0.00    +0.000 A 
ATOM      8  C   UNL     1       1.317   9.134  19.073  0.00  0.00    +0.000 A 
ATOM      9  C   UNL     1       0.646  10.105  19.813  0.00  0.00    +0.000 A 
ATOM     10  F   UNL     1       0.222  11.201  19.166  0.00  0.00    +0.000 F 
BRANCH   4  15
ATOM     11  C   UNL     1      -0.304  14.517  22.558  0.00  0.00    +0.000 C 
ATOM     12  C   UNL     1      -0.602  13.071  22.574  0.00  0.00    +0.000 A 
ATOM     13  C   UNL     1      -1.526  12.311  23.255  0.00  0.00    +0.000 A 
ATOM     14  C   UNL     1      -1.308  10.972  22.860  0.00  0.00    +0.000 A 
ATOM     15  C   UNL     1      -0.269  10.988  21.952  0.00  0.00    +0.000 A 
ATOM     16  O   UNL     1       0.161  12.274  21.770  0.00  0.00    +0.000 OA
ENDBRANCH   4  15
ENDBRANCH   1   7
BRANCH   1  17
ATOM     17  N   UNL     1       2.525   5.328  19.622  0.00  0.00    +0.000 NA
ATOM     18  C   UNL     1       1.157   4.737  19.686  0.00  0.00    +0.000 C 
ATOM     19  C   UNL     1       1.131   3.668  20.766  0.00  0.00    +0.000 C 
ATOM     20  C   UNL     1       2.074   2.550  20.353  0.00  0.00    +0.000 C 
ATOM     21  C   UNL     1       3.500   3.089  20.218  0.00  0.00    +0.000 C 
ATOM     22  C   UNL     1       3.636   4.345  19.329  0.00  0.00    +0.000 C 
BRANCH  22  23
ATOM     23  C   UNL     1       3.817   3.943  17.849  0.00  0.00    +0.000 C 
ATOM     24  O   UNL     1       2.894   3.386  17.247  0.00  0.00    +0.000 OA
ATOM     25  N   UNL     1       5.046   4.136  17.234  0.00  0.00    +0.000 N 
ATOM     26  C   UNL     1       5.241   3.749  15.845  0.00  0.00    +0.000 C 
ATOM     27  C   UNL     1       6.749   3.701  15.657  0.00  0.00    +0.000 C 
ATOM     28  C   UNL     1       7.273   4.805  16.578  0.00  0.00    +0.000 C 
ATOM     29  C   UNL     1       6.235   4.830  17.736  0.00  0.00    +0.000 C 
BRANCH  28  30
ATOM     30  N   UNL     1       7.387   6.082  15.867  0.00  0.00    +0.000 NA
ATOM     31  H   UNL     1       7.695   5.927  14.907  0.00  0.00    +0.000 HD
ATOM     32  H   UNL     1       8.100   6.664  16.306  0.00  0.00    +0.000 HD
ENDBRANCH  28  30
ENDBRANCH  22  23
ENDBRANCH   1  17
TORSDOF 5
ENDMDL
MODEL 2
REMARK VINA RESULT:      -7.6      3.709      9.808
REMARK  Name = 
REMARK  6 active torsions:
REMARK  status: ('A' for Active; 'I' for Inactive)
REMARK    1  A    between atoms: C_1  and  C_2
REMARK    2  A    between atoms: C_5  and  C_6
REMARK    3  A    between atoms: C_9  and  S_10
REMARK    4  A    between atoms: S_10  and  N_13
REMARK    5  A    between atoms: C_18  and  C_19
REMARK    6  A    between atoms: C_24  and  N_25
REMARK                            x       y       z     vdW  Elec       q    Type
REMARK                         _______ _______ _______ _____ _____    ______ ____
ROOT
ATOM      1  S   UNL     1       0.184  10.659  19.588  0.00  0.00    +0.000 S 
ATOM      2  O   UNL     1      -0.656  10.938  18.439  0.00  0.00    +0.000 OA
ATOM      3  O   UNL     1      -0.382  10.301  20.876  0.00  0.00    +0.000 OA
ENDROOT
BRANCH   1   7
ATOM      4  C   UNL     1       2.821   7.070  18.470  0.00  0.00    +0.000 A 
ATOM      5  C   UNL     1       2.656   8.119  17.556  0.00  0.00    +0.000 A 
ATOM      6  C   UNL     1       1.905   9.249  17.899  0.00  0.00    +0.000 A 
ATOM      7  C   UNL     1       1.239   9.301  19.125  0.00  0.00    +0.000 A 
ATOM      8  C   UNL     1       1.387   8.263  20.048  0.00  0.00    +0.000 A 
ATOM      9  C   UNL     1       2.189   7.171  19.718  0.00  0.00    +0.000 A 
ATOM     10  F   UNL     1       2.337   6.205  20.638  0.00  0.00    +0.000 F 
BRANCH   4  15
ATOM     11  C   UNL     1       7.092   5.017  17.594  0.00  0.00    +0.000 C 
ATOM     12  C   UNL     1       5.625   4.996  17.760  0.00  0.00    +0.000 A 
ATOM     13  C   UNL     1       4.685   3.993  17.670  0.00  0.00    +0.000 A 
ATOM     14  C   UNL     1       3.433   4.599  17.916  0.00  0.00    +0.000 A 
ATOM     15  C   UNL     1       3.677   5.937  18.152  0.00  0.00    +0.000 A 
ATOM     16  O   UNL     1       5.020   6.180  18.064  0.00  0.00    +0.000 OA
ENDBRANCH   4  15
ENDBRANCH   1   7
BRANCH   1  17
ATOM     17  N   UNL     1       1.243  11.975  19.828  0.00  0.00    +0.000 NA
ATOM     18  C   UNL     1       1.762  12.590  18.571  0.00  0.00    +0.000 C 
ATOM     19  C   UNL     1       2.925  13.505  18.913  0.00  0.00    +0.000 C 
ATOM     20  C   UNL     1       2.402  14.641  19.774  0.00  0.00    +0.000 C 
ATOM     21  C   UNL     1       1.806  14.087  21.070  0.00  0.00    +0.000 C 
ATOM     22  C   UNL     1       0.769  12.958  20.875  0.00  0.00    +0.000 C 
BRANCH  22  23
ATOM     23  C   UNL     1      -0.641  13.550  20.666  0.00  0.00    +0.000 C 
ATOM     24  O   UNL     1      -0.934  14.071  19.585  0.00  0.00    +0.000 OA
ATOM     25  N   UNL     1      -1.539  13.566  21.723  0.00  0.00    +0.000 N 
ATOM     26  C   UNL     1      -2.869  14.134  21.550  0.00  0.00    +0.000 C 
ATOM     27  C   UNL     1      -3.384  14.367  22.961  0.00  0.00    +0.000 C 
ATOM     28  C   UNL     1      -2.770  13.226  23.775  0.00  0.00    +0.000 C 
ATOM     29  C   UNL     1      -1.423  12.951  23.049  0.00  0.00    +0.000 C 
BRANCH  28  30
ATOM     30  N   UNL     1      -3.661  12.062  23.815  0.00  0.00    +0.000 NA
ATOM     31  H   UNL     1      -3.295  11.314  23.227  0.00  0.00    +0.000 HD
ATOM     32  H   UNL     1      -4.574  12.308  23.432  0.00  0.00    +0.000 HD
ENDBRANCH  28  30
ENDBRANCH  22  23
ENDBRANCH   1  17
TORSDOF 5
ENDMDL
MODEL 3
REMARK VINA RESULT:      -7.6      3.747      9.832
REMARK  Name = 
REMARK  6 active torsions:
REMARK  status: ('A' for Active; 'I' for Inactive)
REMARK    1  A    between atoms: C_1  and  C_2
REMARK    2  A    between atoms: C_5  and  C_6
REMARK    3  A    between atoms: C_9  and  S_10
REMARK    4  A    between atoms: S_10  and  N_13
REMARK    5  A    between atoms: C_18  and  C_19
REMARK    6  A    between atoms: C_24  and  N_25
REMARK                            x       y       z     vdW  Elec       q    Type
REMARK                         _______ _______ _______ _____ _____    ______ ____
ROOT
ATOM      1  S   UNL     1       0.111  10.724  19.560  0.00  0.00    +0.000 S 
ATOM      2  O   UNL     1      -0.618  10.965  18.330  0.00  0.00    +0.000 OA
ATOM      3  O   UNL     1      -0.576  10.466  20.814  0.00  0.00    +0.000 OA
ENDROOT
BRANCH   1   7
ATOM      4  C   UNL     1       2.677   6.976  18.884  0.00  0.00    +0.000 A 
ATOM      5  C   UNL     1       2.606   7.957  17.886  0.00  0.00    +0.000 A 
ATOM      6  C   UNL     1       1.878   9.133  18.095  0.00  0.00    +0.000 A 
ATOM      7  C   UNL     1       1.141   9.301  19.268  0.00  0.00    +0.000 A 
ATOM      8  C   UNL     1       1.194   8.332  20.274  0.00  0.00    +0.000 A 
ATOM      9  C   UNL     1       1.973   7.194  20.078  0.00  0.00    +0.000 A 
ATOM     10  F   UNL     1       2.029   6.296  21.075  0.00  0.00    +0.000 F 
BRANCH   4  15
ATOM     11  C   UNL     1       3.370   2.317  17.868  0.00  0.00    +0.000 C 
ATOM     12  C   UNL     1       3.829   3.672  18.236  0.00  0.00    +0.000 A 
ATOM     13  C   UNL     1       5.071   4.200  18.508  0.00  0.00    +0.000 A 
ATOM     14  C   UNL     1       4.864   5.563  18.816  0.00  0.00    +0.000 A 
ATOM     15  C   UNL     1       3.508   5.795  18.707  0.00  0.00    +0.000 A 
ATOM     16  O   UNL     1       2.873   4.639  18.344  0.00  0.00    +0.000 OA
ENDBRANCH   4  15
ENDBRANCH   1   7
BRANCH   1  17
ATOM     17  N   UNL     1       1.202  12.010  19.816  0.00  0.00    +0.000 NA
ATOM     18  C   UNL     1       1.743  12.620  18.567  0.00  0.00    +0.000 C 
ATOM     19  C   UNL     1       2.928  13.503  18.922  0.00  0.00    +0.000 C 
ATOM     20  C   UNL     1       2.429  14.646  19.788  0.00  0.00    +0.000 C 
ATOM     21  C   UNL     1       1.811  14.098  21.077  0.00  0.00    +0.000 C 
ATOM     22  C   UNL     1       0.747  12.998  20.868  0.00  0.00    +0.000 C 
BRANCH  22  23
ATOM     23  C   UNL     1      -0.646  13.627  20.655  0.00  0.00    +0.000 C 
ATOM     24  O   UNL     1      -0.915  14.174  19.581  0.00  0.00    +0.000 OA
ATOM     25  N   UNL     1      -1.555  13.646  21.703  0.00  0.00    +0.000 N 
ATOM     26  C   UNL     1      -2.868  14.249  21.527  0.00  0.00    +0.000 C 
ATOM     27  C   UNL     1      -3.393  14.469  22.938  0.00  0.00    +0.000 C 
ATOM     28  C   UNL     1      -2.814  13.299  23.737  0.00  0.00    +0.000 C 
ATOM     29  C   UNL     1      -1.467  13.006  23.019  0.00  0.00    +0.000 C 
BRANCH  28  30
ATOM     30  N   UNL     1      -3.734  12.157  23.747  0.00  0.00    +0.000 NA
ATOM     31  H   UNL     1      -3.439  11.470  24.440  0.00  0.00    +0.000 HD
ATOM     32  H   UNL     1      -3.710  11.683  22.845  0.00  0.00    +0.000 HD
ENDBRANCH  28  30
ENDBRANCH  22  23
ENDBRANCH   1  17
TORSDOF 5
ENDMDL
MODEL 4
REMARK VINA RESULT:      -7.6      0.858      1.227
REMARK  Name = 
REMARK  6 active torsions:
REMARK  status: ('A' for Active; 'I' for Inactive)
REMARK    1  A    between atoms: C_1  and  C_2
REMARK    2  A    between atoms: C_5  and  C_6
REMARK    3  A    between atoms: C_9  and  S_10
REMARK    4  A    between atoms: S_10  and  N_13
REMARK    5  A    between atoms: C_18  and  C_19
REMARK    6  A    between atoms: C_24  and  N_25
REMARK                            x       y       z     vdW  Elec       q    Type
REMARK                         _______ _______ _______ _____ _____    ______ ____
ROOT
ATOM      1  S   UNL     1       2.600   6.936  18.617  0.00  0.00    +0.000 S 
ATOM      2  O   UNL     1       1.845   6.726  17.396  0.00  0.00    +0.000 OA
ATOM      3  O   UNL     1       3.990   7.354  18.590  0.00  0.00    +0.000 OA
ENDROOT
BRANCH   1   7
ATOM      4  C   UNL     1       0.454  10.148  21.099  0.00  0.00    +0.000 A 
ATOM      5  C   UNL     1       0.495  10.264  19.704  0.00  0.00    +0.000 A 
ATOM      6  C   UNL     1       1.092   9.267  18.924  0.00  0.00    +0.000 A 
ATOM      7  C   UNL     1       1.732   8.189  19.538  0.00  0.00    +0.000 A 
ATOM      8  C   UNL     1       1.707   8.058  20.929  0.00  0.00    +0.000 A 
ATOM      9  C   UNL     1       1.055   9.026  21.690  0.00  0.00    +0.000 A 
ATOM     10  F   UNL     1       1.020   8.856  23.021  0.00  0.00    +0.000 F 
BRANCH   4  15
ATOM     11  C   UNL     1      -0.365  14.636  22.653  0.00  0.00    +0.000 C 
ATOM     12  C   UNL     1      -0.628  13.183  22.611  0.00  0.00    +0.000 A 
ATOM     13  C   UNL     1      -1.532  12.375  23.263  0.00  0.00    +0.000 A 
ATOM     14  C   UNL     1      -1.283  11.059  22.814  0.00  0.00    +0.000 A 
ATOM     15  C   UNL     1      -0.247  11.136  21.906  0.00  0.00    +0.000 A 
ATOM     16  O   UNL     1       0.151  12.439  21.775  0.00  0.00    +0.000 OA
ENDBRANCH   4  15
ENDBRANCH   1   7
BRANCH   1  17
ATOM     17  N   UNL     1       2.494   5.531  19.579  0.00  0.00    +0.000 NA
ATOM     18  C   UNL     1       1.131   4.929  19.647  0.00  0.00    +0.000 C 
ATOM     19  C   UNL     1       1.097   3.910  20.774  0.00  0.00    +0.000 C 
ATOM     20  C   UNL     1       2.058   2.785  20.430  0.00  0.00    +0.000 C 
ATOM     21  C   UNL     1       3.481   3.332  20.294  0.00  0.00    +0.000 C 
ATOM     22  C   UNL     1       3.620   4.547  19.350  0.00  0.00    +0.000 C 
BRANCH  22  23
ATOM     23  C   UNL     1       3.831   4.079  17.894  0.00  0.00    +0.000 C 
ATOM     24  O   UNL     1       2.918   3.500  17.297  0.00  0.00    +0.000 OA
ATOM     25  N   UNL     1       5.074   4.238  17.299  0.00  0.00    +0.000 N 
ATOM     26  C   UNL     1       5.297   3.789  15.932  0.00  0.00    +0.000 C 
ATOM     27  C   UNL     1       6.809   3.725  15.780  0.00  0.00    +0.000 C 
ATOM     28  C   UNL     1       7.319   4.866  16.663  0.00  0.00    +0.000 C 
ATOM     29  C   UNL     1       6.257   4.947  17.795  0.00  0.00    +0.000 C 
BRANCH  28  30
ATOM     30  N   UNL     1       7.457   6.109  15.899  0.00  0.00    +0.000 NA
ATOM     31  H   UNL     1       8.397   6.489  16.004  0.00  0.00    +0.000 HD
ATOM     32  H   UNL     1       6.819   6.816  16.264  0.00  0.00    +0.000 HD
ENDBRANCH  28  30
ENDBRANCH  22  23
ENDBRANCH   1  17
TORSDOF 5
ENDMDL
MODEL 5
REMARK VINA RESULT:      -7.5      0.573      1.004
REMARK  Name = 
REMARK  6 active torsions:
REMARK  status: ('A' for Active; 'I' for Inactive)
REMARK    1  A    between atoms: C_1  and  C_2
REMARK    2  A    between atoms: C_5  and  C_6
REMARK    3  A    between atoms: C_9  and  S_10
REMARK    4  A    between atoms: S_10  and  N_13
REMARK    5  A    between atoms: C_18  and  C_19
REMARK    6  A    between atoms: C_24  and  N_25
REMARK                            x       y       z     vdW  Elec       q    Type
REMARK                         _______ _______ _______ _____ _____    ______ ____
ROOT
ATOM      1  S   UNL     1       2.651   6.721  18.624  0.00  0.00    +0.000 S 
ATOM      2  O   UNL     1       1.864   6.523  17.422  0.00  0.00    +0.000 OA
ATOM      3  O   UNL     1       4.052   7.097  18.564  0.00  0.00    +0.000 OA
ENDROOT
BRANCH   1   7
ATOM      4  C   UNL     1       0.491  10.074  20.901  0.00  0.00    +0.000 A 
ATOM      5  C   UNL     1       0.856   8.902  21.576  0.00  0.00    +0.000 A 
ATOM      6  C   UNL     1       1.567   7.893  20.917  0.00  0.00    +0.000 A 
ATOM      7  C   UNL     1       1.841   8.008  19.552  0.00  0.00    +0.000 A 
ATOM      8  C   UNL     1       1.481   9.167  18.860  0.00  0.00    +0.000 A 
ATOM      9  C   UNL     1       0.829  10.190  19.544  0.00  0.00    +0.000 A 
ATOM     10  F   UNL     1       0.524  11.304  18.859  0.00  0.00    +0.000 F 
BRANCH   4  15
ATOM     11  C   UNL     1      -2.981  11.921  23.686  0.00  0.00    +0.000 C 
ATOM     12  C   UNL     1      -1.744  12.008  22.884  0.00  0.00    +0.000 A 
ATOM     13  C   UNL     1      -0.899  13.050  22.573  0.00  0.00    +0.000 A 
ATOM     14  C   UNL     1       0.112  12.508  21.748  0.00  0.00    +0.000 A 
ATOM     15  C   UNL     1      -0.166  11.163  21.607  0.00  0.00    +0.000 A 
ATOM     16  O   UNL     1      -1.299  10.854  22.309  0.00  0.00    +0.000 OA
ENDBRANCH   4  15
ENDBRANCH   1   7
BRANCH   1  17
ATOM     17  N   UNL     1       2.524   5.328  19.602  0.00  0.00    +0.000 NA
ATOM     18  C   UNL     1       1.157   4.735  19.659  0.00  0.00    +0.000 C 
ATOM     19  C   UNL     1       1.102   3.730  20.798  0.00  0.00    +0.000 C 
ATOM     20  C   UNL     1       2.060   2.596  20.480  0.00  0.00    +0.000 C 
ATOM     21  C   UNL     1       3.488   3.132  20.356  0.00  0.00    +0.000 C 
ATOM     22  C   UNL     1       3.647   4.335  19.399  0.00  0.00    +0.000 C 
BRANCH  22  23
ATOM     23  C   UNL     1       3.874   3.848  17.952  0.00  0.00    +0.000 C 
ATOM     24  O   UNL     1       2.998   3.190  17.382  0.00  0.00    +0.000 OA
ATOM     25  N   UNL     1       5.094   4.083  17.336  0.00  0.00    +0.000 N 
ATOM     26  C   UNL     1       5.333   3.618  15.977  0.00  0.00    +0.000 C 
ATOM     27  C   UNL     1       6.844   3.661  15.806  0.00  0.00    +0.000 C 
ATOM     28  C   UNL     1       7.280   4.857  16.655  0.00  0.00    +0.000 C 
ATOM     29  C   UNL     1       6.228   4.888  17.799  0.00  0.00    +0.000 C 
BRANCH  28  30
ATOM     30  N   UNL     1       7.317   6.088  15.860  0.00  0.00    +0.000 NA
ATOM     31  H   UNL     1       6.638   6.042  15.101  0.00  0.00    +0.000 HD
ATOM     32  H   UNL     1       8.231   6.193  15.420  0.00  0.00    +0.000 HD
ENDBRANCH  28  30
ENDBRANCH  22  23
ENDBRANCH   1  17
TORSDOF 5
ENDMDL
MODEL 6
REMARK VINA RESULT:      -7.5      3.607      9.273
REMARK  Name = 
REMARK  6 active torsions:
REMARK  status: ('A' for Active; 'I' for Inactive)
REMARK    1  A    between atoms: C_1  and  C_2
REMARK    2  A    between atoms: C_5  and  C_6
REMARK    3  A    between atoms: C_9  and  S_10
REMARK    4  A    between atoms: S_10  and  N_13
REMARK    5  A    between atoms: C_18  and  C_19
REMARK    6  A    between atoms: C_24  and  N_25
REMARK                            x       y       z     vdW  Elec       q    Type
REMARK                         _______ _______ _______ _____ _____    ______ ____
ROOT
ATOM      1  S   UNL     1       0.583   9.649  20.577  0.00  0.00    +0.000 S 
ATOM      2  O   UNL     1      -0.375   8.902  21.369  0.00  0.00    +0.000 OA
ATOM      3  O   UNL     1       1.508  10.587  21.188  0.00  0.00    +0.000 OA
ENDROOT
BRANCH   1   7
ATOM      4  C   UNL     1       3.112   6.442  18.477  0.00  0.00    +0.000 A 
ATOM      5  C   UNL     1       2.849   7.654  17.825  0.00  0.00    +0.000 A 
ATOM      6  C   UNL     1       2.131   8.667  18.469  0.00  0.00    +0.000 A 
ATOM      7  C   UNL     1       1.592   8.445  19.738  0.00  0.00    +0.000 A 
ATOM      8  C   UNL     1       1.839   7.241  20.403  0.00  0.00    +0.000 A 
ATOM      9  C   UNL     1       2.609   6.264  19.774  0.00  0.00    +0.000 A 
ATOM     10  F   UNL     1       2.854   5.131  20.451  0.00  0.00    +0.000 F 
BRANCH   4  15
ATOM     11  C   UNL     1       7.329   4.596  17.052  0.00  0.00    +0.000 C 
ATOM     12  C   UNL     1       5.860   4.575  17.201  0.00  0.00    +0.000 A 
ATOM     13  C   UNL     1       4.892   3.672  16.822  0.00  0.00    +0.000 A 
ATOM     14  C   UNL     1       3.656   4.220  17.231  0.00  0.00    +0.000 A 
ATOM     15  C   UNL     1       3.937   5.423  17.845  0.00  0.00    +0.000 A 
ATOM     16  O   UNL     1       5.288   5.639  17.835  0.00  0.00    +0.000 OA
ENDBRANCH   4  15
ENDBRANCH   1   7
BRANCH   1  17
ATOM     17  N   UNL     1      -0.249  10.468  19.333  0.00  0.00    +0.000 NA
ATOM     18  C   UNL     1      -1.615   9.940  19.050  0.00  0.00    +0.000 C 
ATOM     19  C   UNL     1      -2.104  10.517  17.732  0.00  0.00    +0.000 C 
ATOM     20  C   UNL     1      -2.239  12.022  17.891  0.00  0.00    +0.000 C 
ATOM     21  C   UNL     1      -0.880  12.638  18.232  0.00  0.00    +0.000 C 
ATOM     22  C   UNL     1      -0.148  11.975  19.420  0.00  0.00    +0.000 C 
BRANCH  22  23
ATOM     23  C   UNL     1      -0.594  12.613  20.753  0.00  0.00    +0.000 C 
ATOM     24  O   UNL     1      -1.609  12.199  21.322  0.00  0.00    +0.000 OA
ATOM     25  N   UNL     1       0.103  13.701  21.257  0.00  0.00    +0.000 N 
ATOM     26  C   UNL     1      -0.311  14.325  22.505  0.00  0.00    +0.000 C 
ATOM     27  C   UNL     1       0.374  15.683  22.513  0.00  0.00    +0.000 C 
ATOM     28  C   UNL     1       1.700  15.434  21.792  0.00  0.00    +0.000 C 
ATOM     29  C   UNL     1       1.355  14.300  20.785  0.00  0.00    +0.000 C 
BRANCH  28  30
ATOM     30  N   UNL     1       2.760  15.074  22.738  0.00  0.00    +0.000 NA
ATOM     31  H   UNL     1       2.738  14.073  22.933  0.00  0.00    +0.000 HD
ATOM     32  H   UNL     1       2.605  15.543  23.630  0.00  0.00    +0.000 HD
ENDBRANCH  28  30
ENDBRANCH  22  23
ENDBRANCH   1  17
TORSDOF 5
ENDMDL
MODEL 7
REMARK VINA RESULT:      -7.4      3.501      9.173
REMARK  Name = 
REMARK  6 active torsions:
REMARK  status: ('A' for Active; 'I' for Inactive)
REMARK    1  A    between atoms: C_1  and  C_2
REMARK    2  A    between atoms: C_5  and  C_6
REMARK    3  A    between atoms: C_9  and  S_10
REMARK    4  A    between atoms: S_10  and  N_13
REMARK    5  A    between atoms: C_18  and  C_19
REMARK    6  A    between atoms: C_24  and  N_25
REMARK                            x       y       z     vdW  Elec       q    Type
REMARK                         _______ _______ _______ _____ _____    ______ ____
ROOT
ATOM      1  S   UNL     1       0.524   9.612  20.739  0.00  0.00    +0.000 S 
ATOM      2  O   UNL     1      -0.485   8.940  21.535  0.00  0.00    +0.000 OA
ATOM      3  O   UNL     1       1.481  10.526  21.337  0.00  0.00    +0.000 OA
ENDROOT
BRANCH   1   7
ATOM      4  C   UNL     1       3.095   6.414  18.678  0.00  0.00    +0.000 A 
ATOM      5  C   UNL     1       2.539   6.151  19.937  0.00  0.00    +0.000 A 
ATOM      6  C   UNL     1       1.705   7.087  20.556  0.00  0.00    +0.000 A 
ATOM      7  C   UNL     1       1.490   8.333  19.963  0.00  0.00    +0.000 A 
ATOM      8  C   UNL     1       2.040   8.617  18.711  0.00  0.00    +0.000 A 
ATOM      9  C   UNL     1       2.818   7.651  18.076  0.00  0.00    +0.000 A 
ATOM     10  F   UNL     1       3.306   7.942  16.860  0.00  0.00    +0.000 F 
BRANCH   4  15
ATOM     11  C   UNL     1       7.242   4.563  17.065  0.00  0.00    +0.000 C 
ATOM     12  C   UNL     1       5.778   4.555  17.260  0.00  0.00    +0.000 A 
ATOM     13  C   UNL     1       4.787   3.675  16.885  0.00  0.00    +0.000 A 
ATOM     14  C   UNL     1       3.572   4.225  17.349  0.00  0.00    +0.000 A 
ATOM     15  C   UNL     1       3.887   5.406  17.990  0.00  0.00    +0.000 A 
ATOM     16  O   UNL     1       5.240   5.605  17.943  0.00  0.00    +0.000 OA
ENDBRANCH   4  15
ENDBRANCH   1   7
BRANCH   1  17
ATOM     17  N   UNL     1      -0.242  10.427  19.451  0.00  0.00    +0.000 NA
ATOM     18  C   UNL     1      -1.617   9.939  19.140  0.00  0.00    +0.000 C 
ATOM     19  C   UNL     1      -2.047  10.497  17.794  0.00  0.00    +0.000 C 
ATOM     20  C   UNL     1      -2.133  12.009  17.910  0.00  0.00    +0.000 C 
ATOM     21  C   UNL     1      -0.764  12.587  18.275  0.00  0.00    +0.000 C 
ATOM     22  C   UNL     1      -0.090  11.931  19.501  0.00  0.00    +0.000 C 
BRANCH  22  23
ATOM     23  C   UNL     1      -0.552  12.619  20.804  0.00  0.00    +0.000 C 
ATOM     24  O   UNL     1      -1.581  12.235  21.369  0.00  0.00    +0.000 OA
ATOM     25  N   UNL     1       0.148  13.717  21.282  0.00  0.00    +0.000 N 
ATOM     26  C   UNL     1      -0.280  14.388  22.500  0.00  0.00    +0.000 C 
ATOM     27  C   UNL     1       0.419  15.738  22.473  0.00  0.00    +0.000 C 
ATOM     28  C   UNL     1       1.755  15.450  21.784  0.00  0.00    +0.000 C 
ATOM     29  C   UNL     1       1.414  14.286  20.812  0.00  0.00    +0.000 C 
BRANCH  28  30
ATOM     30  N   UNL     1       2.795  15.112  22.761  0.00  0.00    +0.000 NA
ATOM     31  H   UNL     1       3.707  15.427  22.432  0.00  0.00    +0.000 HD
ATOM     32  H   UNL     1       2.860  14.100  22.864  0.00  0.00    +0.000 HD
ENDBRANCH  28  30
ENDBRANCH  22  23
ENDBRANCH   1  17
TORSDOF 5
ENDMDL
MODEL 8
REMARK VINA RESULT:      -7.4      3.670      9.758
REMARK  Name = 
REMARK  6 active torsions:
REMARK  status: ('A' for Active; 'I' for Inactive)
REMARK    1  A    between atoms: C_1  and  C_2
REMARK    2  A    between atoms: C_5  and  C_6
REMARK    3  A    between atoms: C_9  and  S_10
REMARK    4  A    between atoms: S_10  and  N_13
REMARK    5  A    between atoms: C_18  and  C_19
REMARK    6  A    between atoms: C_24  and  N_25
REMARK                            x       y       z     vdW  Elec       q    Type
REMARK                         _______ _______ _______ _____ _____    ______ ____
ROOT
ATOM      1  S   UNL     1      -0.079  10.472  20.172  0.00  0.00    +0.000 S 
ATOM      2  O   UNL     1      -0.972  10.564  19.033  0.00  0.00    +0.000 OA
ATOM      3  O   UNL     1      -0.585  10.356  21.528  0.00  0.00    +0.000 OA
ENDROOT
BRANCH   1   7
ATOM      4  C   UNL     1       2.623   6.839  19.405  0.00  0.00    +0.000 A 
ATOM      5  C   UNL     1       1.935   6.947  20.621  0.00  0.00    +0.000 A 
ATOM      6  C   UNL     1       1.061   8.015  20.852  0.00  0.00    +0.000 A 
ATOM      7  C   UNL     1       0.934   9.033  19.905  0.00  0.00    +0.000 A 
ATOM      8  C   UNL     1       1.615   8.946  18.688  0.00  0.00    +0.000 A 
ATOM      9  C   UNL     1       2.434   7.845  18.445  0.00  0.00    +0.000 A 
ATOM     10  F   UNL     1       3.050   7.775  17.255  0.00  0.00    +0.000 F 
BRANCH   4  15
ATOM     11  C   UNL     1       3.339   2.291  17.984  0.00  0.00    +0.000 C 
ATOM     12  C   UNL     1       3.791   3.610  18.471  0.00  0.00    +0.000 A 
ATOM     13  C   UNL     1       5.031   4.118  18.790  0.00  0.00    +0.000 A 
ATOM     14  C   UNL     1       4.816   5.448  19.216  0.00  0.00    +0.000 A 
ATOM     15  C   UNL     1       3.460   5.682  19.126  0.00  0.00    +0.000 A 
ATOM     16  O   UNL     1       2.830   4.560  18.662  0.00  0.00    +0.000 OA
ENDBRANCH   4  15
ENDBRANCH   1   7
BRANCH   1  17
ATOM     17  N   UNL     1       1.006  11.788  20.128  0.00  0.00    +0.000 NA
ATOM     18  C   UNL     1       1.477  12.157  18.761  0.00  0.00    +0.000 C 
ATOM     19  C   UNL     1       2.666  13.094  18.885  0.00  0.00    +0.000 C 
ATOM     20  C   UNL     1       2.196  14.377  19.549  0.00  0.00    +0.000 C 
ATOM     21  C   UNL     1       1.651  14.076  20.947  0.00  0.00    +0.000 C 
ATOM     22  C   UNL     1       0.592  12.952  21.000  0.00  0.00    +0.000 C 
BRANCH  22  23
ATOM     23  C   UNL     1      -0.819  13.526  20.747  0.00  0.00    +0.000 C 
ATOM     24  O   UNL     1      -1.101  13.994  19.639  0.00  0.00    +0.000 OA
ATOM     25  N   UNL     1      -1.730  13.587  21.791  0.00  0.00    +0.000 N 
ATOM     26  C   UNL     1      -3.059  14.138  21.575  0.00  0.00    +0.000 C 
ATOM     27  C   UNL     1      -3.594  14.434  22.968  0.00  0.00    +0.000 C 
ATOM     28  C   UNL     1      -2.984  13.335  23.841  0.00  0.00    +0.000 C 
ATOM     29  C   UNL     1      -1.627  13.035  23.145  0.00  0.00    +0.000 C 
BRANCH  28  30
ATOM     30  N   UNL     1      -3.870  12.170  23.925  0.00  0.00    +0.000 NA
ATOM     31  H   UNL     1      -3.441  11.437  24.488  0.00  0.00    +0.000 HD
ATOM     32  H   UNL     1      -4.012  11.773  22.996  0.00  0.00    +0.000 HD
ENDBRANCH  28  30
ENDBRANCH  22  23
ENDBRANCH   1  17
TORSDOF 5
ENDMDL
MODEL 9
REMARK VINA RESULT:      -7.2      3.622      9.691
REMARK  Name = 
REMARK  6 active torsions:
REMARK  status: ('A' for Active; 'I' for Inactive)
REMARK    1  A    between atoms: C_1  and  C_2
REMARK    2  A    between atoms: C_5  and  C_6
REMARK    3  A    between atoms: C_9  and  S_10
REMARK    4  A    between atoms: S_10  and  N_13
REMARK    5  A    between atoms: C_18  and  C_19
REMARK    6  A    between atoms: C_24  and  N_25
REMARK                            x       y       z     vdW  Elec       q    Type
REMARK                         _______ _______ _______ _____ _____    ______ ____
ROOT
ATOM      1  S   UNL     1       0.087  10.276  19.961  0.00  0.00    +0.000 S 
ATOM      2  O   UNL     1      -0.846  10.410  18.859  0.00  0.00    +0.000 OA
ATOM      3  O   UNL     1      -0.367  10.029  21.318  0.00  0.00    +0.000 OA
ENDROOT
BRANCH   1   7
ATOM      4  C   UNL     1       2.935   6.856  18.827  0.00  0.00    +0.000 A 
ATOM      5  C   UNL     1       2.307   6.849  20.080  0.00  0.00    +0.000 A 
ATOM      6  C   UNL     1       1.391   7.849  20.423  0.00  0.00    +0.000 A 
ATOM      7  C   UNL     1       1.161   8.916  19.551  0.00  0.00    +0.000 A 
ATOM      8  C   UNL     1       1.780   8.943  18.299  0.00  0.00    +0.000 A 
ATOM      9  C   UNL     1       2.642   7.908  17.945  0.00  0.00    +0.000 A 
ATOM     10  F   UNL     1       3.197   7.947  16.724  0.00  0.00    +0.000 F 
BRANCH   4  15
ATOM     11  C   UNL     1       7.261   4.936  17.926  0.00  0.00    +0.000 C 
ATOM     12  C   UNL     1       5.789   4.887  18.027  0.00  0.00    +0.000 A 
ATOM     13  C   UNL     1       4.866   3.891  17.798  0.00  0.00    +0.000 A 
ATOM     14  C   UNL     1       3.598   4.460  18.052  0.00  0.00    +0.000 A 
ATOM     15  C   UNL     1       3.816   5.768  18.432  0.00  0.00    +0.000 A 
ATOM     16  O   UNL     1       5.159   6.030  18.424  0.00  0.00    +0.000 OA
ENDBRANCH   4  15
ENDBRANCH   1   7
BRANCH   1  17
ATOM     17  N   UNL     1       1.105  11.645  19.990  0.00  0.00    +0.000 NA
ATOM     18  C   UNL     1       1.577  12.094  18.648  0.00  0.00    +0.000 C 
ATOM     19  C   UNL     1       2.716  13.084  18.831  0.00  0.00    +0.000 C 
ATOM     20  C   UNL     1       2.171  14.312  19.539  0.00  0.00    +0.000 C 
ATOM     21  C   UNL     1       1.620  13.926  20.914  0.00  0.00    +0.000 C 
ATOM     22  C   UNL     1       0.619  12.749  20.902  0.00  0.00    +0.000 C 
BRANCH  22  23
ATOM     23  C   UNL     1      -0.815  13.262  20.648  0.00  0.00    +0.000 C 
ATOM     24  O   UNL     1      -1.138  13.646  19.519  0.00  0.00    +0.000 OA
ATOM     25  N   UNL     1      -1.702  13.366  21.709  0.00  0.00    +0.000 N 
ATOM     26  C   UNL     1      -3.053  13.861  21.492  0.00  0.00    +0.000 C 
ATOM     27  C   UNL     1      -3.563  14.234  22.875  0.00  0.00    +0.000 C 
ATOM     28  C   UNL     1      -2.898  13.216  23.804  0.00  0.00    +0.000 C 
ATOM     29  C   UNL     1      -1.549  12.910  23.094  0.00  0.00    +0.000 C 
BRANCH  28  30
ATOM     30  N   UNL     1      -3.744  12.033  23.988  0.00  0.00    +0.000 NA
ATOM     31  H   UNL     1      -3.169  11.206  24.147  0.00  0.00    +0.000 HD
ATOM     32  H   UNL     1      -4.280  11.852  23.139  0.00  0.00    +0.000 HD
ENDBRANCH  28  30
ENDBRANCH  22  23
ENDBRANCH   1  17
TORSDOF 5
ENDMDL
