MODEL 1
REMARK VINA RESULT:      -7.4      0.000      0.000
REMARK  Name = 
REMARK  5 active torsions:
REMARK  status: ('A' for Active; 'I' for Inactive)
REMARK    1  A    between atoms: C_1  and  C_2
REMARK    2  A    between atoms: C_4  and  O_5
REMARK    3  A    between atoms: C_8  and  O_9
REMARK    4  A    between atoms: C_11  and  C_12
REMARK    5  A    between atoms: C_12  and  C_14
REMARK                            x       y       z     vdW  Elec       q    Type
REMARK                         _______ _______ _______ _____ _____    ______ ____
ROOT
ATOM      1  C   UNL     1       2.483   6.755  17.991  0.00  0.00    +0.000 C 
ATOM      2  C   UNL     1       3.834   6.107  17.865  0.00  0.00    +0.000 A 
ATOM      3  C   UNL     1       4.810   6.941  17.165  0.00  0.00    +0.000 A 
ATOM      4  C   UNL     1       5.489   6.330  16.172  0.00  0.00    +0.000 A 
ATOM      5  C   UNL     1       6.815   5.996  16.758  0.00  0.00    +0.000 A 
ATOM      6  O   UNL     1       7.845   6.556  16.418  0.00  0.00    +0.000 OA
ATOM      7  C   UNL     1       6.751   4.848  17.755  0.00  0.00    +0.000 A 
ATOM      8  C   UNL     1       5.623   4.422  18.373  0.00  0.00    +0.000 A 
ATOM      9  C   UNL     1       4.205   4.848  18.259  0.00  0.00    +0.000 A 
ENDROOT
BRANCH   4  10
ATOM     10  O   UNL     1       4.884   5.345  15.387  0.00  0.00    +0.000 OA
ATOM     11  H   UNL     1       4.208   5.779  14.833  0.00  0.00    +0.000 HD
ENDBRANCH   4  10
BRANCH   7  12
ATOM     12  O   UNL     1       7.967   4.221  18.006  0.00  0.00    +0.000 OA
ATOM     13  H   UNL     1       8.681   4.755  17.621  0.00  0.00    +0.000 HD
ENDBRANCH   7  12
BRANCH   9  14
ATOM     14  C   UNL     1       3.052   3.843  18.411  0.00  0.00    +0.000 C 
ATOM     15  O   UNL     1       2.603   3.297  17.396  0.00  0.00    +0.000 OA
BRANCH  14  16
ATOM     16  C   UNL     1       2.533   3.390  19.687  0.00  0.00    +0.000 A 
ATOM     17  C   UNL     1       1.217   3.441  20.123  0.00  0.00    +0.000 A 
ATOM     18  C   UNL     1       1.170   2.855  21.402  0.00  0.00    +0.000 A 
ATOM     19  C   UNL     1       2.466   2.489  21.686  0.00  0.00    +0.000 A 
ATOM     20  O   UNL     1       3.293   2.806  20.660  0.00  0.00    +0.000 OA
ENDBRANCH  14  16
ENDBRANCH   9  14
TORSDOF 4
ENDMDL
MODEL 2
REMARK VINA RESULT:      -7.4      1.810      5.296
REMARK  Name = 
REMARK  5 active torsions:
REMARK  status: ('A' for Active; 'I' for Inactive)
REMARK    1  A    between atoms: C_1  and  C_2
REMARK    2  A    between atoms: C_4  and  O_5
REMARK    3  A    between atoms: C_8  and  O_9
REMARK    4  A    between atoms: C_11  and  C_12
REMARK    5  A    between atoms: C_12  and  C_14
REMARK                            x       y       z     vdW  Elec       q    Type
REMARK                         _______ _______ _______ _____ _____    ______ ____
ROOT
ATOM      1  C   UNL     1       2.921   7.681  17.669  0.00  0.00    +0.000 C 
ATOM      2  C   UNL     1       3.242   6.220  17.825  0.00  0.00    +0.000 A 
ATOM      3  C   UNL     1       2.490   5.577  18.902  0.00  0.00    +0.000 A 
ATOM      4  C   UNL     1       3.223   4.846  19.767  0.00  0.00    +0.000 A 
ATOM      5  C   UNL     1       3.024   3.433  19.346  0.00  0.00    +0.000 A 
ATOM      6  O   UNL     1       2.388   2.632  20.011  0.00  0.00    +0.000 OA
ATOM      7  C   UNL     1       3.752   3.090  18.054  0.00  0.00    +0.000 A 
ATOM      8  C   UNL     1       4.196   3.998  17.151  0.00  0.00    +0.000 A 
ATOM      9  C   UNL     1       4.173   5.483  17.142  0.00  0.00    +0.000 A 
ENDROOT
BRANCH   4  10
ATOM     10  O   UNL     1       4.527   5.223  20.102  0.00  0.00    +0.000 OA
ATOM     11  H   UNL     1       4.844   5.839  19.415  0.00  0.00    +0.000 HD
ENDBRANCH   4  10
BRANCH   7  12
ATOM     12  O   UNL     1       3.958   1.732  17.840  0.00  0.00    +0.000 OA
ATOM     13  H   UNL     1       4.556   1.620  17.084  0.00  0.00    +0.000 HD
ENDBRANCH   7  12
BRANCH   9  14
ATOM     14  C   UNL     1       5.307   6.297  16.497  0.00  0.00    +0.000 C 
ATOM     15  O   UNL     1       5.208   6.612  15.305  0.00  0.00    +0.000 OA
BRANCH  14  16
ATOM     16  C   UNL     1       6.437   6.836  17.229  0.00  0.00    +0.000 A 
ATOM     17  C   UNL     1       7.183   6.198  18.210  0.00  0.00    +0.000 A 
ATOM     18  C   UNL     1       8.202   7.083  18.611  0.00  0.00    +0.000 A 
ATOM     19  C   UNL     1       8.015   8.223  17.862  0.00  0.00    +0.000 A 
ATOM     20  O   UNL     1       6.956   8.083  17.027  0.00  0.00    +0.000 OA
ENDBRANCH  14  16
ENDBRANCH   9  14
TORSDOF 4
ENDMDL
MODEL 3
REMARK VINA RESULT:      -7.3      1.433      1.704
REMARK  Name = 
REMARK  5 active torsions:
REMARK  status: ('A' for Active; 'I' for Inactive)
REMARK    1  A    between atoms: C_1  and  C_2
REMARK    2  A    between atoms: C_4  and  O_5
REMARK    3  A    between atoms: C_8  and  O_9
REMARK    4  A    between atoms: C_11  and  C_12
REMARK    5  A    between atoms: C_12  and  C_14
REMARK                            x       y       z     vdW  Elec       q    Type
REMARK                         _______ _______ _______ _____ _____    ______ ____
ROOT
ATOM      1  C   UNL     1       3.202   7.419  17.543  0.00  0.00    +0.000 C 
ATOM      2  C   UNL     1       4.396   6.506  17.482  0.00  0.00    +0.000 A 
ATOM      3  C   UNL     1       5.147   6.623  16.233  0.00  0.00    +0.000 A 
ATOM      4  C   UNL     1       5.429   5.458  15.613  0.00  0.00    +0.000 A 
ATOM      5  C   UNL     1       6.849   5.172  15.956  0.00  0.00    +0.000 A 
ATOM      6  O   UNL     1       7.749   5.231  15.134  0.00  0.00    +0.000 OA
ATOM      7  C   UNL     1       7.034   4.734  17.402  0.00  0.00    +0.000 A 
ATOM      8  C   UNL     1       6.139   4.950  18.396  0.00  0.00    +0.000 A 
ATOM      9  C   UNL     1       4.791   5.572  18.403  0.00  0.00    +0.000 A 
ENDROOT
BRANCH   4  10
ATOM     10  O   UNL     1       4.541   4.380  15.669  0.00  0.00    +0.000 OA
ATOM     11  H   UNL     1       4.012   4.473  16.484  0.00  0.00    +0.000 HD
ENDBRANCH   4  10
BRANCH   7  12
ATOM     12  O   UNL     1       8.222   4.060  17.662  0.00  0.00    +0.000 OA
ATOM     13  H   UNL     1       8.110   3.124  17.430  0.00  0.00    +0.000 HD
ENDBRANCH   7  12
BRANCH   9  14
ATOM     14  C   UNL     1       3.685   5.076  19.348  0.00  0.00    +0.000 C 
ATOM     15  O   UNL     1       3.405   5.757  20.342  0.00  0.00    +0.000 OA
BRANCH  14  16
ATOM     16  C   UNL     1       2.851   3.919  19.087  0.00  0.00    +0.000 A 
ATOM     17  C   UNL     1       1.504   3.914  18.754  0.00  0.00    +0.000 A 
ATOM     18  C   UNL     1       1.121   2.574  18.553  0.00  0.00    +0.000 A 
ATOM     19  C   UNL     1       2.254   1.829  18.788  0.00  0.00    +0.000 A 
ATOM     20  O   UNL     1       3.301   2.629  19.109  0.00  0.00    +0.000 OA
ENDBRANCH  14  16
ENDBRANCH   9  14
TORSDOF 4
ENDMDL
MODEL 4
REMARK VINA RESULT:      -7.3      1.553      2.287
REMARK  Name = 
REMARK  5 active torsions:
REMARK  status: ('A' for Active; 'I' for Inactive)
REMARK    1  A    between atoms: C_1  and  C_2
REMARK    2  A    between atoms: C_4  and  O_5
REMARK    3  A    between atoms: C_8  and  O_9
REMARK    4  A    between atoms: C_11  and  C_12
REMARK    5  A    between atoms: C_12  and  C_14
REMARK                            x       y       z     vdW  Elec       q    Type
REMARK                         _______ _______ _______ _____ _____    ______ ____
ROOT
ATOM      1  C   UNL     1       2.507   3.567  17.149  0.00  0.00    +0.000 C 
ATOM      2  C   UNL     1       3.657   4.536  17.186  0.00  0.00    +0.000 A 
ATOM      3  C   UNL     1       4.787   4.120  16.356  0.00  0.00    +0.000 A 
ATOM      4  C   UNL     1       5.993   4.150  16.960  0.00  0.00    +0.000 A 
ATOM      5  C   UNL     1       6.636   5.403  16.479  0.00  0.00    +0.000 A 
ATOM      6  O   UNL     1       7.591   5.403  15.719  0.00  0.00    +0.000 OA
ATOM      7  C   UNL     1       6.024   6.656  17.088  0.00  0.00    +0.000 A 
ATOM      8  C   UNL     1       4.802   6.716  17.671  0.00  0.00    +0.000 A 
ATOM      9  C   UNL     1       3.775   5.676  17.936  0.00  0.00    +0.000 A 
ENDROOT
BRANCH   4  10
ATOM     10  O   UNL     1       6.124   3.862  18.321  0.00  0.00    +0.000 OA
ATOM     11  H   UNL     1       6.053   4.702  18.811  0.00  0.00    +0.000 HD
ENDBRANCH   4  10
BRANCH   7  12
ATOM     12  O   UNL     1       6.824   7.791  17.020  0.00  0.00    +0.000 OA
ATOM     13  H   UNL     1       6.771   8.264  17.867  0.00  0.00    +0.000 HD
ENDBRANCH   7  12
BRANCH   9  14
ATOM     14  C   UNL     1       2.883   5.733  19.186  0.00  0.00    +0.000 C 
ATOM     15  O   UNL     1       2.272   6.780  19.433  0.00  0.00    +0.000 OA
BRANCH  14  16
ATOM     16  C   UNL     1       2.602   4.592  20.037  0.00  0.00    +0.000 A 
ATOM     17  C   UNL     1       1.395   4.274  20.643  0.00  0.00    +0.000 A 
ATOM     18  C   UNL     1       1.575   3.063  21.339  0.00  0.00    +0.000 A 
ATOM     19  C   UNL     1       2.891   2.713  21.132  0.00  0.00    +0.000 A 
ATOM     20  O   UNL     1       3.516   3.626  20.349  0.00  0.00    +0.000 OA
ENDBRANCH  14  16
ENDBRANCH   9  14
TORSDOF 4
ENDMDL
MODEL 5
REMARK VINA RESULT:      -7.3      2.345      5.966
REMARK  Name = 
REMARK  5 active torsions:
REMARK  status: ('A' for Active; 'I' for Inactive)
REMARK    1  A    between atoms: C_1  and  C_2
REMARK    2  A    between atoms: C_4  and  O_5
REMARK    3  A    between atoms: C_8  and  O_9
REMARK    4  A    between atoms: C_11  and  C_12
REMARK    5  A    between atoms: C_12  and  C_14
REMARK                            x       y       z     vdW  Elec       q    Type
REMARK                         _______ _______ _______ _____ _____    ______ ____
ROOT
ATOM      1  C   UNL     1       5.649   7.157  16.958  0.00  0.00    +0.000 C 
ATOM      2  C   UNL     1       5.077   5.801  17.271  0.00  0.00    +0.000 A 
ATOM      3  C   UNL     1       4.135   5.818  18.390  0.00  0.00    +0.000 A 
ATOM      4  C   UNL     1       4.348   4.887  19.342  0.00  0.00    +0.000 A 
ATOM      5  C   UNL     1       3.356   3.814  19.063  0.00  0.00    +0.000 A 
ATOM      6  O   UNL     1       2.401   3.596  19.792  0.00  0.00    +0.000 OA
ATOM      7  C   UNL     1       3.702   2.990  17.831  0.00  0.00    +0.000 A 
ATOM      8  C   UNL     1       4.551   3.384  16.851  0.00  0.00    +0.000 A 
ATOM      9  C   UNL     1       5.387   4.601  16.689  0.00  0.00    +0.000 A 
ENDROOT
BRANCH   4  10
ATOM     10  O   UNL     1       5.643   4.474  19.668  0.00  0.00    +0.000 OA
ATOM     11  H   UNL     1       5.718   3.527  19.444  0.00  0.00    +0.000 HD
ENDBRANCH   4  10
BRANCH   7  12
ATOM     12  O   UNL     1       3.080   1.749  17.763  0.00  0.00    +0.000 OA
ATOM     13  H   UNL     1       3.734   1.084  17.492  0.00  0.00    +0.000 HD
ENDBRANCH   7  12
BRANCH   9  14
ATOM     14  C   UNL     1       6.755   4.545  15.992  0.00  0.00    +0.000 C 
ATOM     15  O   UNL     1       7.766   4.368  16.682  0.00  0.00    +0.000 OA
BRANCH  14  16
ATOM     16  C   UNL     1       6.935   4.557  14.553  0.00  0.00    +0.000 A 
ATOM     17  C   UNL     1       6.266   3.781  13.617  0.00  0.00    +0.000 A 
ATOM     18  C   UNL     1       6.732   4.156  12.342  0.00  0.00    +0.000 A 
ATOM     19  C   UNL     1       7.675   5.133  12.569  0.00  0.00    +0.000 A 
ATOM     20  O   UNL     1       7.803   5.382  13.896  0.00  0.00    +0.000 OA
ENDBRANCH  14  16
ENDBRANCH   9  14
TORSDOF 4
ENDMDL
MODEL 6
REMARK VINA RESULT:      -7.3      2.350      3.959
REMARK  Name = 
REMARK  5 active torsions:
REMARK  status: ('A' for Active; 'I' for Inactive)
REMARK    1  A    between atoms: C_1  and  C_2
REMARK    2  A    between atoms: C_4  and  O_5
REMARK    3  A    between atoms: C_8  and  O_9
REMARK    4  A    between atoms: C_11  and  C_12
REMARK    5  A    between atoms: C_12  and  C_14
REMARK                            x       y       z     vdW  Elec       q    Type
REMARK                         _______ _______ _______ _____ _____    ______ ____
ROOT
ATOM      1  C   UNL     1       2.399   3.957  17.403  0.00  0.00    +0.000 C 
ATOM      2  C   UNL     1       3.698   4.711  17.326  0.00  0.00    +0.000 A 
ATOM      3  C   UNL     1       4.777   3.939  16.709  0.00  0.00    +0.000 A 
ATOM      4  C   UNL     1       5.938   3.915  17.394  0.00  0.00    +0.000 A 
ATOM      5  C   UNL     1       6.813   4.903  16.707  0.00  0.00    +0.000 A 
ATOM      6  O   UNL     1       7.790   4.574  16.052  0.00  0.00    +0.000 OA
ATOM      7  C   UNL     1       6.402   6.345  16.969  0.00  0.00    +0.000 A 
ATOM      8  C   UNL     1       5.183   6.733  17.416  0.00  0.00    +0.000 A 
ATOM      9  C   UNL     1       3.978   5.960  17.814  0.00  0.00    +0.000 A 
ENDROOT
BRANCH   4  10
ATOM     10  O   UNL     1       5.950   3.933  18.792  0.00  0.00    +0.000 OA
ATOM     11  H   UNL     1       6.825   4.257  19.077  0.00  0.00    +0.000 HD
ENDBRANCH   4  10
BRANCH   7  12
ATOM     12  O   UNL     1       7.391   7.290  16.723  0.00  0.00    +0.000 OA
ATOM     13  H   UNL     1       7.594   7.294  15.774  0.00  0.00    +0.000 HD
ENDBRANCH   7  12
BRANCH   9  14
ATOM     14  C   UNL     1       3.050   6.448  18.938  0.00  0.00    +0.000 C 
ATOM     15  O   UNL     1       3.024   5.817  20.001  0.00  0.00    +0.000 OA
BRANCH  14  16
ATOM     16  C   UNL     1       2.289   7.681  18.886  0.00  0.00    +0.000 A 
ATOM     17  C   UNL     1       2.010   8.448  17.763  0.00  0.00    +0.000 A 
ATOM     18  C   UNL     1       1.211   9.531  18.177  0.00  0.00    +0.000 A 
ATOM     19  C   UNL     1       1.057   9.376  19.536  0.00  0.00    +0.000 A 
ATOM     20  O   UNL     1       1.701   8.265  19.972  0.00  0.00    +0.000 OA
ENDBRANCH  14  16
ENDBRANCH   9  14
TORSDOF 4
ENDMDL
MODEL 7
REMARK VINA RESULT:      -7.2      1.596      5.173
REMARK  Name = 
REMARK  5 active torsions:
REMARK  status: ('A' for Active; 'I' for Inactive)
REMARK    1  A    between atoms: C_1  and  C_2
REMARK    2  A    between atoms: C_4  and  O_5
REMARK    3  A    between atoms: C_8  and  O_9
REMARK    4  A    between atoms: C_11  and  C_12
REMARK    5  A    between atoms: C_12  and  C_14
REMARK                            x       y       z     vdW  Elec       q    Type
REMARK                         _______ _______ _______ _____ _____    ______ ____
ROOT
ATOM      1  C   UNL     1       3.340   7.604  17.653  0.00  0.00    +0.000 C 
ATOM      2  C   UNL     1       3.095   6.136  17.870  0.00  0.00    +0.000 A 
ATOM      3  C   UNL     1       2.031   5.866  18.837  0.00  0.00    +0.000 A 
ATOM      4  C   UNL     1       2.337   4.978  19.805  0.00  0.00    +0.000 A 
ATOM      5  C   UNL     1       1.702   3.703  19.376  0.00  0.00    +0.000 A 
ATOM      6  O   UNL     1       0.741   3.220  19.953  0.00  0.00    +0.000 OA
ATOM      7  C   UNL     1       2.418   3.047  18.204  0.00  0.00    +0.000 A 
ATOM      8  C   UNL     1       3.268   3.684  17.362  0.00  0.00    +0.000 A 
ATOM      9  C   UNL     1       3.780   5.078  17.333  0.00  0.00    +0.000 A 
ENDROOT
BRANCH   4  10
ATOM     10  O   UNL     1       3.635   4.891  20.316  0.00  0.00    +0.000 OA
ATOM     11  H   UNL     1       3.578   4.966  21.287  0.00  0.00    +0.000 HD
ENDBRANCH   4  10
BRANCH   7  12
ATOM     12  O   UNL     1       2.150   1.694  18.037  0.00  0.00    +0.000 OA
ATOM     13  H   UNL     1       2.491   1.410  17.173  0.00  0.00    +0.000 HD
ENDBRANCH   7  12
BRANCH   9  14
ATOM     14  C   UNL     1       5.202   5.399  16.846  0.00  0.00    +0.000 C 
ATOM     15  O   UNL     1       5.405   5.498  15.630  0.00  0.00    +0.000 OA
BRANCH  14  16
ATOM     16  C   UNL     1       6.309   5.722  17.726  0.00  0.00    +0.000 A 
ATOM     17  C   UNL     1       7.246   6.732  17.560  0.00  0.00    +0.000 A 
ATOM     18  C   UNL     1       8.106   6.701  18.675  0.00  0.00    +0.000 A 
ATOM     19  C   UNL     1       7.656   5.662  19.457  0.00  0.00    +0.000 A 
ATOM     20  O   UNL     1       6.574   5.068  18.896  0.00  0.00    +0.000 OA
ENDBRANCH  14  16
ENDBRANCH   9  14
TORSDOF 4
ENDMDL
MODEL 8
REMARK VINA RESULT:      -7.1      1.901      5.703
REMARK  Name = 
REMARK  5 active torsions:
REMARK  status: ('A' for Active; 'I' for Inactive)
REMARK    1  A    between atoms: C_1  and  C_2
REMARK    2  A    between atoms: C_4  and  O_5
REMARK    3  A    between atoms: C_8  and  O_9
REMARK    4  A    between atoms: C_11  and  C_12
REMARK    5  A    between atoms: C_12  and  C_14
REMARK                            x       y       z     vdW  Elec       q    Type
REMARK                         _______ _______ _______ _____ _____    ______ ____
ROOT
ATOM      1  C   UNL     1       4.093   6.989  17.317  0.00  0.00    +0.000 C 
ATOM      2  C   UNL     1       3.636   5.625  17.754  0.00  0.00    +0.000 A 
ATOM      3  C   UNL     1       2.446   5.661  18.604  0.00  0.00    +0.000 A 
ATOM      4  C   UNL     1       2.526   4.946  19.746  0.00  0.00    +0.000 A 
ATOM      5  C   UNL     1       1.781   3.689  19.468  0.00  0.00    +0.000 A 
ATOM      6  O   UNL     1       0.708   3.431  19.989  0.00  0.00    +0.000 OA
ATOM      7  C   UNL     1       2.530   2.748  18.535  0.00  0.00    +0.000 A 
ATOM      8  C   UNL     1       3.544   3.117  17.715  0.00  0.00    +0.000 A 
ATOM      9  C   UNL     1       4.233   4.416  17.508  0.00  0.00    +0.000 A 
ENDROOT
BRANCH   4  10
ATOM     10  O   UNL     1       3.737   4.819  20.432  0.00  0.00    +0.000 OA
ATOM     11  H   UNL     1       3.634   4.101  21.085  0.00  0.00    +0.000 HD
ENDBRANCH   4  10
BRANCH   7  12
ATOM     12  O   UNL     1       2.108   1.424  18.575  0.00  0.00    +0.000 OA
ATOM     13  H   UNL     1       2.267   1.017  17.708  0.00  0.00    +0.000 HD
ENDBRANCH   7  12
BRANCH   9  14
ATOM     14  C   UNL     1       5.730   4.483  17.165  0.00  0.00    +0.000 C 
ATOM     15  O   UNL     1       6.554   4.385  18.082  0.00  0.00    +0.000 OA
BRANCH  14  16
ATOM     16  C   UNL     1       6.252   4.525  15.813  0.00  0.00    +0.000 A 
ATOM     17  C   UNL     1       5.816   3.787  14.722  0.00  0.00    +0.000 A 
ATOM     18  C   UNL     1       6.583   4.181  13.608  0.00  0.00    +0.000 A 
ATOM     19  C   UNL     1       7.459   5.131  14.084  0.00  0.00    +0.000 A 
ATOM     20  O   UNL     1       7.267   5.345  15.409  0.00  0.00    +0.000 OA
ENDBRANCH  14  16
ENDBRANCH   9  14
TORSDOF 4
ENDMDL
MODEL 9
REMARK VINA RESULT:      -7.0      1.838      5.510
REMARK  Name = 
REMARK  5 active torsions:
REMARK  status: ('A' for Active; 'I' for Inactive)
REMARK    1  A    between atoms: C_1  and  C_2
REMARK    2  A    between atoms: C_4  and  O_5
REMARK    3  A    between atoms: C_8  and  O_9
REMARK    4  A    between atoms: C_11  and  C_12
REMARK    5  A    between atoms: C_12  and  C_14
REMARK                            x       y       z     vdW  Elec       q    Type
REMARK                         _______ _______ _______ _____ _____    ______ ____
ROOT
ATOM      1  C   UNL     1       1.420   4.869  17.414  0.00  0.00    +0.000 C 
ATOM      2  C   UNL     1       2.268   4.190  18.454  0.00  0.00    +0.000 A 
ATOM      3  C   UNL     1       1.491   3.655  19.572  0.00  0.00    +0.000 A 
ATOM      4  C   UNL     1       1.942   3.981  20.801  0.00  0.00    +0.000 A 
ATOM      5  C   UNL     1       2.676   2.778  21.276  0.00  0.00    +0.000 A 
ATOM      6  O   UNL     1       2.263   2.069  22.180  0.00  0.00    +0.000 OA
ATOM      7  C   UNL     1       4.009   2.578  20.570  0.00  0.00    +0.000 A 
ATOM      8  C   UNL     1       4.349   3.141  19.385  0.00  0.00    +0.000 A 
ATOM      9  C   UNL     1       3.634   4.089  18.493  0.00  0.00    +0.000 A 
ENDROOT
BRANCH   4  10
ATOM     10  O   UNL     1       2.545   5.219  21.041  0.00  0.00    +0.000 OA
ATOM     11  H   UNL     1       1.978   5.908  20.646  0.00  0.00    +0.000 HD
ENDBRANCH   4  10
BRANCH   7  12
ATOM     12  O   UNL     1       4.909   1.755  21.238  0.00  0.00    +0.000 OA
ATOM     13  H   UNL     1       5.805   1.939  20.912  0.00  0.00    +0.000 HD
ENDBRANCH   7  12
BRANCH   9  14
ATOM     14  C   UNL     1       4.392   5.145  17.674  0.00  0.00    +0.000 C 
ATOM     15  O   UNL     1       4.317   6.330  18.020  0.00  0.00    +0.000 OA
BRANCH  14  16
ATOM     16  C   UNL     1       5.303   4.832  16.589  0.00  0.00    +0.000 A 
ATOM     17  C   UNL     1       5.055   4.014  15.496  0.00  0.00    +0.000 A 
ATOM     18  C   UNL     1       6.205   4.033  14.682  0.00  0.00    +0.000 A 
ATOM     19  C   UNL     1       7.100   4.853  15.332  0.00  0.00    +0.000 A 
ATOM     20  O   UNL     1       6.567   5.339  16.479  0.00  0.00    +0.000 OA
ENDBRANCH  14  16
ENDBRANCH   9  14
TORSDOF 4
ENDMDL
