MODEL 1
REMARK VINA RESULT:      -6.5      0.000      0.000
REMARK  Name = 
REMARK  10 active torsions:
REMARK  status: ('A' for Active; 'I' for Inactive)
REMARK    1  A    between atoms: N_12  and  C_13
REMARK    2  A    between atoms: C_13  and  C_14
REMARK    3  A    between atoms: C_14  and  C_15
REMARK    4  A    between atoms: C_15  and  C_16
REMARK    5  A    between atoms: C_16  and  C_17
REMARK    6  A    between atoms: C_17  and  C_18
REMARK    7  A    between atoms: C_18  and  C_19
REMARK    8  A    between atoms: C_19  and  C_20
REMARK    9  A    between atoms: C_20  and  C_21
REMARK   10  A    between atoms: C_21  and  C_22
REMARK                            x       y       z     vdW  Elec       q    Type
REMARK                         _______ _______ _______ _____ _____    ______ ____
ROOT
ATOM      1  O   UNL     1       4.716   4.941  15.627  0.00  0.00    +0.000 OA
ATOM      2  C   UNL     1       5.079   4.752  16.785  0.00  0.00    +0.000 A 
ATOM      3  C   UNL     1       6.141   5.590  17.367  0.00  0.00    +0.000 A 
ATOM      4  C   UNL     1       6.672   6.670  16.656  0.00  0.00    +0.000 A 
ATOM      5  C   UNL     1       7.640   7.471  17.256  0.00  0.00    +0.000 A 
ATOM      6  C   UNL     1       8.066   7.172  18.546  0.00  0.00    +0.000 A 
ATOM      7  F   UNL     1       8.994   7.946  19.124  0.00  0.00    +0.000 F 
ATOM      8  C   UNL     1       7.544   6.092  19.252  0.00  0.00    +0.000 A 
ATOM      9  C   UNL     1       6.562   5.295  18.669  0.00  0.00    +0.000 A 
ATOM     10  N   UNL     1       6.017   4.237  19.417  0.00  0.00    +0.000 NA
ATOM     11  C   UNL     1       5.054   3.566  18.884  0.00  0.00    +0.000 A 
ATOM     12  N   UNL     1       4.546   3.790  17.630  0.00  0.00    +0.000 N 
ENDROOT
BRANCH  12  13
ATOM     13  C   UNL     1       3.409   3.022  17.165  0.00  0.00    +0.000 C 
BRANCH  13  14
ATOM     14  C   UNL     1       2.634   2.370  18.312  0.00  0.00    +0.000 C 
BRANCH  14  15
ATOM     15  C   UNL     1       1.173   2.822  18.341  0.00  0.00    +0.000 C 
BRANCH  15  16
ATOM     16  C   UNL     1       0.686   3.041  19.770  0.00  0.00    +0.000 C 
BRANCH  16  17
ATOM     17  C   UNL     1       1.834   3.200  20.751  0.00  0.00    +0.000 C 
BRANCH  17  18
ATOM     18  C   UNL     1       1.925   4.659  21.188  0.00  0.00    +0.000 C 
BRANCH  18  19
ATOM     19  C   UNL     1       2.951   5.403  20.348  0.00  0.00    +0.000 C 
BRANCH  19  20
ATOM     20  C   UNL     1       2.357   6.689  19.786  0.00  0.00    +0.000 C 
BRANCH  20  21
ATOM     21  C   UNL     1       2.354   6.651  18.262  0.00  0.00    +0.000 C 
BRANCH  21  22
ATOM     22  C   UNL     1       2.908   7.944  17.693  0.00  0.00    +0.000 C 
ATOM     23 BR   UNL     1       1.627   9.381  17.972  0.00  0.00    +0.000 Br
ENDBRANCH  21  22
ENDBRANCH  20  21
ENDBRANCH  19  20
ENDBRANCH  18  19
ENDBRANCH  17  18
ENDBRANCH  16  17
ENDBRANCH  15  16
ENDBRANCH  14  15
ENDBRANCH  13  14
ENDBRANCH  12  13
TORSDOF 10
ENDMDL
MODEL 2
REMARK VINA RESULT:      -6.4      1.379      1.543
REMARK  Name = 
REMARK  10 active torsions:
REMARK  status: ('A' for Active; 'I' for Inactive)
REMARK    1  A    between atoms: N_12  and  C_13
REMARK    2  A    between atoms: C_13  and  C_14
REMARK    3  A    between atoms: C_14  and  C_15
REMARK    4  A    between atoms: C_15  and  C_16
REMARK    5  A    between atoms: C_16  and  C_17
REMARK    6  A    between atoms: C_17  and  C_18
REMARK    7  A    between atoms: C_18  and  C_19
REMARK    8  A    between atoms: C_19  and  C_20
REMARK    9  A    between atoms: C_20  and  C_21
REMARK   10  A    between atoms: C_21  and  C_22
REMARK                            x       y       z     vdW  Elec       q    Type
REMARK                         _______ _______ _______ _____ _____    ______ ____
ROOT
ATOM      1  O   UNL     1       4.314   4.164  15.783  0.00  0.00    +0.000 OA
ATOM      2  C   UNL     1       4.685   4.120  16.952  0.00  0.00    +0.000 A 
ATOM      3  C   UNL     1       5.766   5.010  17.412  0.00  0.00    +0.000 A 
ATOM      4  C   UNL     1       6.305   5.980  16.563  0.00  0.00    +0.000 A 
ATOM      5  C   UNL     1       7.291   6.836  17.046  0.00  0.00    +0.000 A 
ATOM      6  C   UNL     1       7.725   6.699  18.361  0.00  0.00    +0.000 A 
ATOM      7  F   UNL     1       8.671   7.527  18.826  0.00  0.00    +0.000 F 
ATOM      8  C   UNL     1       7.195   5.729  19.205  0.00  0.00    +0.000 A 
ATOM      9  C   UNL     1       6.196   4.878  18.738  0.00  0.00    +0.000 A 
ATOM     10  N   UNL     1       5.642   3.936  19.621  0.00  0.00    +0.000 NA
ATOM     11  C   UNL     1       4.664   3.216  19.187  0.00  0.00    +0.000 A 
ATOM     12  N   UNL     1       4.147   3.284  17.919  0.00  0.00    +0.000 N 
ENDROOT
BRANCH  12  13
ATOM     13  C   UNL     1       2.994   2.481  17.566  0.00  0.00    +0.000 C 
BRANCH  13  14
ATOM     14  C   UNL     1       2.057   2.248  18.754  0.00  0.00    +0.000 C 
BRANCH  14  15
ATOM     15  C   UNL     1       1.071   3.403  18.936  0.00  0.00    +0.000 C 
BRANCH  15  16
ATOM     16  C   UNL     1       0.862   3.731  20.411  0.00  0.00    +0.000 C 
BRANCH  16  17
ATOM     17  C   UNL     1       2.016   4.528  20.991  0.00  0.00    +0.000 C 
BRANCH  17  18
ATOM     18  C   UNL     1       2.141   5.852  20.241  0.00  0.00    +0.000 C 
BRANCH  18  19
ATOM     19  C   UNL     1       1.113   6.849  20.749  0.00  0.00    +0.000 C 
BRANCH  19  20
ATOM     20  C   UNL     1       1.696   8.257  20.775  0.00  0.00    +0.000 C 
BRANCH  20  21
ATOM     21  C   UNL     1       0.612   9.287  20.471  0.00  0.00    +0.000 C 
BRANCH  21  22
ATOM     22  C   UNL     1       0.765   9.824  19.061  0.00  0.00    +0.000 C 
ATOM     23 BR   UNL     1      -0.972  10.371  18.379  0.00  0.00    +0.000 Br
ENDBRANCH  21  22
ENDBRANCH  20  21
ENDBRANCH  19  20
ENDBRANCH  18  19
ENDBRANCH  17  18
ENDBRANCH  16  17
ENDBRANCH  15  16
ENDBRANCH  14  15
ENDBRANCH  13  14
ENDBRANCH  12  13
TORSDOF 10
ENDMDL
MODEL 3
REMARK VINA RESULT:      -6.4      1.381      1.920
REMARK  Name = 
REMARK  10 active torsions:
REMARK  status: ('A' for Active; 'I' for Inactive)
REMARK    1  A    between atoms: N_12  and  C_13
REMARK    2  A    between atoms: C_13  and  C_14
REMARK    3  A    between atoms: C_14  and  C_15
REMARK    4  A    between atoms: C_15  and  C_16
REMARK    5  A    between atoms: C_16  and  C_17
REMARK    6  A    between atoms: C_17  and  C_18
REMARK    7  A    between atoms: C_18  and  C_19
REMARK    8  A    between atoms: C_19  and  C_20
REMARK    9  A    between atoms: C_20  and  C_21
REMARK   10  A    between atoms: C_21  and  C_22
REMARK                            x       y       z     vdW  Elec       q    Type
REMARK                         _______ _______ _______ _____ _____    ______ ____
ROOT
ATOM      1  O   UNL     1       5.413   3.229  19.833  0.00  0.00    +0.000 OA
ATOM      2  C   UNL     1       5.167   3.877  18.819  0.00  0.00    +0.000 A 
ATOM      3  C   UNL     1       5.981   5.060  18.489  0.00  0.00    +0.000 A 
ATOM      4  C   UNL     1       7.099   5.397  19.258  0.00  0.00    +0.000 A 
ATOM      5  C   UNL     1       7.874   6.493  18.889  0.00  0.00    +0.000 A 
ATOM      6  C   UNL     1       7.512   7.235  17.769  0.00  0.00    +0.000 A 
ATOM      7  F   UNL     1       8.262   8.287  17.413  0.00  0.00    +0.000 F 
ATOM      8  C   UNL     1       6.396   6.905  17.008  0.00  0.00    +0.000 A 
ATOM      9  C   UNL     1       5.623   5.801  17.357  0.00  0.00    +0.000 A 
ATOM     10  N   UNL     1       4.526   5.459  16.547  0.00  0.00    +0.000 NA
ATOM     11  C   UNL     1       3.877   4.386  16.847  0.00  0.00    +0.000 A 
ATOM     12  N   UNL     1       4.161   3.574  17.914  0.00  0.00    +0.000 N 
ENDROOT
BRANCH  12  13
ATOM     13  C   UNL     1       3.411   2.349  18.108  0.00  0.00    +0.000 C 
BRANCH  13  14
ATOM     14  C   UNL     1       1.937   2.497  17.722  0.00  0.00    +0.000 C 
BRANCH  14  15
ATOM     15  C   UNL     1       1.006   2.046  18.849  0.00  0.00    +0.000 C 
BRANCH  15  16
ATOM     16  C   UNL     1       0.805   3.151  19.881  0.00  0.00    +0.000 C 
BRANCH  16  17
ATOM     17  C   UNL     1       1.635   2.926  21.133  0.00  0.00    +0.000 C 
BRANCH  17  18
ATOM     18  C   UNL     1       2.405   4.201  21.464  0.00  0.00    +0.000 C 
BRANCH  18  19
ATOM     19  C   UNL     1       2.211   5.238  20.369  0.00  0.00    +0.000 C 
BRANCH  19  20
ATOM     20  C   UNL     1       2.097   6.636  20.965  0.00  0.00    +0.000 C 
BRANCH  20  21
ATOM     21  C   UNL     1       1.454   7.590  19.963  0.00  0.00    +0.000 C 
BRANCH  21  22
ATOM     22  C   UNL     1       2.321   7.732  18.727  0.00  0.00    +0.000 C 
ATOM     23 BR   UNL     1       2.010   9.469  17.908  0.00  0.00    +0.000 Br
ENDBRANCH  21  22
ENDBRANCH  20  21
ENDBRANCH  19  20
ENDBRANCH  18  19
ENDBRANCH  17  18
ENDBRANCH  16  17
ENDBRANCH  15  16
ENDBRANCH  14  15
ENDBRANCH  13  14
ENDBRANCH  12  13
TORSDOF 10
ENDMDL
MODEL 4
REMARK VINA RESULT:      -6.2      4.187      7.321
REMARK  Name = 
REMARK  10 active torsions:
REMARK  status: ('A' for Active; 'I' for Inactive)
REMARK    1  A    between atoms: N_12  and  C_13
REMARK    2  A    between atoms: C_13  and  C_14
REMARK    3  A    between atoms: C_14  and  C_15
REMARK    4  A    between atoms: C_15  and  C_16
REMARK    5  A    between atoms: C_16  and  C_17
REMARK    6  A    between atoms: C_17  and  C_18
REMARK    7  A    between atoms: C_18  and  C_19
REMARK    8  A    between atoms: C_19  and  C_20
REMARK    9  A    between atoms: C_20  and  C_21
REMARK   10  A    between atoms: C_21  and  C_22
REMARK                            x       y       z     vdW  Elec       q    Type
REMARK                         _______ _______ _______ _____ _____    ______ ____
ROOT
ATOM      1  O   UNL     1       3.589   7.017  18.256  0.00  0.00    +0.000 OA
ATOM      2  C   UNL     1       3.705   5.795  18.219  0.00  0.00    +0.000 A 
ATOM      3  C   UNL     1       2.939   4.956  19.158  0.00  0.00    +0.000 A 
ATOM      4  C   UNL     1       1.999   5.524  20.022  0.00  0.00    +0.000 A 
ATOM      5  C   UNL     1       1.258   4.697  20.861  0.00  0.00    +0.000 A 
ATOM      6  C   UNL     1       1.477   3.324  20.828  0.00  0.00    +0.000 A 
ATOM      7  F   UNL     1       0.759   2.528  21.633  0.00  0.00    +0.000 F 
ATOM      8  C   UNL     1       2.417   2.757  19.974  0.00  0.00    +0.000 A 
ATOM      9  C   UNL     1       3.153   3.574  19.117  0.00  0.00    +0.000 A 
ATOM     10  N   UNL     1       4.065   2.976  18.231  0.00  0.00    +0.000 NA
ATOM     11  C   UNL     1       4.672   3.746  17.394  0.00  0.00    +0.000 A 
ATOM     12  N   UNL     1       4.516   5.107  17.328  0.00  0.00    +0.000 N 
ENDROOT
BRANCH  12  13
ATOM     13  C   UNL     1       5.192   5.862  16.293  0.00  0.00    +0.000 C 
BRANCH  13  14
ATOM     14  C   UNL     1       6.623   6.240  16.684  0.00  0.00    +0.000 C 
BRANCH  14  15
ATOM     15  C   UNL     1       6.702   7.662  17.242  0.00  0.00    +0.000 C 
BRANCH  15  16
ATOM     16  C   UNL     1       8.040   7.917  17.929  0.00  0.00    +0.000 C 
BRANCH  16  17
ATOM     17  C   UNL     1       8.371   9.397  18.011  0.00  0.00    +0.000 C 
BRANCH  17  18
ATOM     18  C   UNL     1       9.158   9.667  19.291  0.00  0.00    +0.000 C 
BRANCH  18  19
ATOM     19  C   UNL     1       9.718  11.080  19.282  0.00  0.00    +0.000 C 
BRANCH  19  20
ATOM     20  C   UNL     1      10.139  11.484  17.874  0.00  0.00    +0.000 C 
BRANCH  20  21
ATOM     21  C   UNL     1      11.641  11.741  17.821  0.00  0.00    +0.000 C 
BRANCH  21  22
ATOM     22  C   UNL     1      12.131  12.323  19.133  0.00  0.00    +0.000 C 
ATOM     23 BR   UNL     1      12.276  14.256  18.977  0.00  0.00    +0.000 Br
ENDBRANCH  21  22
ENDBRANCH  20  21
ENDBRANCH  19  20
ENDBRANCH  18  19
ENDBRANCH  17  18
ENDBRANCH  16  17
ENDBRANCH  15  16
ENDBRANCH  14  15
ENDBRANCH  13  14
ENDBRANCH  12  13
TORSDOF 10
ENDMDL
MODEL 5
REMARK VINA RESULT:      -6.2      4.740      7.825
REMARK  Name = 
REMARK  10 active torsions:
REMARK  status: ('A' for Active; 'I' for Inactive)
REMARK    1  A    between atoms: N_12  and  C_13
REMARK    2  A    between atoms: C_13  and  C_14
REMARK    3  A    between atoms: C_14  and  C_15
REMARK    4  A    between atoms: C_15  and  C_16
REMARK    5  A    between atoms: C_16  and  C_17
REMARK    6  A    between atoms: C_17  and  C_18
REMARK    7  A    between atoms: C_18  and  C_19
REMARK    8  A    between atoms: C_19  and  C_20
REMARK    9  A    between atoms: C_20  and  C_21
REMARK   10  A    between atoms: C_21  and  C_22
REMARK                            x       y       z     vdW  Elec       q    Type
REMARK                         _______ _______ _______ _____ _____    ______ ____
ROOT
ATOM      1  O   UNL     1       4.941   5.303  15.856  0.00  0.00    +0.000 OA
ATOM      2  C   UNL     1       5.143   5.047  17.039  0.00  0.00    +0.000 A 
ATOM      3  C   UNL     1       4.211   4.171  17.770  0.00  0.00    +0.000 A 
ATOM      4  C   UNL     1       3.154   3.539  17.108  0.00  0.00    +0.000 A 
ATOM      5  C   UNL     1       2.322   2.679  17.819  0.00  0.00    +0.000 A 
ATOM      6  C   UNL     1       2.553   2.477  19.176  0.00  0.00    +0.000 A 
ATOM      7  F   UNL     1       1.754   1.645  19.858  0.00  0.00    +0.000 F 
ATOM      8  C   UNL     1       3.600   3.111  19.838  0.00  0.00    +0.000 A 
ATOM      9  C   UNL     1       4.450   3.959  19.133  0.00  0.00    +0.000 A 
ATOM     10  N   UNL     1       5.528   4.554  19.811  0.00  0.00    +0.000 NA
ATOM     11  C   UNL     1       6.346   5.270  19.117  0.00  0.00    +0.000 A 
ATOM     12  N   UNL     1       6.221   5.517  17.774  0.00  0.00    +0.000 N 
ENDROOT
BRANCH  12  13
ATOM     13  C   UNL     1       7.246   6.273  17.082  0.00  0.00    +0.000 C 
BRANCH  13  14
ATOM     14  C   UNL     1       7.174   7.771  17.386  0.00  0.00    +0.000 C 
BRANCH  14  15
ATOM     15  C   UNL     1       8.345   8.231  18.257  0.00  0.00    +0.000 C 
BRANCH  15  16
ATOM     16  C   UNL     1       8.494   9.749  18.234  0.00  0.00    +0.000 C 
BRANCH  16  17
ATOM     17  C   UNL     1       9.325  10.262  19.397  0.00  0.00    +0.000 C 
BRANCH  17  18
ATOM     18  C   UNL     1      10.386  11.225  18.872  0.00  0.00    +0.000 C 
BRANCH  18  19
ATOM     19  C   UNL     1      11.248  11.739  20.013  0.00  0.00    +0.000 C 
BRANCH  19  20
ATOM     20  C   UNL     1      11.879  13.078  19.651  0.00  0.00    +0.000 C 
BRANCH  20  21
ATOM     21  C   UNL     1      10.798  14.124  19.401  0.00  0.00    +0.000 C 
BRANCH  21  22
ATOM     22  C   UNL     1      11.419  15.475  19.103  0.00  0.00    +0.000 C 
ATOM     23 BR   UNL     1      12.101  15.493  17.281  0.00  0.00    +0.000 Br
ENDBRANCH  21  22
ENDBRANCH  20  21
ENDBRANCH  19  20
ENDBRANCH  18  19
ENDBRANCH  17  18
ENDBRANCH  16  17
ENDBRANCH  15  16
ENDBRANCH  14  15
ENDBRANCH  13  14
ENDBRANCH  12  13
TORSDOF 10
ENDMDL
MODEL 6
REMARK VINA RESULT:      -6.1      1.539      2.348
REMARK  Name = 
REMARK  10 active torsions:
REMARK  status: ('A' for Active; 'I' for Inactive)
REMARK    1  A    between atoms: N_12  and  C_13
REMARK    2  A    between atoms: C_13  and  C_14
REMARK    3  A    between atoms: C_14  and  C_15
REMARK    4  A    between atoms: C_15  and  C_16
REMARK    5  A    between atoms: C_16  and  C_17
REMARK    6  A    between atoms: C_17  and  C_18
REMARK    7  A    between atoms: C_18  and  C_19
REMARK    8  A    between atoms: C_19  and  C_20
REMARK    9  A    between atoms: C_20  and  C_21
REMARK   10  A    between atoms: C_21  and  C_22
REMARK                            x       y       z     vdW  Elec       q    Type
REMARK                         _______ _______ _______ _____ _____    ______ ____
ROOT
ATOM      1  O   UNL     1       6.639   4.056  18.743  0.00  0.00    +0.000 OA
ATOM      2  C   UNL     1       6.322   4.934  17.945  0.00  0.00    +0.000 A 
ATOM      3  C   UNL     1       6.960   6.260  18.024  0.00  0.00    +0.000 A 
ATOM      4  C   UNL     1       7.999   6.503  18.927  0.00  0.00    +0.000 A 
ATOM      5  C   UNL     1       8.611   7.753  18.940  0.00  0.00    +0.000 A 
ATOM      6  C   UNL     1       8.168   8.737  18.062  0.00  0.00    +0.000 A 
ATOM      7  F   UNL     1       8.762   9.938  18.072  0.00  0.00    +0.000 F 
ATOM      8  C   UNL     1       7.129   8.499  17.168  0.00  0.00    +0.000 A 
ATOM      9  C   UNL     1       6.520   7.247  17.133  0.00  0.00    +0.000 A 
ATOM     10  N   UNL     1       5.503   7.014  16.191  0.00  0.00    +0.000 NA
ATOM     11  C   UNL     1       5.013   5.823  16.126  0.00  0.00    +0.000 A 
ATOM     12  N   UNL     1       5.391   4.778  16.930  0.00  0.00    +0.000 N 
ENDROOT
BRANCH  12  13
ATOM     13  C   UNL     1       4.826   3.461  16.713  0.00  0.00    +0.000 C 
BRANCH  13  14
ATOM     14  C   UNL     1       3.797   3.083  17.781  0.00  0.00    +0.000 C 
BRANCH  14  15
ATOM     15  C   UNL     1       2.418   2.817  17.172  0.00  0.00    +0.000 C 
BRANCH  15  16
ATOM     16  C   UNL     1       1.320   3.549  17.938  0.00  0.00    +0.000 C 
BRANCH  16  17
ATOM     17  C   UNL     1       0.627   2.651  18.946  0.00  0.00    +0.000 C 
BRANCH  17  18
ATOM     18  C   UNL     1       1.075   3.033  20.354  0.00  0.00    +0.000 C 
BRANCH  18  19
ATOM     19  C   UNL     1       1.195   4.543  20.481  0.00  0.00    +0.000 C 
BRANCH  19  20
ATOM     20  C   UNL     1       2.626   4.943  20.817  0.00  0.00    +0.000 C 
BRANCH  20  21
ATOM     21  C   UNL     1       3.141   5.968  19.812  0.00  0.00    +0.000 C 
BRANCH  21  22
ATOM     22  C   UNL     1       2.217   7.169  19.750  0.00  0.00    +0.000 C 
ATOM     23 BR   UNL     1       2.353   8.009  18.001  0.00  0.00    +0.000 Br
ENDBRANCH  21  22
ENDBRANCH  20  21
ENDBRANCH  19  20
ENDBRANCH  18  19
ENDBRANCH  17  18
ENDBRANCH  16  17
ENDBRANCH  15  16
ENDBRANCH  14  15
ENDBRANCH  13  14
ENDBRANCH  12  13
TORSDOF 10
ENDMDL
MODEL 7
REMARK VINA RESULT:      -6.1      2.194      2.825
REMARK  Name = 
REMARK  10 active torsions:
REMARK  status: ('A' for Active; 'I' for Inactive)
REMARK    1  A    between atoms: N_12  and  C_13
REMARK    2  A    between atoms: C_13  and  C_14
REMARK    3  A    between atoms: C_14  and  C_15
REMARK    4  A    between atoms: C_15  and  C_16
REMARK    5  A    between atoms: C_16  and  C_17
REMARK    6  A    between atoms: C_17  and  C_18
REMARK    7  A    between atoms: C_18  and  C_19
REMARK    8  A    between atoms: C_19  and  C_20
REMARK    9  A    between atoms: C_20  and  C_21
REMARK   10  A    between atoms: C_21  and  C_22
REMARK                            x       y       z     vdW  Elec       q    Type
REMARK                         _______ _______ _______ _____ _____    ______ ____
ROOT
ATOM      1  O   UNL     1       2.521   3.392  16.683  0.00  0.00    +0.000 OA
ATOM      2  C   UNL     1       3.388   3.465  17.550  0.00  0.00    +0.000 A 
ATOM      3  C   UNL     1       4.567   4.323  17.337  0.00  0.00    +0.000 A 
ATOM      4  C   UNL     1       4.664   5.140  16.206  0.00  0.00    +0.000 A 
ATOM      5  C   UNL     1       5.768   5.974  16.062  0.00  0.00    +0.000 A 
ATOM      6  C   UNL     1       6.757   5.969  17.040  0.00  0.00    +0.000 A 
ATOM      7  F   UNL     1       7.817   6.776  16.902  0.00  0.00    +0.000 F 
ATOM      8  C   UNL     1       6.666   5.151  18.162  0.00  0.00    +0.000 A 
ATOM      9  C   UNL     1       5.557   4.325  18.326  0.00  0.00    +0.000 A 
ATOM     10  N   UNL     1       5.463   3.541  19.489  0.00  0.00    +0.000 NA
ATOM     11  C   UNL     1       4.389   2.847  19.654  0.00  0.00    +0.000 A 
ATOM     12  N   UNL     1       3.348   2.796  18.764  0.00  0.00    +0.000 N 
ENDROOT
BRANCH  12  13
ATOM     13  C   UNL     1       2.155   2.042  19.092  0.00  0.00    +0.000 C 
BRANCH  13  14
ATOM     14  C   UNL     1       1.479   2.543  20.370  0.00  0.00    +0.000 C 
BRANCH  14  15
ATOM     15  C   UNL     1       0.857   3.928  20.179  0.00  0.00    +0.000 C 
BRANCH  15  16
ATOM     16  C   UNL     1       1.729   5.019  20.791  0.00  0.00    +0.000 C 
BRANCH  16  17
ATOM     17  C   UNL     1       1.569   6.350  20.076  0.00  0.00    +0.000 C 
BRANCH  17  18
ATOM     18  C   UNL     1       1.865   7.485  21.053  0.00  0.00    +0.000 C 
BRANCH  18  19
ATOM     19  C   UNL     1       0.678   8.430  21.143  0.00  0.00    +0.000 C 
BRANCH  19  20
ATOM     20  C   UNL     1       0.809   9.559  20.128  0.00  0.00    +0.000 C 
BRANCH  20  21
ATOM     21  C   UNL     1      -0.545  10.218  19.889  0.00  0.00    +0.000 C 
BRANCH  21  22
ATOM     22  C   UNL     1      -0.915  10.163  18.419  0.00  0.00    +0.000 C 
ATOM     23 BR   UNL     1      -1.772  11.830  17.899  0.00  0.00    +0.000 Br
ENDBRANCH  21  22
ENDBRANCH  20  21
ENDBRANCH  19  20
ENDBRANCH  18  19
ENDBRANCH  17  18
ENDBRANCH  16  17
ENDBRANCH  15  16
ENDBRANCH  14  15
ENDBRANCH  13  14
ENDBRANCH  12  13
TORSDOF 10
ENDMDL
MODEL 8
REMARK VINA RESULT:      -6.0      4.203      7.413
REMARK  Name = 
REMARK  10 active torsions:
REMARK  status: ('A' for Active; 'I' for Inactive)
REMARK    1  A    between atoms: N_12  and  C_13
REMARK    2  A    between atoms: C_13  and  C_14
REMARK    3  A    between atoms: C_14  and  C_15
REMARK    4  A    between atoms: C_15  and  C_16
REMARK    5  A    between atoms: C_16  and  C_17
REMARK    6  A    between atoms: C_17  and  C_18
REMARK    7  A    between atoms: C_18  and  C_19
REMARK    8  A    between atoms: C_19  and  C_20
REMARK    9  A    between atoms: C_20  and  C_21
REMARK   10  A    between atoms: C_21  and  C_22
REMARK                            x       y       z     vdW  Elec       q    Type
REMARK                         _______ _______ _______ _____ _____    ______ ____
ROOT
ATOM      1  O   UNL     1       6.140   5.006  19.932  0.00  0.00    +0.000 OA
ATOM      2  C   UNL     1       5.664   4.738  18.832  0.00  0.00    +0.000 A 
ATOM      3  C   UNL     1       4.266   4.284  18.730  0.00  0.00    +0.000 A 
ATOM      4  C   UNL     1       3.438   4.254  19.856  0.00  0.00    +0.000 A 
ATOM      5  C   UNL     1       2.109   3.867  19.715  0.00  0.00    +0.000 A 
ATOM      6  C   UNL     1       1.636   3.506  18.457  0.00  0.00    +0.000 A 
ATOM      7  F   UNL     1       0.355   3.138  18.321  0.00  0.00    +0.000 F 
ATOM      8  C   UNL     1       2.460   3.528  17.337  0.00  0.00    +0.000 A 
ATOM      9  C   UNL     1       3.788   3.931  17.463  0.00  0.00    +0.000 A 
ATOM     10  N   UNL     1       4.590   3.988  16.310  0.00  0.00    +0.000 NA
ATOM     11  C   UNL     1       5.790   4.442  16.443  0.00  0.00    +0.000 A 
ATOM     12  N   UNL     1       6.348   4.841  17.630  0.00  0.00    +0.000 N 
ENDROOT
BRANCH  12  13
ATOM     13  C   UNL     1       7.681   5.408  17.646  0.00  0.00    +0.000 C 
BRANCH  13  14
ATOM     14  C   UNL     1       7.735   6.756  18.370  0.00  0.00    +0.000 C 
BRANCH  14  15
ATOM     15  C   UNL     1       7.211   7.894  17.493  0.00  0.00    +0.000 C 
BRANCH  15  16
ATOM     16  C   UNL     1       8.080   9.141  17.620  0.00  0.00    +0.000 C 
BRANCH  16  17
ATOM     17  C   UNL     1       8.853   9.172  18.926  0.00  0.00    +0.000 C 
BRANCH  17  18
ATOM     18  C   UNL     1       9.324  10.598  19.200  0.00  0.00    +0.000 C 
BRANCH  18  19
ATOM     19  C   UNL     1       9.895  11.220  17.937  0.00  0.00    +0.000 C 
BRANCH  19  20
ATOM     20  C   UNL     1      11.326  11.689  18.167  0.00  0.00    +0.000 C 
BRANCH  20  21
ATOM     21  C   UNL     1      11.468  13.164  17.802  0.00  0.00    +0.000 C 
BRANCH  21  22
ATOM     22  C   UNL     1      11.114  14.044  18.985  0.00  0.00    +0.000 C 
ATOM     23 BR   UNL     1       9.448  14.981  18.627  0.00  0.00    +0.000 Br
ENDBRANCH  21  22
ENDBRANCH  20  21
ENDBRANCH  19  20
ENDBRANCH  18  19
ENDBRANCH  17  18
ENDBRANCH  16  17
ENDBRANCH  15  16
ENDBRANCH  14  15
ENDBRANCH  13  14
ENDBRANCH  12  13
TORSDOF 10
ENDMDL
MODEL 9
REMARK VINA RESULT:      -6.0      5.057      8.260
REMARK  Name = 
REMARK  10 active torsions:
REMARK  status: ('A' for Active; 'I' for Inactive)
REMARK    1  A    between atoms: N_12  and  C_13
REMARK    2  A    between atoms: C_13  and  C_14
REMARK    3  A    between atoms: C_14  and  C_15
REMARK    4  A    between atoms: C_15  and  C_16
REMARK    5  A    between atoms: C_16  and  C_17
REMARK    6  A    between atoms: C_17  and  C_18
REMARK    7  A    between atoms: C_18  and  C_19
REMARK    8  A    between atoms: C_19  and  C_20
REMARK    9  A    between atoms: C_20  and  C_21
REMARK   10  A    between atoms: C_21  and  C_22
REMARK                            x       y       z     vdW  Elec       q    Type
REMARK                         _______ _______ _______ _____ _____    ______ ____
ROOT
ATOM      1  O   UNL     1       7.114   4.676  19.001  0.00  0.00    +0.000 OA
ATOM      2  C   UNL     1       6.220   5.291  18.427  0.00  0.00    +0.000 A 
ATOM      3  C   UNL     1       4.826   4.824  18.530  0.00  0.00    +0.000 A 
ATOM      4  C   UNL     1       4.490   3.749  19.359  0.00  0.00    +0.000 A 
ATOM      5  C   UNL     1       3.157   3.366  19.470  0.00  0.00    +0.000 A 
ATOM      6  C   UNL     1       2.189   4.053  18.745  0.00  0.00    +0.000 A 
ATOM      7  F   UNL     1       0.905   3.686  18.856  0.00  0.00    +0.000 F 
ATOM      8  C   UNL     1       2.523   5.118  17.914  0.00  0.00    +0.000 A 
ATOM      9  C   UNL     1       3.851   5.522  17.808  0.00  0.00    +0.000 A 
ATOM     10  N   UNL     1       4.160   6.629  16.999  0.00  0.00    +0.000 NA
ATOM     11  C   UNL     1       5.385   7.031  16.983  0.00  0.00    +0.000 A 
ATOM     12  N   UNL     1       6.411   6.439  17.673  0.00  0.00    +0.000 N 
ENDROOT
BRANCH  12  13
ATOM     13  C   UNL     1       7.735   7.026  17.642  0.00  0.00    +0.000 C 
BRANCH  13  14
ATOM     14  C   UNL     1       7.700   8.554  17.729  0.00  0.00    +0.000 C 
BRANCH  14  15
ATOM     15  C   UNL     1       8.754   9.092  18.699  0.00  0.00    +0.000 C 
BRANCH  15  16
ATOM     16  C   UNL     1       9.083  10.553  18.409  0.00  0.00    +0.000 C 
BRANCH  16  17
ATOM     17  C   UNL     1      10.088  11.122  19.395  0.00  0.00    +0.000 C 
BRANCH  17  18
ATOM     18  C   UNL     1      11.365  11.501  18.650  0.00  0.00    +0.000 C 
BRANCH  18  19
ATOM     19  C   UNL     1      12.098  12.613  19.383  0.00  0.00    +0.000 C 
BRANCH  19  20
ATOM     20  C   UNL     1      11.121  13.463  20.187  0.00  0.00    +0.000 C 
BRANCH  20  21
ATOM     21  C   UNL     1      10.834  14.773  19.460  0.00  0.00    +0.000 C 
BRANCH  21  22
ATOM     22  C   UNL     1      11.915  15.066  18.437  0.00  0.00    +0.000 C 
ATOM     23 BR   UNL     1      11.326  16.494  17.256  0.00  0.00    +0.000 Br
ENDBRANCH  21  22
ENDBRANCH  20  21
ENDBRANCH  19  20
ENDBRANCH  18  19
ENDBRANCH  17  18
ENDBRANCH  16  17
ENDBRANCH  15  16
ENDBRANCH  14  15
ENDBRANCH  13  14
ENDBRANCH  12  13
TORSDOF 10
ENDMDL
