MODEL 1
REMARK VINA RESULT:      -7.9      0.000      0.000
REMARK  Name = 
REMARK  6 active torsions:
REMARK  status: ('A' for Active; 'I' for Inactive)
REMARK    1  A    between atoms: C_1  and  C_2
REMARK    2  A    between atoms: C_2  and  O_3
REMARK    3  A    between atoms: O_3  and  C_4
REMARK    4  A    between atoms: C_6  and  C_7
REMARK    5  A    between atoms: C_13  and  C_14
REMARK    6  A    between atoms: C_16  and  C_17
REMARK                            x       y       z     vdW  Elec       q    Type
REMARK                         _______ _______ _______ _____ _____    ______ ____
ROOT
ATOM      1  C   UNL     1       4.575   4.102  18.542  0.00  0.00    +0.000 C 
ATOM      2  O   UNL     1       4.644   2.909  18.837  0.00  0.00    +0.000 OA
ATOM      3  N   UNL     1       3.744   4.998  19.229  0.00  0.00    +0.000 N 
ATOM      4  C   UNL     1       3.151   4.581  20.500  0.00  0.00    +0.000 C 
ATOM      5  C   UNL     1       1.659   4.901  20.545  0.00  0.00    +0.000 C 
ATOM      6  C   UNL     1       1.393   6.382  20.271  0.00  0.00    +0.000 C 
ATOM      7  C   UNL     1       2.039   6.816  18.952  0.00  0.00    +0.000 C 
ATOM      8  C   UNL     1       3.513   6.403  18.884  0.00  0.00    +0.000 C 
ENDROOT
BRANCH   1  11
ATOM      9  C   UNL     1       7.047   6.018  16.482  0.00  0.00    +0.000 A 
ATOM     10  C   UNL     1       6.215   5.677  17.535  0.00  0.00    +0.000 A 
ATOM     11  C   UNL     1       5.391   4.562  17.380  0.00  0.00    +0.000 A 
ATOM     12  C   UNL     1       5.337   3.929  16.138  0.00  0.00    +0.000 A 
ATOM     13  C   UNL     1       6.240   4.312  15.169  0.00  0.00    +0.000 A 
ATOM     14  N   UNL     1       7.103   5.331  15.321  0.00  0.00    +0.000 NA
BRANCH   9  15
ATOM     15  O   UNL     1       7.827   7.148  16.629  0.00  0.00    +0.000 OA
BRANCH  15  17
ATOM     16  C   UNL     1       8.239   9.073  17.999  0.00  0.00    +0.000 C 
ATOM     17  C   UNL     1       7.881   7.598  17.986  0.00  0.00    +0.000 C 
ENDBRANCH  15  17
ENDBRANCH   9  15
ENDBRANCH   1  11
BRANCH   7  18
ATOM     18  C   UNL     1       1.879   8.285  18.693  0.00  0.00    +0.000 A 
ATOM     19  C   UNL     1       1.257   9.234  19.533  0.00  0.00    +0.000 A 
ATOM     20  C   UNL     1       1.330  10.434  18.855  0.00  0.00    +0.000 A 
ATOM     21  N   UNL     1       1.965  10.139  17.680  0.00  0.00    +0.000 N 
ATOM     22  N   UNL     1       2.313   8.847  17.557  0.00  0.00    +0.000 NA
ATOM     23  H   UNL     1       2.185  10.786  16.926  0.00  0.00    +0.000 HD
BRANCH  20  24
ATOM     24  C   UNL     1       0.894  11.758  19.167  0.00  0.00    +0.000 C 
ATOM     25  N   UNL     1       0.866  12.633  18.122  0.00  0.00    +0.000 N 
ATOM     26  O   UNL     1       0.554  12.124  20.286  0.00  0.00    +0.000 OA
ATOM     27  H   UNL     1       1.116  12.379  17.179  0.00  0.00    +0.000 HD
ATOM     28  H   UNL     1       0.543  13.571  18.306  0.00  0.00    +0.000 HD
ENDBRANCH  20  24
ENDBRANCH   7  18
TORSDOF 5
ENDMDL
MODEL 2
REMARK VINA RESULT:      -7.8      1.488      2.561
REMARK  Name = 
REMARK  6 active torsions:
REMARK  status: ('A' for Active; 'I' for Inactive)
REMARK    1  A    between atoms: C_1  and  C_2
REMARK    2  A    between atoms: C_2  and  O_3
REMARK    3  A    between atoms: O_3  and  C_4
REMARK    4  A    between atoms: C_6  and  C_7
REMARK    5  A    between atoms: C_13  and  C_14
REMARK    6  A    between atoms: C_16  and  C_17
REMARK                            x       y       z     vdW  Elec       q    Type
REMARK                         _______ _______ _______ _____ _____    ______ ____
ROOT
ATOM      1  C   UNL     1       4.948   3.840  19.057  0.00  0.00    +0.000 C 
ATOM      2  O   UNL     1       5.129   2.623  19.047  0.00  0.00    +0.000 OA
ATOM      3  N   UNL     1       3.877   4.434  19.739  0.00  0.00    +0.000 N 
ATOM      4  C   UNL     1       3.109   3.629  20.689  0.00  0.00    +0.000 C 
ATOM      5  C   UNL     1       1.608   3.795  20.469  0.00  0.00    +0.000 C 
ATOM      6  C   UNL     1       1.190   5.266  20.527  0.00  0.00    +0.000 C 
ATOM      7  C   UNL     1       2.016   6.105  19.547  0.00  0.00    +0.000 C 
ATOM      8  C   UNL     1       3.518   5.854  19.718  0.00  0.00    +0.000 C 
ENDROOT
BRANCH   1  11
ATOM      9  C   UNL     1       6.687   5.467  16.167  0.00  0.00    +0.000 A 
ATOM     10  C   UNL     1       5.872   4.603  16.878  0.00  0.00    +0.000 A 
ATOM     11  C   UNL     1       5.904   4.674  18.271  0.00  0.00    +0.000 A 
ATOM     12  C   UNL     1       6.844   5.503  18.884  0.00  0.00    +0.000 A 
ATOM     13  C   UNL     1       7.576   6.361  18.091  0.00  0.00    +0.000 A 
ATOM     14  N   UNL     1       7.505   6.371  16.749  0.00  0.00    +0.000 NA
BRANCH   9  15
ATOM     15  O   UNL     1       6.681   5.360  14.791  0.00  0.00    +0.000 OA
BRANCH  15  17
ATOM     16  C   UNL     1       6.217   3.714  13.109  0.00  0.00    +0.000 C 
ATOM     17  C   UNL     1       5.679   4.451  14.322  0.00  0.00    +0.000 C 
ENDBRANCH  15  17
ENDBRANCH   9  15
ENDBRANCH   1  11
BRANCH   7  18
ATOM     18  C   UNL     1       1.701   7.568  19.641  0.00  0.00    +0.000 A 
ATOM     19  C   UNL     1       1.763   8.521  18.602  0.00  0.00    +0.000 A 
ATOM     20  C   UNL     1       1.415   9.725  19.179  0.00  0.00    +0.000 A 
ATOM     21  N   UNL     1       1.181   9.432  20.495  0.00  0.00    +0.000 N 
ATOM     22  N   UNL     1       1.342   8.133  20.802  0.00  0.00    +0.000 NA
ATOM     23  H   UNL     1       0.909  10.085  21.226  0.00  0.00    +0.000 HD
BRANCH  20  24
ATOM     24  C   UNL     1       1.285  11.052  18.665  0.00  0.00    +0.000 C 
ATOM     25  N   UNL     1       2.260  11.448  17.799  0.00  0.00    +0.000 N 
ATOM     26  O   UNL     1       0.370  11.813  18.954  0.00  0.00    +0.000 OA
ATOM     27  H   UNL     1       3.023  10.855  17.513  0.00  0.00    +0.000 HD
ATOM     28  H   UNL     1       2.185  12.373  17.402  0.00  0.00    +0.000 HD
ENDBRANCH  20  24
ENDBRANCH   7  18
TORSDOF 5
ENDMDL
MODEL 3
REMARK VINA RESULT:      -7.8      1.537      2.563
REMARK  Name = 
REMARK  6 active torsions:
REMARK  status: ('A' for Active; 'I' for Inactive)
REMARK    1  A    between atoms: C_1  and  C_2
REMARK    2  A    between atoms: C_2  and  O_3
REMARK    3  A    between atoms: O_3  and  C_4
REMARK    4  A    between atoms: C_6  and  C_7
REMARK    5  A    between atoms: C_13  and  C_14
REMARK    6  A    between atoms: C_16  and  C_17
REMARK                            x       y       z     vdW  Elec       q    Type
REMARK                         _______ _______ _______ _____ _____    ______ ____
ROOT
ATOM      1  C   UNL     1       4.921   3.794  19.004  0.00  0.00    +0.000 C 
ATOM      2  O   UNL     1       5.087   2.575  18.977  0.00  0.00    +0.000 OA
ATOM      3  N   UNL     1       3.877   4.394  19.722  0.00  0.00    +0.000 N 
ATOM      4  C   UNL     1       3.128   3.589  20.687  0.00  0.00    +0.000 C 
ATOM      5  C   UNL     1       1.623   3.776  20.513  0.00  0.00    +0.000 C 
ATOM      6  C   UNL     1       1.225   5.250  20.596  0.00  0.00    +0.000 C 
ATOM      7  C   UNL     1       2.032   6.088  19.601  0.00  0.00    +0.000 C 
ATOM      8  C   UNL     1       3.535   5.819  19.725  0.00  0.00    +0.000 C 
ENDROOT
BRANCH   1  11
ATOM      9  C   UNL     1       6.628   5.386  16.076  0.00  0.00    +0.000 A 
ATOM     10  C   UNL     1       5.827   4.526  16.806  0.00  0.00    +0.000 A 
ATOM     11  C   UNL     1       5.863   4.624  18.198  0.00  0.00    +0.000 A 
ATOM     12  C   UNL     1       6.795   5.476  18.791  0.00  0.00    +0.000 A 
ATOM     13  C   UNL     1       7.514   6.328  17.977  0.00  0.00    +0.000 A 
ATOM     14  N   UNL     1       7.437   6.310  16.636  0.00  0.00    +0.000 NA
BRANCH   9  15
ATOM     15  O   UNL     1       6.617   5.252  14.702  0.00  0.00    +0.000 OA
BRANCH  15  17
ATOM     16  C   UNL     1       6.385   3.835  12.781  0.00  0.00    +0.000 C 
ATOM     17  C   UNL     1       6.236   3.936  14.287  0.00  0.00    +0.000 C 
ENDBRANCH  15  17
ENDBRANCH   9  15
ENDBRANCH   1  11
BRANCH   7  18
ATOM     18  C   UNL     1       1.737   7.555  19.717  0.00  0.00    +0.000 A 
ATOM     19  C   UNL     1       1.230   8.234  20.846  0.00  0.00    +0.000 A 
ATOM     20  C   UNL     1       1.100   9.552  20.459  0.00  0.00    +0.000 A 
ATOM     21  N   UNL     1       1.516   9.582  19.156  0.00  0.00    +0.000 N 
ATOM     22  N   UNL     1       1.912   8.388  18.683  0.00  0.00    +0.000 NA
ATOM     23  H   UNL     1       1.549  10.394  18.545  0.00  0.00    +0.000 HD
BRANCH  20  24
ATOM     24  C   UNL     1       0.652  10.728  21.137  0.00  0.00    +0.000 C 
ATOM     25  N   UNL     1       0.556  11.851  20.371  0.00  0.00    +0.000 N 
ATOM     26  O   UNL     1       0.358  10.765  22.325  0.00  0.00    +0.000 OA
ATOM     27  H   UNL     1       0.766  11.870  19.385  0.00  0.00    +0.000 HD
ATOM     28  H   UNL     1       0.222  12.694  20.815  0.00  0.00    +0.000 HD
ENDBRANCH  20  24
ENDBRANCH   7  18
TORSDOF 5
ENDMDL
MODEL 4
REMARK VINA RESULT:      -7.7      1.856      2.101
REMARK  Name = 
REMARK  6 active torsions:
REMARK  status: ('A' for Active; 'I' for Inactive)
REMARK    1  A    between atoms: C_1  and  C_2
REMARK    2  A    between atoms: C_2  and  O_3
REMARK    3  A    between atoms: O_3  and  C_4
REMARK    4  A    between atoms: C_6  and  C_7
REMARK    5  A    between atoms: C_13  and  C_14
REMARK    6  A    between atoms: C_16  and  C_17
REMARK                            x       y       z     vdW  Elec       q    Type
REMARK                         _______ _______ _______ _____ _____    ______ ____
ROOT
ATOM      1  C   UNL     1       4.483   3.452  18.205  0.00  0.00    +0.000 C 
ATOM      2  O   UNL     1       4.599   2.263  17.910  0.00  0.00    +0.000 OA
ATOM      3  N   UNL     1       3.590   3.897  19.191  0.00  0.00    +0.000 N 
ATOM      4  C   UNL     1       2.979   2.915  20.087  0.00  0.00    +0.000 C 
ATOM      5  C   UNL     1       1.472   3.137  20.204  0.00  0.00    +0.000 C 
ATOM      6  C   UNL     1       1.146   4.565  20.643  0.00  0.00    +0.000 C 
ATOM      7  C   UNL     1       1.811   5.585  19.715  0.00  0.00    +0.000 C 
ATOM      8  C   UNL     1       3.304   5.293  19.533  0.00  0.00    +0.000 C 
ENDROOT
BRANCH   1  11
ATOM      9  C   UNL     1       7.014   6.090  17.394  0.00  0.00    +0.000 A 
ATOM     10  C   UNL     1       6.173   5.275  18.132  0.00  0.00    +0.000 A 
ATOM     11  C   UNL     1       5.311   4.426  17.436  0.00  0.00    +0.000 A 
ATOM     12  C   UNL     1       5.234   4.532  16.047  0.00  0.00    +0.000 A 
ATOM     13  C   UNL     1       6.148   5.338  15.401  0.00  0.00    +0.000 A 
ATOM     14  N   UNL     1       7.044   6.105  16.045  0.00  0.00    +0.000 NA
BRANCH   9  15
ATOM     15  O   UNL     1       7.831   6.957  18.092  0.00  0.00    +0.000 OA
BRANCH  15  17
ATOM     16  C   UNL     1       8.609   9.195  18.466  0.00  0.00    +0.000 C 
ATOM     17  C   UNL     1       7.757   8.295  17.590  0.00  0.00    +0.000 C 
ENDBRANCH  15  17
ENDBRANCH   9  15
ENDBRANCH   1  11
BRANCH   7  18
ATOM     18  C   UNL     1       1.591   6.998  20.167  0.00  0.00    +0.000 A 
ATOM     19  C   UNL     1       0.934   7.423  21.343  0.00  0.00    +0.000 A 
ATOM     20  C   UNL     1       0.956   8.802  21.303  0.00  0.00    +0.000 A 
ATOM     21  N   UNL     1       1.597   9.113  20.135  0.00  0.00    +0.000 N 
ATOM     22  N   UNL     1       1.997   8.040  19.430  0.00  0.00    +0.000 NA
ATOM     23  H   UNL     1       1.788  10.044  19.773  0.00  0.00    +0.000 HD
BRANCH  20  24
ATOM     24  C   UNL     1       0.468   9.811  22.189  0.00  0.00    +0.000 C 
ATOM     25  N   UNL     1      -0.297   9.367  23.226  0.00  0.00    +0.000 N 
ATOM     26  O   UNL     1       0.703  11.006  22.065  0.00  0.00    +0.000 OA
ATOM     27  H   UNL     1      -0.504   8.393  23.386  0.00  0.00    +0.000 HD
ATOM     28  H   UNL     1      -0.640  10.053  23.882  0.00  0.00    +0.000 HD
ENDBRANCH  20  24
ENDBRANCH   7  18
TORSDOF 5
ENDMDL
MODEL 5
REMARK VINA RESULT:      -7.6      1.436      2.559
REMARK  Name = 
REMARK  6 active torsions:
REMARK  status: ('A' for Active; 'I' for Inactive)
REMARK    1  A    between atoms: C_1  and  C_2
REMARK    2  A    between atoms: C_2  and  O_3
REMARK    3  A    between atoms: O_3  and  C_4
REMARK    4  A    between atoms: C_6  and  C_7
REMARK    5  A    between atoms: C_13  and  C_14
REMARK    6  A    between atoms: C_16  and  C_17
REMARK                            x       y       z     vdW  Elec       q    Type
REMARK                         _______ _______ _______ _____ _____    ______ ____
ROOT
ATOM      1  C   UNL     1       4.703   3.995  18.909  0.00  0.00    +0.000 C 
ATOM      2  O   UNL     1       4.784   2.818  19.259  0.00  0.00    +0.000 OA
ATOM      3  N   UNL     1       3.820   4.900  19.516  0.00  0.00    +0.000 N 
ATOM      4  C   UNL     1       3.174   4.522  20.774  0.00  0.00    +0.000 C 
ATOM      5  C   UNL     1       1.675   4.808  20.733  0.00  0.00    +0.000 C 
ATOM      6  C   UNL     1       1.390   6.269  20.382  0.00  0.00    +0.000 C 
ATOM      7  C   UNL     1       2.090   6.662  19.078  0.00  0.00    +0.000 C 
ATOM      8  C   UNL     1       3.575   6.283  19.099  0.00  0.00    +0.000 C 
ENDROOT
BRANCH   1  11
ATOM      9  C   UNL     1       5.856   4.767  15.431  0.00  0.00    +0.000 A 
ATOM     10  C   UNL     1       5.091   4.259  16.467  0.00  0.00    +0.000 A 
ATOM     11  C   UNL     1       5.564   4.425  17.770  0.00  0.00    +0.000 A 
ATOM     12  C   UNL     1       6.837   4.963  17.962  0.00  0.00    +0.000 A 
ATOM     13  C   UNL     1       7.499   5.485  16.871  0.00  0.00    +0.000 A 
ATOM     14  N   UNL     1       7.028   5.411  15.614  0.00  0.00    +0.000 NA
BRANCH   9  15
ATOM     15  O   UNL     1       5.401   4.560  14.145  0.00  0.00    +0.000 OA
BRANCH  15  17
ATOM     16  C   UNL     1       5.553   3.274  12.126  0.00  0.00    +0.000 C 
ATOM     17  C   UNL     1       6.269   3.707  13.392  0.00  0.00    +0.000 C 
ENDBRANCH  15  17
ENDBRANCH   9  15
ENDBRANCH   1  11
BRANCH   7  18
ATOM     18  C   UNL     1       1.911   8.114  18.748  0.00  0.00    +0.000 A 
ATOM     19  C   UNL     1       1.300   9.101  19.552  0.00  0.00    +0.000 A 
ATOM     20  C   UNL     1       1.347  10.265  18.813  0.00  0.00    +0.000 A 
ATOM     21  N   UNL     1       1.957   9.915  17.639  0.00  0.00    +0.000 N 
ATOM     22  N   UNL     1       2.314   8.620  17.575  0.00  0.00    +0.000 NA
ATOM     23  H   UNL     1       2.154  10.523  16.849  0.00  0.00    +0.000 HD
BRANCH  20  24
ATOM     24  C   UNL     1       0.906  11.600  19.067  0.00  0.00    +0.000 C 
ATOM     25  N   UNL     1      -0.240  11.715  19.796  0.00  0.00    +0.000 N 
ATOM     26  O   UNL     1       1.492  12.602  18.678  0.00  0.00    +0.000 OA
ATOM     27  H   UNL     1      -0.750  10.924  20.157  0.00  0.00    +0.000 HD
ATOM     28  H   UNL     1      -0.566  12.646  20.010  0.00  0.00    +0.000 HD
ENDBRANCH  20  24
ENDBRANCH   7  18
TORSDOF 5
ENDMDL
MODEL 6
REMARK VINA RESULT:      -7.6      1.288      1.359
REMARK  Name = 
REMARK  6 active torsions:
REMARK  status: ('A' for Active; 'I' for Inactive)
REMARK    1  A    between atoms: C_1  and  C_2
REMARK    2  A    between atoms: C_2  and  O_3
REMARK    3  A    between atoms: O_3  and  C_4
REMARK    4  A    between atoms: C_6  and  C_7
REMARK    5  A    between atoms: C_13  and  C_14
REMARK    6  A    between atoms: C_16  and  C_17
REMARK                            x       y       z     vdW  Elec       q    Type
REMARK                         _______ _______ _______ _____ _____    ______ ____
ROOT
ATOM      1  C   UNL     1       4.693   3.767  18.755  0.00  0.00    +0.000 C 
ATOM      2  O   UNL     1       4.829   2.544  18.727  0.00  0.00    +0.000 OA
ATOM      3  N   UNL     1       3.715   4.396  19.538  0.00  0.00    +0.000 N 
ATOM      4  C   UNL     1       3.017   3.616  20.560  0.00  0.00    +0.000 C 
ATOM      5  C   UNL     1       1.507   3.836  20.488  0.00  0.00    +0.000 C 
ATOM      6  C   UNL     1       1.150   5.321  20.585  0.00  0.00    +0.000 C 
ATOM      7  C   UNL     1       1.906   6.132  19.529  0.00  0.00    +0.000 C 
ATOM      8  C   UNL     1       3.407   5.829  19.552  0.00  0.00    +0.000 C 
ENDROOT
BRANCH   1  11
ATOM      9  C   UNL     1       7.306   6.209  17.647  0.00  0.00    +0.000 A 
ATOM     10  C   UNL     1       6.395   5.556  18.458  0.00  0.00    +0.000 A 
ATOM     11  C   UNL     1       5.596   4.569  17.879  0.00  0.00    +0.000 A 
ATOM     12  C   UNL     1       5.649   4.382  16.497  0.00  0.00    +0.000 A 
ATOM     13  C   UNL     1       6.625   5.046  15.784  0.00  0.00    +0.000 A 
ATOM     14  N   UNL     1       7.462   5.942  16.332  0.00  0.00    +0.000 NA
BRANCH   9  15
ATOM     15  O   UNL     1       8.061   7.213  18.219  0.00  0.00    +0.000 OA
BRANCH  15  17
ATOM     16  C   UNL     1       8.599   9.545  18.375  0.00  0.00    +0.000 C 
ATOM     17  C   UNL     1       7.807   8.490  17.626  0.00  0.00    +0.000 C 
ENDBRANCH  15  17
ENDBRANCH   9  15
ENDBRANCH   1  11
BRANCH   7  18
ATOM     18  C   UNL     1       1.653   7.606  19.653  0.00  0.00    +0.000 A 
ATOM     19  C   UNL     1       1.734   8.572  18.628  0.00  0.00    +0.000 A 
ATOM     20  C   UNL     1       1.448   9.780  19.231  0.00  0.00    +0.000 A 
ATOM     21  N   UNL     1       1.229   9.475  20.547  0.00  0.00    +0.000 N 
ATOM     22  N   UNL     1       1.341   8.166  20.829  0.00  0.00    +0.000 NA
ATOM     23  H   UNL     1       0.999  10.126  21.294  0.00  0.00    +0.000 HD
BRANCH  20  24
ATOM     24  C   UNL     1       1.362  11.119  18.741  0.00  0.00    +0.000 C 
ATOM     25  N   UNL     1       2.321  11.482  17.842  0.00  0.00    +0.000 N 
ATOM     26  O   UNL     1       0.497  11.919  19.076  0.00  0.00    +0.000 OA
ATOM     27  H   UNL     1       3.042  10.857  17.518  0.00  0.00    +0.000 HD
ATOM     28  H   UNL     1       2.275  12.416  17.461  0.00  0.00    +0.000 HD
ENDBRANCH  20  24
ENDBRANCH   7  18
TORSDOF 5
ENDMDL
MODEL 7
REMARK VINA RESULT:      -7.5      1.206      1.248
REMARK  Name = 
REMARK  6 active torsions:
REMARK  status: ('A' for Active; 'I' for Inactive)
REMARK    1  A    between atoms: C_1  and  C_2
REMARK    2  A    between atoms: C_2  and  O_3
REMARK    3  A    between atoms: O_3  and  C_4
REMARK    4  A    between atoms: C_6  and  C_7
REMARK    5  A    between atoms: C_13  and  C_14
REMARK    6  A    between atoms: C_16  and  C_17
REMARK                            x       y       z     vdW  Elec       q    Type
REMARK                         _______ _______ _______ _____ _____    ______ ____
ROOT
ATOM      1  C   UNL     1       4.502   3.792  18.412  0.00  0.00    +0.000 C 
ATOM      2  O   UNL     1       4.640   2.574  18.511  0.00  0.00    +0.000 OA
ATOM      3  N   UNL     1       3.733   4.537  19.318  0.00  0.00    +0.000 N 
ATOM      4  C   UNL     1       3.306   3.907  20.568  0.00  0.00    +0.000 C 
ATOM      5  C   UNL     1       1.821   4.149  20.829  0.00  0.00    +0.000 C 
ATOM      6  C   UNL     1       1.483   5.640  20.817  0.00  0.00    +0.000 C 
ATOM      7  C   UNL     1       1.957   6.295  19.517  0.00  0.00    +0.000 C 
ATOM      8  C   UNL     1       3.424   5.966  19.221  0.00  0.00    +0.000 C 
ENDROOT
BRANCH   1  11
ATOM      9  C   UNL     1       6.853   5.904  16.403  0.00  0.00    +0.000 A 
ATOM     10  C   UNL     1       6.178   5.384  17.493  0.00  0.00    +0.000 A 
ATOM     11  C   UNL     1       5.163   4.458  17.252  0.00  0.00    +0.000 A 
ATOM     12  C   UNL     1       4.781   4.202  15.934  0.00  0.00    +0.000 A 
ATOM     13  C   UNL     1       5.548   4.731  14.917  0.00  0.00    +0.000 A 
ATOM     14  N   UNL     1       6.583   5.562  15.125  0.00  0.00    +0.000 NA
BRANCH   9  15
ATOM     15  O   UNL     1       7.826   6.852  16.651  0.00  0.00    +0.000 OA
BRANCH  15  17
ATOM     16  C   UNL     1       8.140   8.851  17.939  0.00  0.00    +0.000 C 
ATOM     17  C   UNL     1       7.738   7.388  17.975  0.00  0.00    +0.000 C 
ENDBRANCH  15  17
ENDBRANCH   9  15
ENDBRANCH   1  11
BRANCH   7  18
ATOM     18  C   UNL     1       1.727   7.778  19.507  0.00  0.00    +0.000 A 
ATOM     19  C   UNL     1       1.971   8.670  18.441  0.00  0.00    +0.000 A 
ATOM     20  C   UNL     1       1.635   9.921  18.918  0.00  0.00    +0.000 A 
ATOM     21  N   UNL     1       1.231   9.711  20.208  0.00  0.00    +0.000 N 
ATOM     22  N   UNL     1       1.271   8.422  20.589  0.00  0.00    +0.000 NA
ATOM     23  H   UNL     1       0.917  10.415  20.872  0.00  0.00    +0.000 HD
BRANCH  20  24
ATOM     24  C   UNL     1       1.651  11.224  18.334  0.00  0.00    +0.000 C 
ATOM     25  N   UNL     1       0.450  11.867  18.290  0.00  0.00    +0.000 N 
ATOM     26  O   UNL     1       2.656  11.768  17.894  0.00  0.00    +0.000 OA
ATOM     27  H   UNL     1      -0.404  11.474  18.656  0.00  0.00    +0.000 HD
ATOM     28  H   UNL     1       0.431  12.798  17.902  0.00  0.00    +0.000 HD
ENDBRANCH  20  24
ENDBRANCH   7  18
TORSDOF 5
ENDMDL
MODEL 8
REMARK VINA RESULT:      -7.3      3.104      6.266
REMARK  Name = 
REMARK  6 active torsions:
REMARK  status: ('A' for Active; 'I' for Inactive)
REMARK    1  A    between atoms: C_1  and  C_2
REMARK    2  A    between atoms: C_2  and  O_3
REMARK    3  A    between atoms: O_3  and  C_4
REMARK    4  A    between atoms: C_6  and  C_7
REMARK    5  A    between atoms: C_13  and  C_14
REMARK    6  A    between atoms: C_16  and  C_17
REMARK                            x       y       z     vdW  Elec       q    Type
REMARK                         _______ _______ _______ _____ _____    ______ ____
ROOT
ATOM      1  C   UNL     1       3.382   3.343  17.505  0.00  0.00    +0.000 C 
ATOM      2  O   UNL     1       2.833   2.423  16.901  0.00  0.00    +0.000 OA
ATOM      3  N   UNL     1       4.363   4.150  16.913  0.00  0.00    +0.000 N 
ATOM      4  C   UNL     1       4.550   4.088  15.463  0.00  0.00    +0.000 C 
ATOM      5  C   UNL     1       6.028   3.957  15.102  0.00  0.00    +0.000 C 
ATOM      6  C   UNL     1       6.860   5.082  15.718  0.00  0.00    +0.000 C 
ATOM      7  C   UNL     1       6.638   5.156  17.232  0.00  0.00    +0.000 C 
ATOM      8  C   UNL     1       5.147   5.192  17.582  0.00  0.00    +0.000 C 
ENDROOT
BRANCH   1  11
ATOM      9  C   UNL     1       1.962   4.896  20.603  0.00  0.00    +0.000 A 
ATOM     10  C   UNL     1       2.422   4.768  19.304  0.00  0.00    +0.000 A 
ATOM     11  C   UNL     1       2.989   3.548  18.930  0.00  0.00    +0.000 A 
ATOM     12  C   UNL     1       3.192   2.570  19.905  0.00  0.00    +0.000 A 
ATOM     13  C   UNL     1       2.653   2.774  21.158  0.00  0.00    +0.000 A 
ATOM     14  N   UNL     1       2.031   3.908  21.521  0.00  0.00    +0.000 NA
BRANCH   9  15
ATOM     15  O   UNL     1       1.443   6.120  20.975  0.00  0.00    +0.000 OA
BRANCH  15  17
ATOM     16  C   UNL     1       1.295   8.487  20.617  0.00  0.00    +0.000 C 
ATOM     17  C   UNL     1       1.942   7.190  20.167  0.00  0.00    +0.000 C 
ENDBRANCH  15  17
ENDBRANCH   9  15
ENDBRANCH   1  11
BRANCH   7  18
ATOM     18  C   UNL     1       7.366   6.307  17.860  0.00  0.00    +0.000 A 
ATOM     19  C   UNL     1       7.414   7.639  17.396  0.00  0.00    +0.000 A 
ATOM     20  C   UNL     1       8.227   8.314  18.284  0.00  0.00    +0.000 A 
ATOM     21  N   UNL     1       8.613   7.371  19.197  0.00  0.00    +0.000 N 
ATOM     22  N   UNL     1       8.103   6.149  18.968  0.00  0.00    +0.000 NA
ATOM     23  H   UNL     1       9.226   7.511  19.997  0.00  0.00    +0.000 HD
BRANCH  20  24
ATOM     24  C   UNL     1       8.661   9.672  18.371  0.00  0.00    +0.000 C 
ATOM     25  N   UNL     1       8.042  10.545  17.526  0.00  0.00    +0.000 N 
ATOM     26  O   UNL     1       9.525  10.070  19.142  0.00  0.00    +0.000 OA
ATOM     27  H   UNL     1       7.312  10.275  16.886  0.00  0.00    +0.000 HD
ATOM     28  H   UNL     1       8.312  11.517  17.577  0.00  0.00    +0.000 HD
ENDBRANCH  20  24
ENDBRANCH   7  18
TORSDOF 5
ENDMDL
MODEL 9
REMARK VINA RESULT:      -7.3      3.644      6.223
REMARK  Name = 
REMARK  6 active torsions:
REMARK  status: ('A' for Active; 'I' for Inactive)
REMARK    1  A    between atoms: C_1  and  C_2
REMARK    2  A    between atoms: C_2  and  O_3
REMARK    3  A    between atoms: O_3  and  C_4
REMARK    4  A    between atoms: C_6  and  C_7
REMARK    5  A    between atoms: C_13  and  C_14
REMARK    6  A    between atoms: C_16  and  C_17
REMARK                            x       y       z     vdW  Elec       q    Type
REMARK                         _______ _______ _______ _____ _____    ______ ____
ROOT
ATOM      1  C   UNL     1       1.461   8.771  20.943  0.00  0.00    +0.000 C 
ATOM      2  O   UNL     1       1.833   8.667  22.111  0.00  0.00    +0.000 OA
ATOM      3  N   UNL     1       0.653   9.829  20.503  0.00  0.00    +0.000 N 
ATOM      4  C   UNL     1       0.469  10.988  21.377  0.00  0.00    +0.000 C 
ATOM      5  C   UNL     1      -1.004  11.377  21.476  0.00  0.00    +0.000 C 
ATOM      6  C   UNL     1      -1.616  11.623  20.096  0.00  0.00    +0.000 C 
ATOM      7  C   UNL     1      -1.395  10.414  19.181  0.00  0.00    +0.000 C 
ATOM      8  C   UNL     1       0.074   9.979  19.166  0.00  0.00    +0.000 C 
ENDROOT
BRANCH   1  11
ATOM      9  C   UNL     1       2.057   5.372  19.488  0.00  0.00    +0.000 A 
ATOM     10  C   UNL     1       1.776   6.361  20.415  0.00  0.00    +0.000 A 
ATOM     11  C   UNL     1       1.875   7.690  20.001  0.00  0.00    +0.000 A 
ATOM     12  C   UNL     1       2.380   7.966  18.730  0.00  0.00    +0.000 A 
ATOM     13  C   UNL     1       2.583   6.912  17.864  0.00  0.00    +0.000 A 
ATOM     14  N   UNL     1       2.417   5.625  18.212  0.00  0.00    +0.000 NA
BRANCH   9  15
ATOM     15  O   UNL     1       1.998   4.062  19.919  0.00  0.00    +0.000 OA
BRANCH  15  17
ATOM     16  C   UNL     1       2.181   2.496  21.727  0.00  0.00    +0.000 C 
ATOM     17  C   UNL     1       2.034   3.958  21.346  0.00  0.00    +0.000 C 
ENDBRANCH  15  17
ENDBRANCH   9  15
ENDBRANCH   1  11
BRANCH   7  18
ATOM     18  C   UNL     1      -1.899  10.653  17.788  0.00  0.00    +0.000 A 
ATOM     19  C   UNL     1      -2.237   9.677  16.826  0.00  0.00    +0.000 A 
ATOM     20  C   UNL     1      -2.616  10.379  15.700  0.00  0.00    +0.000 A 
ATOM     21  N   UNL     1      -2.477  11.697  16.042  0.00  0.00    +0.000 N 
ATOM     22  N   UNL     1      -2.050  11.892  17.301  0.00  0.00    +0.000 NA
ATOM     23  H   UNL     1      -2.661  12.503  15.450  0.00  0.00    +0.000 HD
BRANCH  20  24
ATOM     24  C   UNL     1      -3.068   9.977  14.406  0.00  0.00    +0.000 C 
ATOM     25  N   UNL     1      -4.420   9.979  14.226  0.00  0.00    +0.000 N 
ATOM     26  O   UNL     1      -2.325   9.650  13.490  0.00  0.00    +0.000 OA
ATOM     27  H   UNL     1      -5.074  10.257  14.940  0.00  0.00    +0.000 HD
ATOM     28  H   UNL     1      -4.771   9.719  13.316  0.00  0.00    +0.000 HD
ENDBRANCH  20  24
ENDBRANCH   7  18
TORSDOF 5
ENDMDL
