MODEL 1
REMARK VINA RESULT:      -8.1      0.000      0.000
REMARK  Name = 
REMARK  12 active torsions:
REMARK  status: ('A' for Active; 'I' for Inactive)
REMARK    1  A    between atoms: C_1  and  C_2
REMARK    2  A    between atoms: N_10  and  C_11
REMARK    3  A    between atoms: C_11  and  C_12
REMARK    4  A    between atoms: C_12  and  N_13
REMARK    5  A    between atoms: C_14  and  C_16
REMARK    6  A    between atoms: C_19  and  C_20
REMARK    7  A    between atoms: C_20  and  N_21
REMARK    8  A    between atoms: C_22  and  O_24
REMARK    9  A    between atoms: O_24  and  C_25
REMARK   10  A    between atoms: C_25  and  C_26
REMARK   11  A    between atoms: C_25  and  C_27
REMARK   12  A    between atoms: C_25  and  C_28
REMARK                            x       y       z     vdW  Elec       q    Type
REMARK                         _______ _______ _______ _____ _____    ______ ____
ROOT
ATOM      1  N   UNL     1       3.436   5.224  20.402  0.00  0.00    +0.000 N 
ATOM      2  C   UNL     1       2.165   5.560  19.934  0.00  0.00    +0.000 C 
ATOM      3  O   UNL     1       1.330   4.725  19.627  0.00  0.00    +0.000 OA
ATOM      4  H   UNL     1       3.979   5.932  20.881  0.00  0.00    +0.000 HD
ENDROOT
BRANCH   2   5
ATOM      5  C   UNL     1       1.833   7.006  19.848  0.00  0.00    +0.000 A 
ATOM      6  C   UNL     1       1.262   7.695  20.916  0.00  0.00    +0.000 A 
ATOM      7  C   UNL     1       0.901   9.036  20.769  0.00  0.00    +0.000 A 
ATOM      8  C   UNL     1       1.111   9.704  19.559  0.00  0.00    +0.000 A 
ATOM      9  C   UNL     1       1.749   9.025  18.507  0.00  0.00    +0.000 A 
ATOM     10  C   UNL     1       2.115   7.682  18.653  0.00  0.00    +0.000 A 
BRANCH   8  11
ATOM     11  C   UNL     1       0.575  11.103  19.383  0.00  0.00    +0.000 C 
BRANCH  11  12
ATOM     12  N   UNL     1      -0.189  11.310  18.182  0.00  0.00    +0.000 N 
ATOM     13  C   UNL     1      -1.450  11.821  18.280  0.00  0.00    +0.000 C 
ATOM     14  O   UNL     1      -1.951  12.146  19.346  0.00  0.00    +0.000 OA
ATOM     15  H   UNL     1       0.125  10.998  17.276  0.00  0.00    +0.000 HD
BRANCH  13  16
ATOM     16  O   UNL     1      -2.041  11.888  17.054  0.00  0.00    +0.000 OA
BRANCH  16  17
ATOM     17  C   UNL     1      -3.106  10.945  16.738  0.00  0.00    +0.000 C 
ATOM     18  C   UNL     1      -4.481  11.597  16.933  0.00  0.00    +0.000 C 
ATOM     19  C   UNL     1      -2.937  10.499  15.268  0.00  0.00    +0.000 C 
ATOM     20  C   UNL     1      -2.976   9.693  17.611  0.00  0.00    +0.000 C 
ENDBRANCH  16  17
ENDBRANCH  13  16
ENDBRANCH  11  12
ENDBRANCH   8  11
ENDBRANCH   2   5
BRANCH   1  21
ATOM     21  C   UNL     1       3.732   3.809  20.584  0.00  0.00    +0.000 C 
BRANCH  21  22
ATOM     22  C   UNL     1       4.586   3.172  19.491  0.00  0.00    +0.000 C 
BRANCH  22  32
ATOM     23  C   UNL     1       2.967   3.298  16.928  0.00  0.00    +0.000 C 
ATOM     24  C   UNL     1       4.146   4.157  17.222  0.00  0.00    +0.000 A 
ATOM     25  C   UNL     1       4.703   5.134  16.428  0.00  0.00    +0.000 A 
ATOM     26  C   UNL     1       5.809   5.692  17.113  0.00  0.00    +0.000 A 
ATOM     27  C   UNL     1       6.726   6.710  16.770  0.00  0.00    +0.000 A 
ATOM     28  C   UNL     1       7.736   7.060  17.667  0.00  0.00    +0.000 A 
ATOM     29  C   UNL     1       7.831   6.412  18.894  0.00  0.00    +0.000 A 
ATOM     30  C   UNL     1       6.927   5.398  19.259  0.00  0.00    +0.000 A 
ATOM     31  C   UNL     1       5.913   5.036  18.349  0.00  0.00    +0.000 A 
ATOM     32  N   UNL     1       4.892   4.086  18.388  0.00  0.00    +0.000 N 
ENDBRANCH  22  32
ENDBRANCH  21  22
ENDBRANCH   1  21
TORSDOF 8
ENDMDL
MODEL 2
REMARK VINA RESULT:      -8.1      4.320      7.604
REMARK  Name = 
REMARK  12 active torsions:
REMARK  status: ('A' for Active; 'I' for Inactive)
REMARK    1  A    between atoms: C_1  and  C_2
REMARK    2  A    between atoms: N_10  and  C_11
REMARK    3  A    between atoms: C_11  and  C_12
REMARK    4  A    between atoms: C_12  and  N_13
REMARK    5  A    between atoms: C_14  and  C_16
REMARK    6  A    between atoms: C_19  and  C_20
REMARK    7  A    between atoms: C_20  and  N_21
REMARK    8  A    between atoms: C_22  and  O_24
REMARK    9  A    between atoms: O_24  and  C_25
REMARK   10  A    between atoms: C_25  and  C_26
REMARK   11  A    between atoms: C_25  and  C_27
REMARK   12  A    between atoms: C_25  and  C_28
REMARK                            x       y       z     vdW  Elec       q    Type
REMARK                         _______ _______ _______ _____ _____    ______ ____
ROOT
ATOM      1  N   UNL     1       4.779   3.422  18.298  0.00  0.00    +0.000 N 
ATOM      2  C   UNL     1       5.223   4.213  17.238  0.00  0.00    +0.000 C 
ATOM      3  O   UNL     1       4.837   4.061  16.090  0.00  0.00    +0.000 OA
ATOM      4  H   UNL     1       4.924   3.752  19.244  0.00  0.00    +0.000 HD
ENDROOT
BRANCH   2   5
ATOM      5  C   UNL     1       6.185   5.300  17.558  0.00  0.00    +0.000 A 
ATOM      6  C   UNL     1       7.211   5.126  18.484  0.00  0.00    +0.000 A 
ATOM      7  C   UNL     1       8.048   6.196  18.807  0.00  0.00    +0.000 A 
ATOM      8  C   UNL     1       7.875   7.446  18.207  0.00  0.00    +0.000 A 
ATOM      9  C   UNL     1       6.882   7.599  17.224  0.00  0.00    +0.000 A 
ATOM     10  C   UNL     1       6.044   6.527  16.895  0.00  0.00    +0.000 A 
BRANCH   8  11
ATOM     11  C   UNL     1       8.695   8.618  18.686  0.00  0.00    +0.000 C 
BRANCH  11  12
ATOM     12  N   UNL     1       8.384   9.872  18.053  0.00  0.00    +0.000 N 
ATOM     13  C   UNL     1       9.220  10.934  18.242  0.00  0.00    +0.000 C 
ATOM     14  O   UNL     1      10.247  10.858  18.900  0.00  0.00    +0.000 OA
ATOM     15  H   UNL     1       7.520  10.033  17.560  0.00  0.00    +0.000 HD
BRANCH  13  16
ATOM     16  O   UNL     1       8.735  12.046  17.623  0.00  0.00    +0.000 OA
BRANCH  16  17
ATOM     17  C   UNL     1       8.855  13.332  18.299  0.00  0.00    +0.000 C 
ATOM     18  C   UNL     1      10.144  14.048  17.874  0.00  0.00    +0.000 C 
ATOM     19  C   UNL     1       7.626  14.191  17.927  0.00  0.00    +0.000 C 
ATOM     20  C   UNL     1       8.827  13.132  19.818  0.00  0.00    +0.000 C 
ENDBRANCH  16  17
ENDBRANCH  13  16
ENDBRANCH  11  12
ENDBRANCH   8  11
ENDBRANCH   2   5
BRANCH   1  21
ATOM     21  C   UNL     1       3.761   2.421  18.007  0.00  0.00    +0.000 C 
BRANCH  21  22
ATOM     22  C   UNL     1       2.316   2.890  18.159  0.00  0.00    +0.000 C 
BRANCH  22  32
ATOM     23  C   UNL     1       1.889   2.381  21.120  0.00  0.00    +0.000 C 
ATOM     24  C   UNL     1       1.975   3.732  20.501  0.00  0.00    +0.000 A 
ATOM     25  C   UNL     1       1.887   4.957  21.125  0.00  0.00    +0.000 A 
ATOM     26  C   UNL     1       2.026   5.969  20.145  0.00  0.00    +0.000 A 
ATOM     27  C   UNL     1       2.014   7.379  20.224  0.00  0.00    +0.000 A 
ATOM     28  C   UNL     1       2.183   8.137  19.065  0.00  0.00    +0.000 A 
ATOM     29  C   UNL     1       2.369   7.504  17.841  0.00  0.00    +0.000 A 
ATOM     30  C   UNL     1       2.388   6.101  17.737  0.00  0.00    +0.000 A 
ATOM     31  C   UNL     1       2.207   5.334  18.907  0.00  0.00    +0.000 A 
ATOM     32  N   UNL     1       2.156   3.960  19.146  0.00  0.00    +0.000 N 
ENDBRANCH  22  32
ENDBRANCH  21  22
ENDBRANCH   1  21
TORSDOF 8
ENDMDL
MODEL 3
REMARK VINA RESULT:      -7.8      3.863      4.810
REMARK  Name = 
REMARK  12 active torsions:
REMARK  status: ('A' for Active; 'I' for Inactive)
REMARK    1  A    between atoms: C_1  and  C_2
REMARK    2  A    between atoms: N_10  and  C_11
REMARK    3  A    between atoms: C_11  and  C_12
REMARK    4  A    between atoms: C_12  and  N_13
REMARK    5  A    between atoms: C_14  and  C_16
REMARK    6  A    between atoms: C_19  and  C_20
REMARK    7  A    between atoms: C_20  and  N_21
REMARK    8  A    between atoms: C_22  and  O_24
REMARK    9  A    between atoms: O_24  and  C_25
REMARK   10  A    between atoms: C_25  and  C_26
REMARK   11  A    between atoms: C_25  and  C_27
REMARK   12  A    between atoms: C_25  and  C_28
REMARK                            x       y       z     vdW  Elec       q    Type
REMARK                         _______ _______ _______ _____ _____    ______ ____
ROOT
ATOM      1  N   UNL     1       1.842   7.543  20.759  0.00  0.00    +0.000 N 
ATOM      2  C   UNL     1       1.305   8.680  20.155  0.00  0.00    +0.000 C 
ATOM      3  O   UNL     1       1.532   8.984  18.995  0.00  0.00    +0.000 OA
ATOM      4  H   UNL     1       1.422   7.204  21.615  0.00  0.00    +0.000 HD
ENDROOT
BRANCH   2   5
ATOM      5  C   UNL     1       0.394   9.519  20.976  0.00  0.00    +0.000 A 
ATOM      6  C   UNL     1      -0.268  10.624  20.445  0.00  0.00    +0.000 A 
ATOM      7  C   UNL     1      -1.059  11.427  21.270  0.00  0.00    +0.000 A 
ATOM      8  C   UNL     1      -1.205  11.132  22.628  0.00  0.00    +0.000 A 
ATOM      9  C   UNL     1      -0.591   9.977  23.145  0.00  0.00    +0.000 A 
ATOM     10  C   UNL     1       0.200   9.169  22.319  0.00  0.00    +0.000 A 
BRANCH   8  11
ATOM     11  C   UNL     1      -1.941  12.098  23.522  0.00  0.00    +0.000 C 
BRANCH  11  12
ATOM     12  N   UNL     1      -3.354  11.854  23.642  0.00  0.00    +0.000 N 
ATOM     13  C   UNL     1      -4.153  12.833  24.156  0.00  0.00    +0.000 C 
ATOM     14  O   UNL     1      -3.725  13.928  24.490  0.00  0.00    +0.000 OA
ATOM     15  H   UNL     1      -3.768  10.953  23.459  0.00  0.00    +0.000 HD
BRANCH  13  16
ATOM     16  O   UNL     1      -5.442  12.403  24.252  0.00  0.00    +0.000 OA
BRANCH  16  17
ATOM     17  C   UNL     1      -6.430  12.942  23.326  0.00  0.00    +0.000 C 
ATOM     18  C   UNL     1      -7.697  12.077  23.323  0.00  0.00    +0.000 C 
ATOM     19  C   UNL     1      -6.775  14.382  23.770  0.00  0.00    +0.000 C 
ATOM     20  C   UNL     1      -5.837  13.031  21.916  0.00  0.00    +0.000 C 
ENDBRANCH  16  17
ENDBRANCH  13  16
ENDBRANCH  11  12
ENDBRANCH   8  11
ENDBRANCH   2   5
BRANCH   1  21
ATOM     21  C   UNL     1       2.655   6.663  19.930  0.00  0.00    +0.000 C 
BRANCH  21  22
ATOM     22  C   UNL     1       1.973   5.375  19.475  0.00  0.00    +0.000 C 
BRANCH  22  32
ATOM     23  C   UNL     1       1.929   2.341  19.506  0.00  0.00    +0.000 C 
ATOM     24  C   UNL     1       2.789   3.162  18.610  0.00  0.00    +0.000 A 
ATOM     25  C   UNL     1       3.686   2.725  17.661  0.00  0.00    +0.000 A 
ATOM     26  C   UNL     1       4.276   3.856  17.048  0.00  0.00    +0.000 A 
ATOM     27  C   UNL     1       5.245   3.989  16.029  0.00  0.00    +0.000 A 
ATOM     28  C   UNL     1       5.642   5.262  15.616  0.00  0.00    +0.000 A 
ATOM     29  C   UNL     1       5.078   6.390  16.202  0.00  0.00    +0.000 A 
ATOM     30  C   UNL     1       4.109   6.282  17.215  0.00  0.00    +0.000 A 
ATOM     31  C   UNL     1       3.715   4.997  17.641  0.00  0.00    +0.000 A 
ATOM     32  N   UNL     1       2.816   4.547  18.609  0.00  0.00    +0.000 N 
ENDBRANCH  22  32
ENDBRANCH  21  22
ENDBRANCH   1  21
TORSDOF 8
ENDMDL
MODEL 4
REMARK VINA RESULT:      -7.7      3.869      9.883
REMARK  Name = 
REMARK  12 active torsions:
REMARK  status: ('A' for Active; 'I' for Inactive)
REMARK    1  A    between atoms: C_1  and  C_2
REMARK    2  A    between atoms: N_10  and  C_11
REMARK    3  A    between atoms: C_11  and  C_12
REMARK    4  A    between atoms: C_12  and  N_13
REMARK    5  A    between atoms: C_14  and  C_16
REMARK    6  A    between atoms: C_19  and  C_20
REMARK    7  A    between atoms: C_20  and  N_21
REMARK    8  A    between atoms: C_22  and  O_24
REMARK    9  A    between atoms: O_24  and  C_25
REMARK   10  A    between atoms: C_25  and  C_26
REMARK   11  A    between atoms: C_25  and  C_27
REMARK   12  A    between atoms: C_25  and  C_28
REMARK                            x       y       z     vdW  Elec       q    Type
REMARK                         _______ _______ _______ _____ _____    ______ ____
ROOT
ATOM      1  N   UNL     1       1.642  11.885  19.107  0.00  0.00    +0.000 N 
ATOM      2  C   UNL     1       0.780  10.829  18.809  0.00  0.00    +0.000 C 
ATOM      3  O   UNL     1      -0.315  10.992  18.296  0.00  0.00    +0.000 OA
ATOM      4  H   UNL     1       2.618  11.681  19.280  0.00  0.00    +0.000 HD
ENDROOT
BRANCH   2   5
ATOM      5  C   UNL     1       1.260   9.456  19.111  0.00  0.00    +0.000 A 
ATOM      6  C   UNL     1       1.082   8.872  20.364  0.00  0.00    +0.000 A 
ATOM      7  C   UNL     1       1.611   7.607  20.627  0.00  0.00    +0.000 A 
ATOM      8  C   UNL     1       2.317   6.908  19.643  0.00  0.00    +0.000 A 
ATOM      9  C   UNL     1       2.435   7.471  18.360  0.00  0.00    +0.000 A 
ATOM     10  C   UNL     1       1.903   8.738  18.093  0.00  0.00    +0.000 A 
BRANCH   8  11
ATOM     11  C   UNL     1       3.003   5.614  20.001  0.00  0.00    +0.000 C 
BRANCH  11  12
ATOM     12  N   UNL     1       3.527   4.878  18.881  0.00  0.00    +0.000 N 
ATOM     13  C   UNL     1       4.878   4.728  18.763  0.00  0.00    +0.000 C 
ATOM     14  O   UNL     1       5.667   5.163  19.589  0.00  0.00    +0.000 OA
ATOM     15  H   UNL     1       2.948   4.556  18.122  0.00  0.00    +0.000 HD
BRANCH  13  16
ATOM     16  O   UNL     1       5.191   4.062  17.616  0.00  0.00    +0.000 OA
BRANCH  16  17
ATOM     17  C   UNL     1       6.054   4.716  16.641  0.00  0.00    +0.000 C 
ATOM     18  C   UNL     1       7.519   4.670  17.097  0.00  0.00    +0.000 C 
ATOM     19  C   UNL     1       5.899   3.984  15.289  0.00  0.00    +0.000 C 
ATOM     20  C   UNL     1       5.604   6.165  16.427  0.00  0.00    +0.000 C 
ENDBRANCH  16  17
ENDBRANCH  13  16
ENDBRANCH  11  12
ENDBRANCH   8  11
ENDBRANCH   2   5
BRANCH   1  21
ATOM     21  C   UNL     1       1.219  13.225  18.721  0.00  0.00    +0.000 C 
BRANCH  21  22
ATOM     22  C   UNL     1       2.000  14.370  19.362  0.00  0.00    +0.000 C 
BRANCH  22  32
ATOM     23  C   UNL     1       4.547  15.066  17.866  0.00  0.00    +0.000 C 
ATOM     24  C   UNL     1       3.286  15.854  17.796  0.00  0.00    +0.000 A 
ATOM     25  C   UNL     1       3.041  16.998  17.069  0.00  0.00    +0.000 A 
ATOM     26  C   UNL     1       1.704  17.400  17.305  0.00  0.00    +0.000 A 
ATOM     27  C   UNL     1       0.938  18.485  16.826  0.00  0.00    +0.000 A 
ATOM     28  C   UNL     1      -0.387  18.631  17.237  0.00  0.00    +0.000 A 
ATOM     29  C   UNL     1      -0.949  17.705  18.110  0.00  0.00    +0.000 A 
ATOM     30  C   UNL     1      -0.207  16.614  18.599  0.00  0.00    +0.000 A 
ATOM     31  C   UNL     1       1.136  16.473  18.191  0.00  0.00    +0.000 A 
ATOM     32  N   UNL     1       2.130  15.541  18.493  0.00  0.00    +0.000 N 
ENDBRANCH  22  32
ENDBRANCH  21  22
ENDBRANCH   1  21
TORSDOF 8
ENDMDL
MODEL 5
REMARK VINA RESULT:      -7.5      2.415      9.399
REMARK  Name = 
REMARK  12 active torsions:
REMARK  status: ('A' for Active; 'I' for Inactive)
REMARK    1  A    between atoms: C_1  and  C_2
REMARK    2  A    between atoms: N_10  and  C_11
REMARK    3  A    between atoms: C_11  and  C_12
REMARK    4  A    between atoms: C_12  and  N_13
REMARK    5  A    between atoms: C_14  and  C_16
REMARK    6  A    between atoms: C_19  and  C_20
REMARK    7  A    between atoms: C_20  and  N_21
REMARK    8  A    between atoms: C_22  and  O_24
REMARK    9  A    between atoms: O_24  and  C_25
REMARK   10  A    between atoms: C_25  and  C_26
REMARK   11  A    between atoms: C_25  and  C_27
REMARK   12  A    between atoms: C_25  and  C_28
REMARK                            x       y       z     vdW  Elec       q    Type
REMARK                         _______ _______ _______ _____ _____    ______ ____
ROOT
ATOM      1  N   UNL     1      -1.007  10.983  21.009  0.00  0.00    +0.000 N 
ATOM      2  C   UNL     1       0.197  11.237  20.353  0.00  0.00    +0.000 C 
ATOM      3  O   UNL     1       0.693  12.349  20.285  0.00  0.00    +0.000 OA
ATOM      4  H   UNL     1      -1.233  10.029  21.258  0.00  0.00    +0.000 HD
ENDROOT
BRANCH   2   5
ATOM      5  C   UNL     1       0.899  10.074  19.749  0.00  0.00    +0.000 A 
ATOM      6  C   UNL     1       1.139   8.904  20.468  0.00  0.00    +0.000 A 
ATOM      7  C   UNL     1       1.864   7.863  19.885  0.00  0.00    +0.000 A 
ATOM      8  C   UNL     1       2.351   7.974  18.580  0.00  0.00    +0.000 A 
ATOM      9  C   UNL     1       2.049   9.128  17.835  0.00  0.00    +0.000 A 
ATOM     10  C   UNL     1       1.319  10.171  18.416  0.00  0.00    +0.000 A 
BRANCH   8  11
ATOM     11  C   UNL     1       3.256   6.899  18.032  0.00  0.00    +0.000 C 
BRANCH  11  12
ATOM     12  N   UNL     1       3.452   5.772  18.904  0.00  0.00    +0.000 N 
ATOM     13  C   UNL     1       3.017   4.542  18.504  0.00  0.00    +0.000 C 
ATOM     14  O   UNL     1       2.497   4.347  17.416  0.00  0.00    +0.000 OA
ATOM     15  H   UNL     1       3.803   5.866  19.844  0.00  0.00    +0.000 HD
BRANCH  13  16
ATOM     16  O   UNL     1       3.229   3.614  19.479  0.00  0.00    +0.000 OA
BRANCH  16  17
ATOM     17  C   UNL     1       2.084   3.104  20.221  0.00  0.00    +0.000 C 
ATOM     18  C   UNL     1       1.030   4.203  20.412  0.00  0.00    +0.000 C 
ATOM     19  C   UNL     1       1.479   1.924  19.427  0.00  0.00    +0.000 C 
ATOM     20  C   UNL     1       2.538   2.554  21.577  0.00  0.00    +0.000 C 
ENDBRANCH  16  17
ENDBRANCH  13  16
ENDBRANCH  11  12
ENDBRANCH   8  11
ENDBRANCH   2   5
BRANCH   1  21
ATOM     21  C   UNL     1      -1.649  12.101  21.689  0.00  0.00    +0.000 C 
BRANCH  21  22
ATOM     22  C   UNL     1      -2.314  13.130  20.777  0.00  0.00    +0.000 C 
BRANCH  22  32
ATOM     23  C   UNL     1      -5.211  13.159  21.682  0.00  0.00    +0.000 C 
ATOM     24  C   UNL     1      -4.738  12.599  20.386  0.00  0.00    +0.000 A 
ATOM     25  C   UNL     1      -5.490  12.017  19.390  0.00  0.00    +0.000 A 
ATOM     26  C   UNL     1      -4.622  11.632  18.341  0.00  0.00    +0.000 A 
ATOM     27  C   UNL     1      -4.851  11.002  17.098  0.00  0.00    +0.000 A 
ATOM     28  C   UNL     1      -3.777  10.745  16.245  0.00  0.00    +0.000 A 
ATOM     29  C   UNL     1      -2.489  11.115  16.618  0.00  0.00    +0.000 A 
ATOM     30  C   UNL     1      -2.237  11.746  17.850  0.00  0.00    +0.000 A 
ATOM     31  C   UNL     1      -3.320  11.997  18.716  0.00  0.00    +0.000 A 
ATOM     32  N   UNL     1      -3.413  12.575  19.983  0.00  0.00    +0.000 N 
ENDBRANCH  22  32
ENDBRANCH  21  22
ENDBRANCH   1  21
TORSDOF 8
ENDMDL
MODEL 6
REMARK VINA RESULT:      -7.5      3.369      5.462
REMARK  Name = 
REMARK  12 active torsions:
REMARK  status: ('A' for Active; 'I' for Inactive)
REMARK    1  A    between atoms: C_1  and  C_2
REMARK    2  A    between atoms: N_10  and  C_11
REMARK    3  A    between atoms: C_11  and  C_12
REMARK    4  A    between atoms: C_12  and  N_13
REMARK    5  A    between atoms: C_14  and  C_16
REMARK    6  A    between atoms: C_19  and  C_20
REMARK    7  A    between atoms: C_20  and  N_21
REMARK    8  A    between atoms: C_22  and  O_24
REMARK    9  A    between atoms: O_24  and  C_25
REMARK   10  A    between atoms: C_25  and  C_26
REMARK   11  A    between atoms: C_25  and  C_27
REMARK   12  A    between atoms: C_25  and  C_28
REMARK                            x       y       z     vdW  Elec       q    Type
REMARK                         _______ _______ _______ _____ _____    ______ ____
ROOT
ATOM      1  N   UNL     1       1.107   8.694  18.041  0.00  0.00    +0.000 N 
ATOM      2  C   UNL     1       0.980  10.069  18.235  0.00  0.00    +0.000 C 
ATOM      3  O   UNL     1       1.938  10.824  18.278  0.00  0.00    +0.000 OA
ATOM      4  H   UNL     1       0.291   8.166  17.755  0.00  0.00    +0.000 HD
ENDROOT
BRANCH   2   5
ATOM      5  C   UNL     1      -0.398  10.613  18.360  0.00  0.00    +0.000 A 
ATOM      6  C   UNL     1      -0.707  11.642  19.247  0.00  0.00    +0.000 A 
ATOM      7  C   UNL     1      -2.028  12.074  19.383  0.00  0.00    +0.000 A 
ATOM      8  C   UNL     1      -3.052  11.490  18.632  0.00  0.00    +0.000 A 
ATOM      9  C   UNL     1      -2.726  10.500  17.689  0.00  0.00    +0.000 A 
ATOM     10  C   UNL     1      -1.402  10.068  17.548  0.00  0.00    +0.000 A 
BRANCH   8  11
ATOM     11  C   UNL     1      -4.484  11.873  18.908  0.00  0.00    +0.000 C 
BRANCH  11  12
ATOM     12  N   UNL     1      -4.659  12.841  19.958  0.00  0.00    +0.000 N 
ATOM     13  C   UNL     1      -5.556  12.583  20.953  0.00  0.00    +0.000 C 
ATOM     14  O   UNL     1      -6.196  11.543  21.013  0.00  0.00    +0.000 OA
ATOM     15  H   UNL     1      -4.226  13.750  19.937  0.00  0.00    +0.000 HD
BRANCH  13  16
ATOM     16  O   UNL     1      -5.633  13.632  21.818  0.00  0.00    +0.000 OA
BRANCH  16  17
ATOM     17  C   UNL     1      -5.112  13.466  23.169  0.00  0.00    +0.000 C 
ATOM     18  C   UNL     1      -3.811  12.652  23.151  0.00  0.00    +0.000 C 
ATOM     19  C   UNL     1      -4.850  14.868  23.763  0.00  0.00    +0.000 C 
ATOM     20  C   UNL     1      -6.159  12.784  24.056  0.00  0.00    +0.000 C 
ENDBRANCH  16  17
ENDBRANCH  13  16
ENDBRANCH  11  12
ENDBRANCH   8  11
ENDBRANCH   2   5
BRANCH   1  21
ATOM     21  C   UNL     1       2.448   8.169  17.818  0.00  0.00    +0.000 C 
BRANCH  21  22
ATOM     22  C   UNL     1       2.929   7.142  18.840  0.00  0.00    +0.000 C 
BRANCH  22  32
ATOM     23  C   UNL     1       4.986   6.456  16.717  0.00  0.00    +0.000 C 
ATOM     24  C   UNL     1       4.039   5.478  17.320  0.00  0.00    +0.000 A 
ATOM     25  C   UNL     1       3.922   4.134  17.048  0.00  0.00    +0.000 A 
ATOM     26  C   UNL     1       2.891   3.601  17.859  0.00  0.00    +0.000 A 
ATOM     27  C   UNL     1       2.357   2.300  17.987  0.00  0.00    +0.000 A 
ATOM     28  C   UNL     1       1.321   2.064  18.892  0.00  0.00    +0.000 A 
ATOM     29  C   UNL     1       0.826   3.107  19.668  0.00  0.00    +0.000 A 
ATOM     30  C   UNL     1       1.344   4.410  19.560  0.00  0.00    +0.000 A 
ATOM     31  C   UNL     1       2.383   4.651  18.638  0.00  0.00    +0.000 A 
ATOM     32  N   UNL     1       3.092   5.799  18.279  0.00  0.00    +0.000 N 
ENDBRANCH  22  32
ENDBRANCH  21  22
ENDBRANCH   1  21
TORSDOF 8
ENDMDL
MODEL 7
REMARK VINA RESULT:      -7.5      2.206      9.903
REMARK  Name = 
REMARK  12 active torsions:
REMARK  status: ('A' for Active; 'I' for Inactive)
REMARK    1  A    between atoms: C_1  and  C_2
REMARK    2  A    between atoms: N_10  and  C_11
REMARK    3  A    between atoms: C_11  and  C_12
REMARK    4  A    between atoms: C_12  and  N_13
REMARK    5  A    between atoms: C_14  and  C_16
REMARK    6  A    between atoms: C_19  and  C_20
REMARK    7  A    between atoms: C_20  and  N_21
REMARK    8  A    between atoms: C_22  and  O_24
REMARK    9  A    between atoms: O_24  and  C_25
REMARK   10  A    between atoms: C_25  and  C_26
REMARK   11  A    between atoms: C_25  and  C_27
REMARK   12  A    between atoms: C_25  and  C_28
REMARK                            x       y       z     vdW  Elec       q    Type
REMARK                         _______ _______ _______ _____ _____    ______ ____
ROOT
ATOM      1  N   UNL     1      -0.766  10.271  19.706  0.00  0.00    +0.000 N 
ATOM      2  C   UNL     1       0.573  10.196  20.091  0.00  0.00    +0.000 C 
ATOM      3  O   UNL     1       1.165  11.127  20.612  0.00  0.00    +0.000 OA
ATOM      4  H   UNL     1      -1.269   9.411  19.528  0.00  0.00    +0.000 HD
ENDROOT
BRANCH   2   5
ATOM      5  C   UNL     1       1.270   8.902  19.875  0.00  0.00    +0.000 A 
ATOM      6  C   UNL     1       1.910   8.602  18.674  0.00  0.00    +0.000 A 
ATOM      7  C   UNL     1       2.492   7.346  18.487  0.00  0.00    +0.000 A 
ATOM      8  C   UNL     1       2.448   6.381  19.497  0.00  0.00    +0.000 A 
ATOM      9  C   UNL     1       1.862   6.711  20.731  0.00  0.00    +0.000 A 
ATOM     10  C   UNL     1       1.281   7.970  20.922  0.00  0.00    +0.000 A 
BRANCH   8  11
ATOM     11  C   UNL     1       2.952   4.988  19.213  0.00  0.00    +0.000 C 
BRANCH  11  12
ATOM     12  N   UNL     1       4.270   4.927  18.640  0.00  0.00    +0.000 N 
ATOM     13  C   UNL     1       4.447   4.272  17.456  0.00  0.00    +0.000 C 
ATOM     14  O   UNL     1       3.524   3.762  16.838  0.00  0.00    +0.000 OA
ATOM     15  H   UNL     1       5.089   5.256  19.125  0.00  0.00    +0.000 HD
BRANCH  13  16
ATOM     16  O   UNL     1       5.762   4.263  17.102  0.00  0.00    +0.000 OA
BRANCH  16  17
ATOM     17  C   UNL     1       6.282   5.371  16.311  0.00  0.00    +0.000 C 
ATOM     18  C   UNL     1       5.148   6.314  15.889  0.00  0.00    +0.000 C 
ATOM     19  C   UNL     1       7.314   6.136  17.171  0.00  0.00    +0.000 C 
ATOM     20  C   UNL     1       7.022   4.838  15.080  0.00  0.00    +0.000 C 
ENDBRANCH  16  17
ENDBRANCH  13  16
ENDBRANCH  11  12
ENDBRANCH   8  11
ENDBRANCH   2   5
BRANCH   1  21
ATOM     21  C   UNL     1      -1.483  11.503  20.007  0.00  0.00    +0.000 C 
BRANCH  21  22
ATOM     22  C   UNL     1      -2.025  12.260  18.796  0.00  0.00    +0.000 C 
BRANCH  22  32
ATOM     23  C   UNL     1      -2.313  10.468  16.365  0.00  0.00    +0.000 C 
ATOM     24  C   UNL     1      -3.446  10.916  17.220  0.00  0.00    +0.000 A 
ATOM     25  C   UNL     1      -4.782  10.614  17.082  0.00  0.00    +0.000 A 
ATOM     26  C   UNL     1      -5.495  11.257  18.122  0.00  0.00    +0.000 A 
ATOM     27  C   UNL     1      -6.867  11.291  18.456  0.00  0.00    +0.000 A 
ATOM     28  C   UNL     1      -7.290  12.024  19.566  0.00  0.00    +0.000 A 
ATOM     29  C   UNL     1      -6.361  12.709  20.341  0.00  0.00    +0.000 A 
ATOM     30  C   UNL     1      -4.989  12.687  20.031  0.00  0.00    +0.000 A 
ATOM     31  C   UNL     1      -4.562  11.956  18.903  0.00  0.00    +0.000 A 
ATOM     32  N   UNL     1      -3.312  11.747  18.321  0.00  0.00    +0.000 N 
ENDBRANCH  22  32
ENDBRANCH  21  22
ENDBRANCH   1  21
TORSDOF 8
ENDMDL
MODEL 8
REMARK VINA RESULT:      -7.5      3.702      9.776
REMARK  Name = 
REMARK  12 active torsions:
REMARK  status: ('A' for Active; 'I' for Inactive)
REMARK    1  A    between atoms: C_1  and  C_2
REMARK    2  A    between atoms: N_10  and  C_11
REMARK    3  A    between atoms: C_11  and  C_12
REMARK    4  A    between atoms: C_12  and  N_13
REMARK    5  A    between atoms: C_14  and  C_16
REMARK    6  A    between atoms: C_19  and  C_20
REMARK    7  A    between atoms: C_20  and  N_21
REMARK    8  A    between atoms: C_22  and  O_24
REMARK    9  A    between atoms: O_24  and  C_25
REMARK   10  A    between atoms: C_25  and  C_26
REMARK   11  A    between atoms: C_25  and  C_27
REMARK   12  A    between atoms: C_25  and  C_28
REMARK                            x       y       z     vdW  Elec       q    Type
REMARK                         _______ _______ _______ _____ _____    ______ ____
ROOT
ATOM      1  N   UNL     1       0.722  12.191  19.831  0.00  0.00    +0.000 N 
ATOM      2  C   UNL     1       0.227  11.107  19.105  0.00  0.00    +0.000 C 
ATOM      3  O   UNL     1      -0.756  11.185  18.386  0.00  0.00    +0.000 OA
ATOM      4  H   UNL     1       1.666  12.143  20.192  0.00  0.00    +0.000 HD
ENDROOT
BRANCH   2   5
ATOM      5  C   UNL     1       0.971   9.825  19.207  0.00  0.00    +0.000 A 
ATOM      6  C   UNL     1       1.669   9.291  18.127  0.00  0.00    +0.000 A 
ATOM      7  C   UNL     1       2.295   8.048  18.246  0.00  0.00    +0.000 A 
ATOM      8  C   UNL     1       2.238   7.330  19.444  0.00  0.00    +0.000 A 
ATOM      9  C   UNL     1       1.591   7.904  20.552  0.00  0.00    +0.000 A 
ATOM     10  C   UNL     1       0.966   9.151  20.436  0.00  0.00    +0.000 A 
BRANCH   8  11
ATOM     11  C   UNL     1       2.795   5.929  19.496  0.00  0.00    +0.000 C 
BRANCH  11  12
ATOM     12  N   UNL     1       4.145   5.797  19.018  0.00  0.00    +0.000 N 
ATOM     13  C   UNL     1       4.411   4.902  18.024  0.00  0.00    +0.000 C 
ATOM     14  O   UNL     1       3.541   4.228  17.492  0.00  0.00    +0.000 OA
ATOM     15  H   UNL     1       4.925   6.261  19.457  0.00  0.00    +0.000 HD
BRANCH  13  16
ATOM     16  O   UNL     1       5.744   4.869  17.747  0.00  0.00    +0.000 OA
BRANCH  16  17
ATOM     17  C   UNL     1       6.265   5.743  16.704  0.00  0.00    +0.000 C 
ATOM     18  C   UNL     1       7.307   6.712  17.279  0.00  0.00    +0.000 C 
ATOM     19  C   UNL     1       6.909   4.861  15.611  0.00  0.00    +0.000 C 
ATOM     20  C   UNL     1       5.118   6.517  16.046  0.00  0.00    +0.000 C 
ENDBRANCH  16  17
ENDBRANCH  13  16
ENDBRANCH  11  12
ENDBRANCH   8  11
ENDBRANCH   2   5
BRANCH   1  21
ATOM     21  C   UNL     1       0.056  13.476  19.656  0.00  0.00    +0.000 C 
BRANCH  21  22
ATOM     22  C   UNL     1       0.753  14.670  20.305  0.00  0.00    +0.000 C 
BRANCH  22  32
ATOM     23  C   UNL     1       3.746  14.470  19.843  0.00  0.00    +0.000 C 
ATOM     24  C   UNL     1       2.843  15.409  19.123  0.00  0.00    +0.000 A 
ATOM     25  C   UNL     1       3.174  16.324  18.148  0.00  0.00    +0.000 A 
ATOM     26  C   UNL     1       1.996  16.998  17.748  0.00  0.00    +0.000 A 
ATOM     27  C   UNL     1       1.757  18.017  16.799  0.00  0.00    +0.000 A 
ATOM     28  C   UNL     1       0.460  18.496  16.611  0.00  0.00    +0.000 A 
ATOM     29  C   UNL     1      -0.591  17.965  17.352  0.00  0.00    +0.000 A 
ATOM     30  C   UNL     1      -0.379  16.947  18.299  0.00  0.00    +0.000 A 
ATOM     31  C   UNL     1       0.933  16.470  18.497  0.00  0.00    +0.000 A 
ATOM     32  N   UNL     1       1.479  15.507  19.347  0.00  0.00    +0.000 N 
ENDBRANCH  22  32
ENDBRANCH  21  22
ENDBRANCH   1  21
TORSDOF 8
ENDMDL
MODEL 9
REMARK VINA RESULT:      -7.4      3.449      5.148
REMARK  Name = 
REMARK  12 active torsions:
REMARK  status: ('A' for Active; 'I' for Inactive)
REMARK    1  A    between atoms: C_1  and  C_2
REMARK    2  A    between atoms: N_10  and  C_11
REMARK    3  A    between atoms: C_11  and  C_12
REMARK    4  A    between atoms: C_12  and  N_13
REMARK    5  A    between atoms: C_14  and  C_16
REMARK    6  A    between atoms: C_19  and  C_20
REMARK    7  A    between atoms: C_20  and  N_21
REMARK    8  A    between atoms: C_22  and  O_24
REMARK    9  A    between atoms: O_24  and  C_25
REMARK   10  A    between atoms: C_25  and  C_26
REMARK   11  A    between atoms: C_25  and  C_27
REMARK   12  A    between atoms: C_25  and  C_28
REMARK                            x       y       z     vdW  Elec       q    Type
REMARK                         _______ _______ _______ _____ _____    ______ ____
ROOT
ATOM      1  N   UNL     1       2.957   7.480  18.763  0.00  0.00    +0.000 N 
ATOM      2  C   UNL     1       2.126   8.569  18.494  0.00  0.00    +0.000 C 
ATOM      3  O   UNL     1       2.061   9.097  17.396  0.00  0.00    +0.000 OA
ATOM      4  H   UNL     1       2.780   6.928  19.592  0.00  0.00    +0.000 HD
ENDROOT
BRANCH   2   5
ATOM      5  C   UNL     1       1.272   9.061  19.606  0.00  0.00    +0.000 A 
ATOM      6  C   UNL     1       0.434  10.164  19.457  0.00  0.00    +0.000 A 
ATOM      7  C   UNL     1      -0.298  10.637  20.549  0.00  0.00    +0.000 A 
ATOM      8  C   UNL     1      -0.208  10.012  21.795  0.00  0.00    +0.000 A 
ATOM      9  C   UNL     1       0.587   8.859  21.923  0.00  0.00    +0.000 A 
ATOM     10  C   UNL     1       1.319   8.381  20.831  0.00  0.00    +0.000 A 
BRANCH   8  11
ATOM     11  C   UNL     1      -0.892  10.633  22.988  0.00  0.00    +0.000 C 
BRANCH  11  12
ATOM     12  N   UNL     1      -2.004  11.487  22.669  0.00  0.00    +0.000 N 
ATOM     13  C   UNL     1      -1.969  12.793  23.060  0.00  0.00    +0.000 C 
ATOM     14  O   UNL     1      -1.013  13.284  23.642  0.00  0.00    +0.000 OA
ATOM     15  H   UNL     1      -2.857  11.139  22.260  0.00  0.00    +0.000 HD
BRANCH  13  16
ATOM     16  O   UNL     1      -3.128  13.428  22.729  0.00  0.00    +0.000 OA
BRANCH  16  17
ATOM     17  C   UNL     1      -4.070  13.762  23.789  0.00  0.00    +0.000 C 
ATOM     18  C   UNL     1      -5.422  14.186  23.199  0.00  0.00    +0.000 C 
ATOM     19  C   UNL     1      -4.253  12.516  24.685  0.00  0.00    +0.000 C 
ATOM     20  C   UNL     1      -3.496  14.876  24.671  0.00  0.00    +0.000 C 
ENDBRANCH  16  17
ENDBRANCH  13  16
ENDBRANCH  11  12
ENDBRANCH   8  11
ENDBRANCH   2   5
BRANCH   1  21
ATOM     21  C   UNL     1       3.721   6.929  17.651  0.00  0.00    +0.000 C 
BRANCH  21  22
ATOM     22  C   UNL     1       3.398   5.482  17.286  0.00  0.00    +0.000 C 
BRANCH  22  32
ATOM     23  C   UNL     1       6.163   4.369  17.855  0.00  0.00    +0.000 C 
ATOM     24  C   UNL     1       4.943   4.036  18.640  0.00  0.00    +0.000 A 
ATOM     25  C   UNL     1       4.838   3.201  19.729  0.00  0.00    +0.000 A 
ATOM     26  C   UNL     1       3.487   3.186  20.153  0.00  0.00    +0.000 A 
ATOM     27  C   UNL     1       2.827   2.512  21.204  0.00  0.00    +0.000 A 
ATOM     28  C   UNL     1       1.456   2.696  21.389  0.00  0.00    +0.000 A 
ATOM     29  C   UNL     1       0.749   3.547  20.545  0.00  0.00    +0.000 A 
ATOM     30  C   UNL     1       1.386   4.231  19.494  0.00  0.00    +0.000 A 
ATOM     31  C   UNL     1       2.769   4.037  19.300  0.00  0.00    +0.000 A 
ATOM     32  N   UNL     1       3.679   4.536  18.367  0.00  0.00    +0.000 N 
ENDBRANCH  22  32
ENDBRANCH  21  22
ENDBRANCH   1  21
TORSDOF 8
ENDMDL
