MODEL 1
REMARK VINA RESULT:      -7.6      0.000      0.000
REMARK  Name = 
REMARK  9 active torsions:
REMARK  status: ('A' for Active; 'I' for Inactive)
REMARK    1  A    between atoms: C_1  and  C_2
REMARK    2  A    between atoms: C_6  and  C_7
REMARK    3  A    between atoms: C_7  and  N_8
REMARK    4  A    between atoms: N_8  and  C_9
REMARK    5  A    between atoms: N_8  and  C_21
REMARK    6  A    between atoms: C_9  and  C_10
REMARK    7  A    between atoms: C_12  and  C_13
REMARK    8  A    between atoms: C_21  and  C_22
REMARK    9  A    between atoms: C_21  and  C_23
REMARK                            x       y       z     vdW  Elec       q    Type
REMARK                         _______ _______ _______ _____ _____    ______ ____
ROOT
ATOM      1  C   UNL     1       3.184   6.016  18.003  0.00  0.00    +0.000 C 
ENDROOT
BRANCH   1   2
ATOM      2  C   UNL     1       2.594   7.274  18.557  0.00  0.00    +0.000 A 
ATOM      3  N   UNL     1       2.191   7.548  19.776  0.00  0.00    +0.000 NA
ATOM      4  C   UNL     1       1.521   8.743  19.621  0.00  0.00    +0.000 A 
ATOM      5  N   UNL     1       1.576   9.230  18.369  0.00  0.00    +0.000 NA
ATOM      6  O   UNL     1       2.280   8.255  17.662  0.00  0.00    +0.000 OA
BRANCH   4   7
ATOM      7  C   UNL     1       0.786   9.361  20.712  0.00  0.00    +0.000 A 
ATOM      8  C   UNL     1       0.069   8.610  21.650  0.00  0.00    +0.000 A 
ATOM      9  C   UNL     1      -0.588   9.254  22.698  0.00  0.00    +0.000 A 
ATOM     10  C   UNL     1      -0.514  10.634  22.775  0.00  0.00    +0.000 A 
ATOM     11  N   UNL     1       0.161  11.395  21.888  0.00  0.00    +0.000 NA
ATOM     12  C   UNL     1       0.801  10.741  20.884  0.00  0.00    +0.000 A 
ENDBRANCH   4   7
ENDBRANCH   1   2
BRANCH   1  13
ATOM     13  N   UNL     1       3.095   4.777  18.829  0.00  0.00    +0.000 NA
BRANCH  13  14
ATOM     14  C   UNL     1       1.739   4.161  18.816  0.00  0.00    +0.000 C 
ATOM     15  C   UNL     1       1.746   2.727  18.254  0.00  0.00    +0.000 C 
ATOM     16  C   UNL     1       1.119   4.073  20.224  0.00  0.00    +0.000 C 
ENDBRANCH  13  14
BRANCH  13  17
ATOM     17  C   UNL     1       4.158   3.799  18.477  0.00  0.00    +0.000 C 
BRANCH  17  23
ATOM     18  C   UNL     1       6.386   4.266  16.041  0.00  0.00    +0.000 C 
ATOM     19  C   UNL     1       6.475   4.575  17.483  0.00  0.00    +0.000 A 
ATOM     20  N   UNL     1       7.576   5.141  17.984  0.00  0.00    +0.000 NA
ATOM     21  O   UNL     1       7.318   5.298  19.339  0.00  0.00    +0.000 OA
ATOM     22  N   UNL     1       6.051   4.833  19.664  0.00  0.00    +0.000 NA
ATOM     23  C   UNL     1       5.538   4.376  18.518  0.00  0.00    +0.000 A 
ENDBRANCH  17  23
ENDBRANCH  13  17
ENDBRANCH   1  13
TORSDOF 6
ENDMDL
MODEL 2
REMARK VINA RESULT:      -7.5      3.415      7.678
REMARK  Name = 
REMARK  9 active torsions:
REMARK  status: ('A' for Active; 'I' for Inactive)
REMARK    1  A    between atoms: C_1  and  C_2
REMARK    2  A    between atoms: C_6  and  C_7
REMARK    3  A    between atoms: C_7  and  N_8
REMARK    4  A    between atoms: N_8  and  C_9
REMARK    5  A    between atoms: N_8  and  C_21
REMARK    6  A    between atoms: C_9  and  C_10
REMARK    7  A    between atoms: C_12  and  C_13
REMARK    8  A    between atoms: C_21  and  C_22
REMARK    9  A    between atoms: C_21  and  C_23
REMARK                            x       y       z     vdW  Elec       q    Type
REMARK                         _______ _______ _______ _____ _____    ______ ____
ROOT
ATOM      1  C   UNL     1       5.460   5.606  19.145  0.00  0.00    +0.000 C 
ENDROOT
BRANCH   1   2
ATOM      2  C   UNL     1       6.260   5.290  17.922  0.00  0.00    +0.000 A 
ATOM      3  N   UNL     1       5.951   5.438  16.653  0.00  0.00    +0.000 NA
ATOM      4  C   UNL     1       6.956   4.752  16.007  0.00  0.00    +0.000 A 
ATOM      5  N   UNL     1       7.894   4.265  16.838  0.00  0.00    +0.000 NA
ATOM      6  O   UNL     1       7.431   4.615  18.107  0.00  0.00    +0.000 OA
BRANCH   4   7
ATOM      7  C   UNL     1       6.942   4.540  14.569  0.00  0.00    +0.000 A 
ATOM      8  C   UNL     1       6.078   3.626  13.957  0.00  0.00    +0.000 A 
ATOM      9  C   UNL     1       6.082   3.491  12.568  0.00  0.00    +0.000 A 
ATOM     10  C   UNL     1       6.956   4.271  11.832  0.00  0.00    +0.000 A 
ATOM     11  N   UNL     1       7.810   5.160  12.384  0.00  0.00    +0.000 NA
ATOM     12  C   UNL     1       7.777   5.279  13.736  0.00  0.00    +0.000 A 
ENDBRANCH   4   7
ENDBRANCH   1   2
BRANCH   1  13
ATOM     13  N   UNL     1       4.035   5.167  19.184  0.00  0.00    +0.000 NA
BRANCH  13  14
ATOM     14  C   UNL     1       3.152   5.967  18.290  0.00  0.00    +0.000 C 
ATOM     15  C   UNL     1       1.978   5.143  17.727  0.00  0.00    +0.000 C 
ATOM     16  C   UNL     1       2.527   7.178  19.011  0.00  0.00    +0.000 C 
ENDBRANCH  13  14
BRANCH  13  17
ATOM     17  C   UNL     1       3.898   3.706  18.944  0.00  0.00    +0.000 C 
BRANCH  17  23
ATOM     18  C   UNL     1       1.301   3.440  21.019  0.00  0.00    +0.000 C 
ATOM     19  C   UNL     1       2.630   2.796  21.071  0.00  0.00    +0.000 A 
ATOM     20  N   UNL     1       2.929   1.951  22.060  0.00  0.00    +0.000 NA
ATOM     21  O   UNL     1       4.227   1.532  21.798  0.00  0.00    +0.000 OA
ATOM     22  N   UNL     1       4.717   2.118  20.639  0.00  0.00    +0.000 NA
ATOM     23  C   UNL     1       3.732   2.908  20.199  0.00  0.00    +0.000 A 
ENDBRANCH  17  23
ENDBRANCH  13  17
ENDBRANCH   1  13
TORSDOF 6
ENDMDL
MODEL 3
REMARK VINA RESULT:      -7.4      3.561      5.471
REMARK  Name = 
REMARK  9 active torsions:
REMARK  status: ('A' for Active; 'I' for Inactive)
REMARK    1  A    between atoms: C_1  and  C_2
REMARK    2  A    between atoms: C_6  and  C_7
REMARK    3  A    between atoms: C_7  and  N_8
REMARK    4  A    between atoms: N_8  and  C_9
REMARK    5  A    between atoms: N_8  and  C_21
REMARK    6  A    between atoms: C_9  and  C_10
REMARK    7  A    between atoms: C_12  and  C_13
REMARK    8  A    between atoms: C_21  and  C_22
REMARK    9  A    between atoms: C_21  and  C_23
REMARK                            x       y       z     vdW  Elec       q    Type
REMARK                         _______ _______ _______ _____ _____    ______ ____
ROOT
ATOM      1  C   UNL     1       5.028   6.797  16.171  0.00  0.00    +0.000 C 
ENDROOT
BRANCH   1   2
ATOM      2  C   UNL     1       4.136   6.489  17.331  0.00  0.00    +0.000 A 
ATOM      3  N   UNL     1       4.023   5.386  18.035  0.00  0.00    +0.000 NA
ATOM      4  C   UNL     1       2.888   5.609  18.783  0.00  0.00    +0.000 A 
ATOM      5  N   UNL     1       2.363   6.835  18.608  0.00  0.00    +0.000 NA
ATOM      6  O   UNL     1       3.185   7.416  17.641  0.00  0.00    +0.000 OA
BRANCH   4   7
ATOM      7  C   UNL     1       2.304   4.579  19.625  0.00  0.00    +0.000 A 
ATOM      8  C   UNL     1       2.662   4.420  20.968  0.00  0.00    +0.000 A 
ATOM      9  C   UNL     1       2.043   3.437  21.740  0.00  0.00    +0.000 A 
ATOM     10  C   UNL     1       1.084   2.636  21.143  0.00  0.00    +0.000 A 
ATOM     11  N   UNL     1       0.715   2.752  19.850  0.00  0.00    +0.000 NA
ATOM     12  C   UNL     1       1.326   3.725  19.125  0.00  0.00    +0.000 A 
ENDBRANCH   4   7
ENDBRANCH   1   2
BRANCH   1  13
ATOM     13  N   UNL     1       6.480   6.480  16.299  0.00  0.00    +0.000 NA
BRANCH  13  14
ATOM     14  C   UNL     1       7.016   6.727  17.667  0.00  0.00    +0.000 C 
ATOM     15  C   UNL     1       7.767   5.509  18.237  0.00  0.00    +0.000 C 
ATOM     16  C   UNL     1       8.006   7.907  17.707  0.00  0.00    +0.000 C 
ENDBRANCH  13  14
BRANCH  13  17
ATOM     17  C   UNL     1       6.793   5.110  15.814  0.00  0.00    +0.000 C 
BRANCH  17  23
ATOM     18  C   UNL     1       5.436   3.489  13.236  0.00  0.00    +0.000 C 
ATOM     19  C   UNL     1       6.614   4.379  13.285  0.00  0.00    +0.000 A 
ATOM     20  N   UNL     1       7.304   4.646  12.174  0.00  0.00    +0.000 NA
ATOM     21  O   UNL     1       8.318   5.506  12.574  0.00  0.00    +0.000 OA
ATOM     22  N   UNL     1       8.241   5.771  13.935  0.00  0.00    +0.000 NA
ATOM     23  C   UNL     1       7.195   5.063  14.373  0.00  0.00    +0.000 A 
ENDBRANCH  17  23
ENDBRANCH  13  17
ENDBRANCH   1  13
TORSDOF 6
ENDMDL
MODEL 4
REMARK VINA RESULT:      -7.3      1.704      7.475
REMARK  Name = 
REMARK  9 active torsions:
REMARK  status: ('A' for Active; 'I' for Inactive)
REMARK    1  A    between atoms: C_1  and  C_2
REMARK    2  A    between atoms: C_6  and  C_7
REMARK    3  A    between atoms: C_7  and  N_8
REMARK    4  A    between atoms: N_8  and  C_9
REMARK    5  A    between atoms: N_8  and  C_21
REMARK    6  A    between atoms: C_9  and  C_10
REMARK    7  A    between atoms: C_12  and  C_13
REMARK    8  A    between atoms: C_21  and  C_22
REMARK    9  A    between atoms: C_21  and  C_23
REMARK                            x       y       z     vdW  Elec       q    Type
REMARK                         _______ _______ _______ _____ _____    ______ ____
ROOT
ATOM      1  C   UNL     1       3.901   4.925  19.670  0.00  0.00    +0.000 C 
ENDROOT
BRANCH   1   2
ATOM      2  C   UNL     1       4.998   4.902  18.654  0.00  0.00    +0.000 A 
ATOM      3  N   UNL     1       4.946   5.091  17.355  0.00  0.00    +0.000 NA
ATOM      4  C   UNL     1       6.199   4.701  16.934  0.00  0.00    +0.000 A 
ATOM      5  N   UNL     1       7.021   4.360  17.941  0.00  0.00    +0.000 NA
ATOM      6  O   UNL     1       6.225   4.486  19.080  0.00  0.00    +0.000 OA
BRANCH   4   7
ATOM      7  C   UNL     1       6.547   4.620  15.526  0.00  0.00    +0.000 A 
ATOM      8  C   UNL     1       5.868   3.781  14.635  0.00  0.00    +0.000 A 
ATOM      9  C   UNL     1       6.220   3.771  13.285  0.00  0.00    +0.000 A 
ATOM     10  C   UNL     1       7.249   4.598  12.866  0.00  0.00    +0.000 A 
ATOM     11  N   UNL     1       7.933   5.416  13.693  0.00  0.00    +0.000 NA
ATOM     12  C   UNL     1       7.561   5.414  14.999  0.00  0.00    +0.000 A 
ENDBRANCH   4   7
ENDBRANCH   1   2
BRANCH   1  13
ATOM     13  N   UNL     1       2.569   5.451  19.252  0.00  0.00    +0.000 NA
BRANCH  13  14
ATOM     14  C   UNL     1       1.483   4.435  19.342  0.00  0.00    +0.000 C 
ATOM     15  C   UNL     1       1.697   3.255  18.376  0.00  0.00    +0.000 C 
ATOM     16  C   UNL     1       1.362   3.827  20.752  0.00  0.00    +0.000 C 
ENDBRANCH  13  14
BRANCH  13  17
ATOM     17  C   UNL     1       2.220   6.708  19.966  0.00  0.00    +0.000 C 
BRANCH  17  23
ATOM     18  C   UNL     1       0.617   9.597  20.413  0.00  0.00    +0.000 C 
ATOM     19  C   UNL     1       1.395   9.110  19.255  0.00  0.00    +0.000 A 
ATOM     20  N   UNL     1       1.545   9.879  18.174  0.00  0.00    +0.000 NA
ATOM     21  O   UNL     1       2.324   9.130  17.302  0.00  0.00    +0.000 OA
ATOM     22  N   UNL     1       2.657   7.902  17.858  0.00  0.00    +0.000 NA
ATOM     23  C   UNL     1       2.071   7.888  19.059  0.00  0.00    +0.000 A 
ENDBRANCH  17  23
ENDBRANCH  13  17
ENDBRANCH   1  13
TORSDOF 6
ENDMDL
MODEL 5
REMARK VINA RESULT:      -7.3      1.316      1.699
REMARK  Name = 
REMARK  9 active torsions:
REMARK  status: ('A' for Active; 'I' for Inactive)
REMARK    1  A    between atoms: C_1  and  C_2
REMARK    2  A    between atoms: C_6  and  C_7
REMARK    3  A    between atoms: C_7  and  N_8
REMARK    4  A    between atoms: N_8  and  C_9
REMARK    5  A    between atoms: N_8  and  C_21
REMARK    6  A    between atoms: C_9  and  C_10
REMARK    7  A    between atoms: C_12  and  C_13
REMARK    8  A    between atoms: C_21  and  C_22
REMARK    9  A    between atoms: C_21  and  C_23
REMARK                            x       y       z     vdW  Elec       q    Type
REMARK                         _______ _______ _______ _____ _____    ______ ____
ROOT
ATOM      1  C   UNL     1       2.637   6.701  17.875  0.00  0.00    +0.000 C 
ENDROOT
BRANCH   1   2
ATOM      2  C   UNL     1       2.183   7.941  18.577  0.00  0.00    +0.000 A 
ATOM      3  N   UNL     1       1.718   8.094  19.796  0.00  0.00    +0.000 NA
ATOM      4  C   UNL     1       1.238   9.385  19.786  0.00  0.00    +0.000 A 
ATOM      5  N   UNL     1       1.467  10.033  18.630  0.00  0.00    +0.000 NA
ATOM      6  O   UNL     1       2.087   9.075  17.827  0.00  0.00    +0.000 OA
BRANCH   4   7
ATOM      7  C   UNL     1       0.505   9.944  20.909  0.00  0.00    +0.000 A 
ATOM      8  C   UNL     1      -0.455  10.949  20.750  0.00  0.00    +0.000 A 
ATOM      9  C   UNL     1      -1.156  11.422  21.859  0.00  0.00    +0.000 A 
ATOM     10  C   UNL     1      -0.871  10.879  23.100  0.00  0.00    +0.000 A 
ATOM     11  N   UNL     1       0.051   9.913  23.298  0.00  0.00    +0.000 NA
ATOM     12  C   UNL     1       0.710   9.463  22.199  0.00  0.00    +0.000 A 
ENDBRANCH   4   7
ENDBRANCH   1   2
BRANCH   1  13
ATOM     13  N   UNL     1       3.562   5.783  18.599  0.00  0.00    +0.000 NA
BRANCH  13  14
ATOM     14  C   UNL     1       2.888   4.558  19.113  0.00  0.00    +0.000 C 
ATOM     15  C   UNL     1       2.397   4.717  20.564  0.00  0.00    +0.000 C 
ATOM     16  C   UNL     1       1.653   4.171  18.277  0.00  0.00    +0.000 C 
ENDBRANCH  13  14
BRANCH  13  17
ATOM     17  C   UNL     1       4.769   5.461  17.793  0.00  0.00    +0.000 C 
BRANCH  17  23
ATOM     18  C   UNL     1       7.477   7.310  17.192  0.00  0.00    +0.000 C 
ATOM     19  C   UNL     1       7.190   6.376  18.300  0.00  0.00    +0.000 A 
ATOM     20  N   UNL     1       8.091   6.183  19.267  0.00  0.00    +0.000 NA
ATOM     21  O   UNL     1       7.501   5.271  20.133  0.00  0.00    +0.000 OA
ATOM     22  N   UNL     1       6.233   4.914  19.696  0.00  0.00    +0.000 NA
ATOM     23  C   UNL     1       6.049   5.589  18.556  0.00  0.00    +0.000 A 
ENDBRANCH  17  23
ENDBRANCH  13  17
ENDBRANCH   1  13
TORSDOF 6
ENDMDL
MODEL 6
REMARK VINA RESULT:      -7.2      1.852      2.208
REMARK  Name = 
REMARK  9 active torsions:
REMARK  status: ('A' for Active; 'I' for Inactive)
REMARK    1  A    between atoms: C_1  and  C_2
REMARK    2  A    between atoms: C_6  and  C_7
REMARK    3  A    between atoms: C_7  and  N_8
REMARK    4  A    between atoms: N_8  and  C_9
REMARK    5  A    between atoms: N_8  and  C_21
REMARK    6  A    between atoms: C_9  and  C_10
REMARK    7  A    between atoms: C_12  and  C_13
REMARK    8  A    between atoms: C_21  and  C_22
REMARK    9  A    between atoms: C_21  and  C_23
REMARK                            x       y       z     vdW  Elec       q    Type
REMARK                         _______ _______ _______ _____ _____    ______ ____
ROOT
ATOM      1  C   UNL     1       3.385   6.502  18.045  0.00  0.00    +0.000 C 
ENDROOT
BRANCH   1   2
ATOM      2  C   UNL     1       2.418   7.526  18.550  0.00  0.00    +0.000 A 
ATOM      3  N   UNL     1       1.819   8.504  17.911  0.00  0.00    +0.000 NA
ATOM      4  C   UNL     1       1.264   9.247  18.929  0.00  0.00    +0.000 A 
ATOM      5  N   UNL     1       1.444   8.706  20.147  0.00  0.00    +0.000 NA
ATOM      6  O   UNL     1       2.215   7.570  19.898  0.00  0.00    +0.000 OA
BRANCH   4   7
ATOM      7  C   UNL     1       0.605  10.519  18.685  0.00  0.00    +0.000 A 
ATOM      8  C   UNL     1      -0.765  10.611  18.418  0.00  0.00    +0.000 A 
ATOM      9  C   UNL     1      -1.353  11.862  18.227  0.00  0.00    +0.000 A 
ATOM     10  C   UNL     1      -0.549  12.987  18.303  0.00  0.00    +0.000 A 
ATOM     11  N   UNL     1       0.777  12.940  18.552  0.00  0.00    +0.000 NA
ATOM     12  C   UNL     1       1.320  11.711  18.745  0.00  0.00    +0.000 A 
ENDBRANCH   4   7
ENDBRANCH   1   2
BRANCH   1  13
ATOM     13  N   UNL     1       3.300   5.121  18.603  0.00  0.00    +0.000 NA
BRANCH  13  14
ATOM     14  C   UNL     1       1.950   4.510  18.448  0.00  0.00    +0.000 C 
ATOM     15  C   UNL     1       1.975   3.232  17.588  0.00  0.00    +0.000 C 
ATOM     16  C   UNL     1       1.326   4.113  19.800  0.00  0.00    +0.000 C 
ENDBRANCH  13  14
BRANCH  13  17
ATOM     17  C   UNL     1       4.376   4.243  18.074  0.00  0.00    +0.000 C 
BRANCH  17  23
ATOM     18  C   UNL     1       7.242   4.543  16.396  0.00  0.00    +0.000 C 
ATOM     19  C   UNL     1       6.953   4.755  17.829  0.00  0.00    +0.000 A 
ATOM     20  N   UNL     1       7.923   5.139  18.663  0.00  0.00    +0.000 NA
ATOM     21  O   UNL     1       7.311   5.251  19.904  0.00  0.00    +0.000 OA
ATOM     22  N   UNL     1       5.960   4.943  19.825  0.00  0.00    +0.000 NA
ATOM     23  C   UNL     1       5.744   4.625  18.544  0.00  0.00    +0.000 A 
ENDBRANCH  17  23
ENDBRANCH  13  17
ENDBRANCH   1  13
TORSDOF 6
ENDMDL
MODEL 7
REMARK VINA RESULT:      -7.2      2.726      4.271
REMARK  Name = 
REMARK  9 active torsions:
REMARK  status: ('A' for Active; 'I' for Inactive)
REMARK    1  A    between atoms: C_1  and  C_2
REMARK    2  A    between atoms: C_6  and  C_7
REMARK    3  A    between atoms: C_7  and  N_8
REMARK    4  A    between atoms: N_8  and  C_9
REMARK    5  A    between atoms: N_8  and  C_21
REMARK    6  A    between atoms: C_9  and  C_10
REMARK    7  A    between atoms: C_12  and  C_13
REMARK    8  A    between atoms: C_21  and  C_22
REMARK    9  A    between atoms: C_21  and  C_23
REMARK                            x       y       z     vdW  Elec       q    Type
REMARK                         _______ _______ _______ _____ _____    ______ ____
ROOT
ATOM      1  C   UNL     1       4.307   4.508  16.690  0.00  0.00    +0.000 C 
ENDROOT
BRANCH   1   2
ATOM      2  C   UNL     1       3.524   5.257  17.722  0.00  0.00    +0.000 A 
ATOM      3  N   UNL     1       2.883   6.399  17.625  0.00  0.00    +0.000 NA
ATOM      4  C   UNL     1       2.581   6.697  18.936  0.00  0.00    +0.000 A 
ATOM      5  N   UNL     1       2.950   5.738  19.803  0.00  0.00    +0.000 NA
ATOM      6  O   UNL     1       3.582   4.787  19.001  0.00  0.00    +0.000 OA
BRANCH   4   7
ATOM      7  C   UNL     1       1.976   7.962  19.319  0.00  0.00    +0.000 A 
ATOM      8  C   UNL     1       1.801   9.012  18.411  0.00  0.00    +0.000 A 
ATOM      9  C   UNL     1       1.179  10.190  18.823  0.00  0.00    +0.000 A 
ATOM     10  C   UNL     1       0.755  10.287  20.137  0.00  0.00    +0.000 A 
ATOM     11  N   UNL     1       0.910   9.301  21.046  0.00  0.00    +0.000 NA
ATOM     12  C   UNL     1       1.508   8.160  20.614  0.00  0.00    +0.000 A 
ENDBRANCH   4   7
ENDBRANCH   1   2
BRANCH   1  13
ATOM     13  N   UNL     1       5.673   5.003  16.352  0.00  0.00    +0.000 NA
BRANCH  13  14
ATOM     14  C   UNL     1       6.423   5.509  17.535  0.00  0.00    +0.000 C 
ATOM     15  C   UNL     1       7.665   4.657  17.857  0.00  0.00    +0.000 C 
ATOM     16  C   UNL     1       6.925   6.953  17.340  0.00  0.00    +0.000 C 
ENDBRANCH  13  14
BRANCH  13  17
ATOM     17  C   UNL     1       6.453   3.996  15.584  0.00  0.00    +0.000 C 
BRANCH  17  23
ATOM     18  C   UNL     1       5.712   3.217  12.428  0.00  0.00    +0.000 C 
ATOM     19  C   UNL     1       6.683   4.192  12.963  0.00  0.00    +0.000 A 
ATOM     20  N   UNL     1       7.420   4.935  12.132  0.00  0.00    +0.000 NA
ATOM     21  O   UNL     1       8.200   5.734  12.957  0.00  0.00    +0.000 OA
ATOM     22  N   UNL     1       7.932   5.485  14.296  0.00  0.00    +0.000 NA
ATOM     23  C   UNL     1       7.003   4.523  14.296  0.00  0.00    +0.000 A 
ENDBRANCH  17  23
ENDBRANCH  13  17
ENDBRANCH   1  13
TORSDOF 6
ENDMDL
MODEL 8
REMARK VINA RESULT:      -7.2      2.640      4.200
REMARK  Name = 
REMARK  9 active torsions:
REMARK  status: ('A' for Active; 'I' for Inactive)
REMARK    1  A    between atoms: C_1  and  C_2
REMARK    2  A    between atoms: C_6  and  C_7
REMARK    3  A    between atoms: C_7  and  N_8
REMARK    4  A    between atoms: N_8  and  C_9
REMARK    5  A    between atoms: N_8  and  C_21
REMARK    6  A    between atoms: C_9  and  C_10
REMARK    7  A    between atoms: C_12  and  C_13
REMARK    8  A    between atoms: C_21  and  C_22
REMARK    9  A    between atoms: C_21  and  C_23
REMARK                            x       y       z     vdW  Elec       q    Type
REMARK                         _______ _______ _______ _____ _____    ______ ____
ROOT
ATOM      1  C   UNL     1       4.399   4.423  16.823  0.00  0.00    +0.000 C 
ENDROOT
BRANCH   1   2
ATOM      2  C   UNL     1       3.574   5.137  17.846  0.00  0.00    +0.000 A 
ATOM      3  N   UNL     1       2.932   6.280  17.761  0.00  0.00    +0.000 NA
ATOM      4  C   UNL     1       2.580   6.537  19.068  0.00  0.00    +0.000 A 
ATOM      5  N   UNL     1       2.921   5.553  19.918  0.00  0.00    +0.000 NA
ATOM      6  O   UNL     1       3.586   4.629  19.112  0.00  0.00    +0.000 OA
BRANCH   4   7
ATOM      7  C   UNL     1       1.955   7.787  19.465  0.00  0.00    +0.000 A 
ATOM      8  C   UNL     1       1.522   8.022  20.775  0.00  0.00    +0.000 A 
ATOM      9  C   UNL     1       0.962   9.255  21.110  0.00  0.00    +0.000 A 
ATOM     10  C   UNL     1       0.846  10.217  20.121  0.00  0.00    +0.000 A 
ATOM     11  N   UNL     1       1.245  10.028  18.846  0.00  0.00    +0.000 NA
ATOM     12  C   UNL     1       1.797   8.823  18.551  0.00  0.00    +0.000 A 
ENDBRANCH   4   7
ENDBRANCH   1   2
BRANCH   1  13
ATOM     13  N   UNL     1       5.723   5.005  16.459  0.00  0.00    +0.000 NA
BRANCH  13  14
ATOM     14  C   UNL     1       6.446   5.590  17.623  0.00  0.00    +0.000 C 
ATOM     15  C   UNL     1       7.730   4.813  17.972  0.00  0.00    +0.000 C 
ATOM     16  C   UNL     1       6.875   7.049  17.377  0.00  0.00    +0.000 C 
ENDBRANCH  13  14
BRANCH  13  17
ATOM     17  C   UNL     1       6.565   4.040  15.704  0.00  0.00    +0.000 C 
BRANCH  17  23
ATOM     18  C   UNL     1       5.660   3.229  12.600  0.00  0.00    +0.000 C 
ATOM     19  C   UNL     1       6.648   4.219  13.074  0.00  0.00    +0.000 A 
ATOM     20  N   UNL     1       7.329   4.964  12.198  0.00  0.00    +0.000 NA
ATOM     21  O   UNL     1       8.144   5.778  12.973  0.00  0.00    +0.000 OA
ATOM     22  N   UNL     1       7.953   5.535  14.326  0.00  0.00    +0.000 NA
ATOM     23  C   UNL     1       7.037   4.563  14.384  0.00  0.00    +0.000 A 
ENDBRANCH  17  23
ENDBRANCH  13  17
ENDBRANCH   1  13
TORSDOF 6
ENDMDL
MODEL 9
REMARK VINA RESULT:      -7.2      3.585      5.521
REMARK  Name = 
REMARK  9 active torsions:
REMARK  status: ('A' for Active; 'I' for Inactive)
REMARK    1  A    between atoms: C_1  and  C_2
REMARK    2  A    between atoms: C_6  and  C_7
REMARK    3  A    between atoms: C_7  and  N_8
REMARK    4  A    between atoms: N_8  and  C_9
REMARK    5  A    between atoms: N_8  and  C_21
REMARK    6  A    between atoms: C_9  and  C_10
REMARK    7  A    between atoms: C_12  and  C_13
REMARK    8  A    between atoms: C_21  and  C_22
REMARK    9  A    between atoms: C_21  and  C_23
REMARK                            x       y       z     vdW  Elec       q    Type
REMARK                         _______ _______ _______ _____ _____    ______ ____
ROOT
ATOM      1  C   UNL     1       5.324   6.720  15.980  0.00  0.00    +0.000 C 
ENDROOT
BRANCH   1   2
ATOM      2  C   UNL     1       4.342   6.425  17.070  0.00  0.00    +0.000 A 
ATOM      3  N   UNL     1       4.081   5.293  17.683  0.00  0.00    +0.000 NA
ATOM      4  C   UNL     1       2.933   5.580  18.389  0.00  0.00    +0.000 A 
ATOM      5  N   UNL     1       2.543   6.862  18.281  0.00  0.00    +0.000 NA
ATOM      6  O   UNL     1       3.471   7.421  17.402  0.00  0.00    +0.000 OA
BRANCH   4   7
ATOM      7  C   UNL     1       2.205   4.559  19.122  0.00  0.00    +0.000 A 
ATOM      8  C   UNL     1       2.171   4.523  20.521  0.00  0.00    +0.000 A 
ATOM      9  C   UNL     1       1.424   3.542  21.173  0.00  0.00    +0.000 A 
ATOM     10  C   UNL     1       0.736   2.618  20.405  0.00  0.00    +0.000 A 
ATOM     11  N   UNL     1       0.748   2.613  19.055  0.00  0.00    +0.000 NA
ATOM     12  C   UNL     1       1.474   3.587  18.447  0.00  0.00    +0.000 A 
ENDBRANCH   4   7
ENDBRANCH   1   2
BRANCH   1  13
ATOM     13  N   UNL     1       6.777   6.645  16.306  0.00  0.00    +0.000 NA
BRANCH  13  14
ATOM     14  C   UNL     1       7.100   7.166  17.664  0.00  0.00    +0.000 C 
ATOM     15  C   UNL     1       7.786   6.112  18.554  0.00  0.00    +0.000 C 
ATOM     16  C   UNL     1       8.049   8.380  17.618  0.00  0.00    +0.000 C 
ENDBRANCH  13  14
BRANCH  13  17
ATOM     17  C   UNL     1       7.326   5.281  16.085  0.00  0.00    +0.000 C 
BRANCH  17  23
ATOM     18  C   UNL     1       8.419   5.790  12.977  0.00  0.00    +0.000 C 
ATOM     19  C   UNL     1       7.365   4.884  13.477  0.00  0.00    +0.000 A 
ATOM     20  N   UNL     1       6.696   4.097  12.631  0.00  0.00    +0.000 NA
ATOM     21  O   UNL     1       5.807   3.385  13.425  0.00  0.00    +0.000 OA
ATOM     22  N   UNL     1       5.941   3.733  14.762  0.00  0.00    +0.000 NA
ATOM     23  C   UNL     1       6.896   4.668  14.789  0.00  0.00    +0.000 A 
ENDBRANCH  17  23
ENDBRANCH  13  17
ENDBRANCH   1  13
TORSDOF 6
ENDMDL
