MODEL 1
REMARK VINA RESULT:      -7.9      0.000      0.000
REMARK  Name = 
REMARK  5 active torsions:
REMARK  status: ('A' for Active; 'I' for Inactive)
REMARK    1  A    between atoms: C_1  and  C_2
REMARK    2  A    between atoms: C_2  and  C_3
REMARK    3  A    between atoms: C_2  and  C_14
REMARK    4  A    between atoms: C_3  and  C_4
REMARK    5  A    between atoms: N_6  and  C_7
REMARK                            x       y       z     vdW  Elec       q    Type
REMARK                         _______ _______ _______ _____ _____    ______ ____
ROOT
ATOM      1  C   UNL     1       5.065   6.049  16.293  0.00  0.00    +0.000 C 
ATOM      2  O   UNL     1       4.976   7.074  15.621  0.00  0.00    +0.000 OA
ATOM      3  N   UNL     1       5.585   4.839  15.870  0.00  0.00    +0.000 N 
ATOM      4  H   UNL     1       5.457   4.040  16.480  0.00  0.00    +0.000 HD
ENDROOT
BRANCH   3   5
ATOM      5  C   UNL     1       6.164   4.579  14.612  0.00  0.00    +0.000 A 
ATOM      6  C   UNL     1       7.326   5.214  14.165  0.00  0.00    +0.000 A 
ATOM      7  C   UNL     1       7.816   4.983  12.878  0.00  0.00    +0.000 A 
ATOM      8  C   UNL     1       7.150   4.105  12.029  0.00  0.00    +0.000 A 
ATOM      9  C   UNL     1       6.018   3.433  12.486  0.00  0.00    +0.000 A 
ATOM     10 CL   UNL     1       5.195   2.348  11.434  0.00  0.00    +0.000 Cl
ATOM     11  C   UNL     1       5.533   3.650  13.777  0.00  0.00    +0.000 A 
ENDBRANCH   3   5
BRANCH   1  12
ATOM     12  C   UNL     1       4.534   6.039  17.714  0.00  0.00    +0.000 C 
BRANCH  12  14
ATOM     13  C   UNL     1       2.750   7.708  18.323  0.00  0.00    +0.000 C 
ATOM     14  C   UNL     1       3.015   6.280  17.817  0.00  0.00    +0.000 C 
BRANCH  14  15
ATOM     15  C   UNL     1       2.276   5.179  18.571  0.00  0.00    +0.000 A 
ATOM     16  C   UNL     1       2.002   5.251  19.943  0.00  0.00    +0.000 A 
ATOM     17  C   UNL     1       1.333   4.216  20.601  0.00  0.00    +0.000 A 
ATOM     18  C   UNL     1       0.930   3.085  19.899  0.00  0.00    +0.000 A 
ATOM     19  C   UNL     1       1.180   2.991  18.535  0.00  0.00    +0.000 A 
ATOM     20  C   UNL     1       1.831   4.036  17.872  0.00  0.00    +0.000 A 
ENDBRANCH  14  15
ENDBRANCH  12  14
ENDBRANCH   1  12
TORSDOF 4
ENDMDL
MODEL 2
REMARK VINA RESULT:      -7.8      3.501      6.366
REMARK  Name = 
REMARK  5 active torsions:
REMARK  status: ('A' for Active; 'I' for Inactive)
REMARK    1  A    between atoms: C_1  and  C_2
REMARK    2  A    between atoms: C_2  and  C_3
REMARK    3  A    between atoms: C_2  and  C_14
REMARK    4  A    between atoms: C_3  and  C_4
REMARK    5  A    between atoms: N_6  and  C_7
REMARK                            x       y       z     vdW  Elec       q    Type
REMARK                         _______ _______ _______ _____ _____    ______ ____
ROOT
ATOM      1  C   UNL     1       5.708   5.174  19.256  0.00  0.00    +0.000 C 
ATOM      2  O   UNL     1       4.853   6.044  19.405  0.00  0.00    +0.000 OA
ATOM      3  N   UNL     1       5.476   3.817  19.121  0.00  0.00    +0.000 N 
ATOM      4  H   UNL     1       6.281   3.203  19.156  0.00  0.00    +0.000 HD
ENDROOT
BRANCH   3   5
ATOM      5  C   UNL     1       4.214   3.193  19.068  0.00  0.00    +0.000 A 
ATOM      6  C   UNL     1       3.666   2.688  17.886  0.00  0.00    +0.000 A 
ATOM      7  C   UNL     1       2.377   2.150  17.870  0.00  0.00    +0.000 A 
ATOM      8  C   UNL     1       1.628   2.106  19.041  0.00  0.00    +0.000 A 
ATOM      9  C   UNL     1       2.188   2.564  20.231  0.00  0.00    +0.000 A 
ATOM     10 CL   UNL     1       1.260   2.509  21.680  0.00  0.00    +0.000 Cl
ATOM     11  C   UNL     1       3.481   3.089  20.256  0.00  0.00    +0.000 A 
ENDBRANCH   3   5
BRANCH   1  12
ATOM     12  C   UNL     1       7.175   5.562  19.251  0.00  0.00    +0.000 C 
BRANCH  12  14
ATOM     13  C   UNL     1       7.794   7.651  17.991  0.00  0.00    +0.000 C 
ATOM     14  C   UNL     1       7.672   6.121  17.904  0.00  0.00    +0.000 C 
BRANCH  14  15
ATOM     15  C   UNL     1       6.885   5.601  16.705  0.00  0.00    +0.000 A 
ATOM     16  C   UNL     1       5.849   6.328  16.105  0.00  0.00    +0.000 A 
ATOM     17  C   UNL     1       5.144   5.814  15.014  0.00  0.00    +0.000 A 
ATOM     18  C   UNL     1       5.458   4.558  14.506  0.00  0.00    +0.000 A 
ATOM     19  C   UNL     1       6.489   3.819  15.075  0.00  0.00    +0.000 A 
ATOM     20  C   UNL     1       7.209   4.342  16.153  0.00  0.00    +0.000 A 
ENDBRANCH  14  15
ENDBRANCH  12  14
ENDBRANCH   1  12
TORSDOF 4
ENDMDL
MODEL 3
REMARK VINA RESULT:      -7.8      3.511      6.435
REMARK  Name = 
REMARK  5 active torsions:
REMARK  status: ('A' for Active; 'I' for Inactive)
REMARK    1  A    between atoms: C_1  and  C_2
REMARK    2  A    between atoms: C_2  and  C_3
REMARK    3  A    between atoms: C_2  and  C_14
REMARK    4  A    between atoms: C_3  and  C_4
REMARK    5  A    between atoms: N_6  and  C_7
REMARK                            x       y       z     vdW  Elec       q    Type
REMARK                         _______ _______ _______ _____ _____    ______ ____
ROOT
ATOM      1  C   UNL     1       5.679   5.143  19.263  0.00  0.00    +0.000 C 
ATOM      2  O   UNL     1       4.825   6.021  19.362  0.00  0.00    +0.000 OA
ATOM      3  N   UNL     1       5.443   3.783  19.176  0.00  0.00    +0.000 N 
ATOM      4  H   UNL     1       6.245   3.167  19.250  0.00  0.00    +0.000 HD
ENDROOT
BRANCH   3   5
ATOM      5  C   UNL     1       4.180   3.161  19.123  0.00  0.00    +0.000 A 
ATOM      6  C   UNL     1       3.622   2.675  17.937  0.00  0.00    +0.000 A 
ATOM      7  C   UNL     1       2.333   2.140  17.923  0.00  0.00    +0.000 A 
ATOM      8  C   UNL     1       1.592   2.079  19.099  0.00  0.00    +0.000 A 
ATOM      9  C   UNL     1       2.162   2.519  20.292  0.00  0.00    +0.000 A 
ATOM     10 CL   UNL     1       1.244   2.444  21.746  0.00  0.00    +0.000 Cl
ATOM     11  C   UNL     1       3.456   3.042  20.314  0.00  0.00    +0.000 A 
ENDBRANCH   3   5
BRANCH   1  12
ATOM     12  C   UNL     1       7.147   5.525  19.271  0.00  0.00    +0.000 C 
BRANCH  12  14
ATOM     13  C   UNL     1       7.762   7.601  17.987  0.00  0.00    +0.000 C 
ATOM     14  C   UNL     1       7.662   6.068  17.925  0.00  0.00    +0.000 C 
BRANCH  14  15
ATOM     15  C   UNL     1       6.906   5.517  16.719  0.00  0.00    +0.000 A 
ATOM     16  C   UNL     1       7.195   4.272  16.147  0.00  0.00    +0.000 A 
ATOM     17  C   UNL     1       6.488   3.806  15.036  0.00  0.00    +0.000 A 
ATOM     18  C   UNL     1       5.480   4.581  14.471  0.00  0.00    +0.000 A 
ATOM     19  C   UNL     1       5.165   5.817  15.026  0.00  0.00    +0.000 A 
ATOM     20  C   UNL     1       5.859   6.274  16.150  0.00  0.00    +0.000 A 
ENDBRANCH  14  15
ENDBRANCH  12  14
ENDBRANCH   1  12
TORSDOF 4
ENDMDL
MODEL 4
REMARK VINA RESULT:      -7.7      1.106      1.119
REMARK  Name = 
REMARK  5 active torsions:
REMARK  status: ('A' for Active; 'I' for Inactive)
REMARK    1  A    between atoms: C_1  and  C_2
REMARK    2  A    between atoms: C_2  and  C_3
REMARK    3  A    between atoms: C_2  and  C_14
REMARK    4  A    between atoms: C_3  and  C_4
REMARK    5  A    between atoms: N_6  and  C_7
REMARK                            x       y       z     vdW  Elec       q    Type
REMARK                         _______ _______ _______ _____ _____    ______ ____
ROOT
ATOM      1  C   UNL     1       6.088   4.838  17.009  0.00  0.00    +0.000 C 
ATOM      2  O   UNL     1       7.202   4.382  17.258  0.00  0.00    +0.000 OA
ATOM      3  N   UNL     1       5.556   5.049  15.749  0.00  0.00    +0.000 N 
ATOM      4  H   UNL     1       4.688   5.569  15.693  0.00  0.00    +0.000 HD
ENDROOT
BRANCH   3   5
ATOM      5  C   UNL     1       6.169   4.721  14.524  0.00  0.00    +0.000 A 
ATOM      6  C   UNL     1       7.318   5.363  14.054  0.00  0.00    +0.000 A 
ATOM      7  C   UNL     1       7.842   5.058  12.796  0.00  0.00    +0.000 A 
ATOM      8  C   UNL     1       7.222   4.100  11.999  0.00  0.00    +0.000 A 
ATOM      9  C   UNL     1       6.105   3.424  12.483  0.00  0.00    +0.000 A 
ATOM     10 CL   UNL     1       5.339   2.239  11.496  0.00  0.00    +0.000 Cl
ATOM     11  C   UNL     1       5.586   3.715  13.746  0.00  0.00    +0.000 A 
ENDBRANCH   3   5
BRANCH   1  12
ATOM     12  C   UNL     1       5.184   5.264  18.150  0.00  0.00    +0.000 C 
BRANCH  12  14
ATOM     13  C   UNL     1       3.432   7.048  17.853  0.00  0.00    +0.000 C 
ATOM     14  C   UNL     1       3.729   5.544  17.726  0.00  0.00    +0.000 C 
BRANCH  14  15
ATOM     15  C   UNL     1       2.714   4.625  18.398  0.00  0.00    +0.000 A 
ATOM     16  C   UNL     1       2.045   4.969  19.580  0.00  0.00    +0.000 A 
ATOM     17  C   UNL     1       1.130   4.095  20.172  0.00  0.00    +0.000 A 
ATOM     18  C   UNL     1       0.872   2.856  19.597  0.00  0.00    +0.000 A 
ATOM     19  C   UNL     1       1.514   2.492  18.419  0.00  0.00    +0.000 A 
ATOM     20  C   UNL     1       2.414   3.375  17.814  0.00  0.00    +0.000 A 
ENDBRANCH  14  15
ENDBRANCH  12  14
ENDBRANCH   1  12
TORSDOF 4
ENDMDL
MODEL 5
REMARK VINA RESULT:      -7.5      0.925      1.250
REMARK  Name = 
REMARK  5 active torsions:
REMARK  status: ('A' for Active; 'I' for Inactive)
REMARK    1  A    between atoms: C_1  and  C_2
REMARK    2  A    between atoms: C_2  and  C_3
REMARK    3  A    between atoms: C_2  and  C_14
REMARK    4  A    between atoms: C_3  and  C_4
REMARK    5  A    between atoms: N_6  and  C_7
REMARK                            x       y       z     vdW  Elec       q    Type
REMARK                         _______ _______ _______ _____ _____    ______ ____
ROOT
ATOM      1  C   UNL     1       5.262   6.056  16.262  0.00  0.00    +0.000 C 
ATOM      2  O   UNL     1       4.973   7.019  15.556  0.00  0.00    +0.000 OA
ATOM      3  N   UNL     1       5.894   4.898  15.844  0.00  0.00    +0.000 N 
ATOM      4  H   UNL     1       5.934   4.128  16.501  0.00  0.00    +0.000 HD
ENDROOT
BRANCH   3   5
ATOM      5  C   UNL     1       6.378   4.639  14.546  0.00  0.00    +0.000 A 
ATOM      6  C   UNL     1       7.478   5.305  13.999  0.00  0.00    +0.000 A 
ATOM      7  C   UNL     1       7.870   5.071  12.680  0.00  0.00    +0.000 A 
ATOM      8  C   UNL     1       7.166   4.160  11.897  0.00  0.00    +0.000 A 
ATOM      9  C   UNL     1       6.098   3.460  12.453  0.00  0.00    +0.000 A 
ATOM     10 CL   UNL     1       5.228   2.334  11.484  0.00  0.00    +0.000 Cl
ATOM     11  C   UNL     1       5.712   3.679  13.776  0.00  0.00    +0.000 A 
ENDBRANCH   3   5
BRANCH   1  12
ATOM     12  C   UNL     1       4.877   6.064  17.729  0.00  0.00    +0.000 C 
BRANCH  12  14
ATOM     13  C   UNL     1       2.733   7.292  18.213  0.00  0.00    +0.000 C 
ATOM     14  C   UNL     1       3.365   5.909  17.982  0.00  0.00    +0.000 C 
BRANCH  14  15
ATOM     15  C   UNL     1       3.031   4.860  19.038  0.00  0.00    +0.000 A 
ATOM     16  C   UNL     1       3.795   3.701  19.224  0.00  0.00    +0.000 A 
ATOM     17  C   UNL     1       3.451   2.757  20.195  0.00  0.00    +0.000 A 
ATOM     18  C   UNL     1       2.330   2.951  20.995  0.00  0.00    +0.000 A 
ATOM     19  C   UNL     1       1.559   4.098  20.838  0.00  0.00    +0.000 A 
ATOM     20  C   UNL     1       1.915   5.053  19.881  0.00  0.00    +0.000 A 
ENDBRANCH  14  15
ENDBRANCH  12  14
ENDBRANCH   1  12
TORSDOF 4
ENDMDL
MODEL 6
REMARK VINA RESULT:      -7.4      1.367      1.539
REMARK  Name = 
REMARK  5 active torsions:
REMARK  status: ('A' for Active; 'I' for Inactive)
REMARK    1  A    between atoms: C_1  and  C_2
REMARK    2  A    between atoms: C_2  and  C_3
REMARK    3  A    between atoms: C_2  and  C_14
REMARK    4  A    between atoms: C_3  and  C_4
REMARK    5  A    between atoms: N_6  and  C_7
REMARK                            x       y       z     vdW  Elec       q    Type
REMARK                         _______ _______ _______ _____ _____    ______ ____
ROOT
ATOM      1  C   UNL     1       6.399   4.985  16.834  0.00  0.00    +0.000 C 
ATOM      2  O   UNL     1       7.570   4.664  17.025  0.00  0.00    +0.000 OA
ATOM      3  N   UNL     1       5.766   5.065  15.607  0.00  0.00    +0.000 N 
ATOM      4  H   UNL     1       4.845   5.488  15.587  0.00  0.00    +0.000 HD
ENDROOT
BRANCH   3   5
ATOM      5  C   UNL     1       6.329   4.732  14.359  0.00  0.00    +0.000 A 
ATOM      6  C   UNL     1       7.413   5.419  13.807  0.00  0.00    +0.000 A 
ATOM      7  C   UNL     1       7.884   5.103  12.531  0.00  0.00    +0.000 A 
ATOM      8  C   UNL     1       7.276   4.089  11.798  0.00  0.00    +0.000 A 
ATOM      9  C   UNL     1       6.225   3.369  12.363  0.00  0.00    +0.000 A 
ATOM     10 CL   UNL     1       5.474   2.114  11.455  0.00  0.00    +0.000 Cl
ATOM     11  C   UNL     1       5.761   3.671  13.644  0.00  0.00    +0.000 A 
ENDBRANCH   3   5
BRANCH   1  12
ATOM     12  C   UNL     1       5.532   5.381  18.013  0.00  0.00    +0.000 C 
BRANCH  12  14
ATOM     13  C   UNL     1       3.497   6.861  18.106  0.00  0.00    +0.000 C 
ATOM     14  C   UNL     1       4.030   5.482  17.682  0.00  0.00    +0.000 C 
BRANCH  14  15
ATOM     15  C   UNL     1       3.217   4.292  18.182  0.00  0.00    +0.000 A 
ATOM     16  C   UNL     1       3.799   3.197  18.835  0.00  0.00    +0.000 A 
ATOM     17  C   UNL     1       3.022   2.120  19.268  0.00  0.00    +0.000 A 
ATOM     18  C   UNL     1       1.649   2.114  19.051  0.00  0.00    +0.000 A 
ATOM     19  C   UNL     1       1.044   3.192  18.415  0.00  0.00    +0.000 A 
ATOM     20  C   UNL     1       1.818   4.280  17.999  0.00  0.00    +0.000 A 
ENDBRANCH  14  15
ENDBRANCH  12  14
ENDBRANCH   1  12
TORSDOF 4
ENDMDL
MODEL 7
REMARK VINA RESULT:      -7.4      0.964      1.465
REMARK  Name = 
REMARK  5 active torsions:
REMARK  status: ('A' for Active; 'I' for Inactive)
REMARK    1  A    between atoms: C_1  and  C_2
REMARK    2  A    between atoms: C_2  and  C_3
REMARK    3  A    between atoms: C_2  and  C_14
REMARK    4  A    between atoms: C_3  and  C_4
REMARK    5  A    between atoms: N_6  and  C_7
REMARK                            x       y       z     vdW  Elec       q    Type
REMARK                         _______ _______ _______ _____ _____    ______ ____
ROOT
ATOM      1  C   UNL     1       5.235   4.906  16.824  0.00  0.00    +0.000 C 
ATOM      2  O   UNL     1       5.463   3.721  17.053  0.00  0.00    +0.000 OA
ATOM      3  N   UNL     1       5.517   5.579  15.649  0.00  0.00    +0.000 N 
ATOM      4  H   UNL     1       5.412   6.587  15.655  0.00  0.00    +0.000 HD
ENDROOT
BRANCH   3   5
ATOM      5  C   UNL     1       6.059   5.013  14.478  0.00  0.00    +0.000 A 
ATOM      6  C   UNL     1       7.363   5.266  14.046  0.00  0.00    +0.000 A 
ATOM      7  C   UNL     1       7.828   4.745  12.836  0.00  0.00    +0.000 A 
ATOM      8  C   UNL     1       6.990   3.959  12.051  0.00  0.00    +0.000 A 
ATOM      9  C   UNL     1       5.705   3.665  12.501  0.00  0.00    +0.000 A 
ATOM     10 CL   UNL     1       4.670   2.693  11.528  0.00  0.00    +0.000 Cl
ATOM     11  C   UNL     1       5.241   4.171  13.716  0.00  0.00    +0.000 A 
ENDBRANCH   3   5
BRANCH   1  12
ATOM     12  C   UNL     1       4.625   5.772  17.911  0.00  0.00    +0.000 C 
BRANCH  12  14
ATOM     13  C   UNL     1       2.735   7.424  18.095  0.00  0.00    +0.000 C 
ATOM     14  C   UNL     1       3.103   5.965  17.778  0.00  0.00    +0.000 C 
BRANCH  14  15
ATOM     15  C   UNL     1       2.290   4.915  18.528  0.00  0.00    +0.000 A 
ATOM     16  C   UNL     1       1.793   3.759  17.913  0.00  0.00    +0.000 A 
ATOM     17  C   UNL     1       1.043   2.824  18.631  0.00  0.00    +0.000 A 
ATOM     18  C   UNL     1       0.768   3.033  19.978  0.00  0.00    +0.000 A 
ATOM     19  C   UNL     1       1.257   4.167  20.617  0.00  0.00    +0.000 A 
ATOM     20  C   UNL     1       2.026   5.092  19.904  0.00  0.00    +0.000 A 
ENDBRANCH  14  15
ENDBRANCH  12  14
ENDBRANCH   1  12
TORSDOF 4
ENDMDL
MODEL 8
REMARK VINA RESULT:      -7.3      3.169      7.193
REMARK  Name = 
REMARK  5 active torsions:
REMARK  status: ('A' for Active; 'I' for Inactive)
REMARK    1  A    between atoms: C_1  and  C_2
REMARK    2  A    between atoms: C_2  and  C_3
REMARK    3  A    between atoms: C_2  and  C_14
REMARK    4  A    between atoms: C_3  and  C_4
REMARK    5  A    between atoms: N_6  and  C_7
REMARK                            x       y       z     vdW  Elec       q    Type
REMARK                         _______ _______ _______ _____ _____    ______ ____
ROOT
ATOM      1  C   UNL     1       6.430   4.612  18.416  0.00  0.00    +0.000 C 
ATOM      2  O   UNL     1       6.830   5.242  19.392  0.00  0.00    +0.000 OA
ATOM      3  N   UNL     1       5.238   3.916  18.326  0.00  0.00    +0.000 N 
ATOM      4  H   UNL     1       5.108   3.320  17.516  0.00  0.00    +0.000 HD
ENDROOT
BRANCH   3   5
ATOM      5  C   UNL     1       4.237   3.854  19.315  0.00  0.00    +0.000 A 
ATOM      6  C   UNL     1       3.931   2.684  20.014  0.00  0.00    +0.000 A 
ATOM      7  C   UNL     1       2.875   2.653  20.928  0.00  0.00    +0.000 A 
ATOM      8  C   UNL     1       2.121   3.800  21.156  0.00  0.00    +0.000 A 
ATOM      9  C   UNL     1       2.452   4.982  20.497  0.00  0.00    +0.000 A 
ATOM     10 CL   UNL     1       1.518   6.399  20.781  0.00  0.00    +0.000 Cl
ATOM     11  C   UNL     1       3.516   5.021  19.594  0.00  0.00    +0.000 A 
ENDBRANCH   3   5
BRANCH   1  12
ATOM     12  C   UNL     1       7.303   4.522  17.178  0.00  0.00    +0.000 C 
BRANCH  12  14
ATOM     13  C   UNL     1       5.772   6.420  16.553  0.00  0.00    +0.000 C 
ATOM     14  C   UNL     1       6.950   5.549  16.085  0.00  0.00    +0.000 C 
BRANCH  14  15
ATOM     15  C   UNL     1       6.787   4.930  14.700  0.00  0.00    +0.000 A 
ATOM     16  C   UNL     1       5.782   4.004  14.397  0.00  0.00    +0.000 A 
ATOM     17  C   UNL     1       5.672   3.450  13.119  0.00  0.00    +0.000 A 
ATOM     18  C   UNL     1       6.572   3.807  12.121  0.00  0.00    +0.000 A 
ATOM     19  C   UNL     1       7.574   4.732  12.392  0.00  0.00    +0.000 A 
ATOM     20  C   UNL     1       7.671   5.302  13.664  0.00  0.00    +0.000 A 
ENDBRANCH  14  15
ENDBRANCH  12  14
ENDBRANCH   1  12
TORSDOF 4
ENDMDL
MODEL 9
REMARK VINA RESULT:      -7.3      3.164      7.178
REMARK  Name = 
REMARK  5 active torsions:
REMARK  status: ('A' for Active; 'I' for Inactive)
REMARK    1  A    between atoms: C_1  and  C_2
REMARK    2  A    between atoms: C_2  and  C_3
REMARK    3  A    between atoms: C_2  and  C_14
REMARK    4  A    between atoms: C_3  and  C_4
REMARK    5  A    between atoms: N_6  and  C_7
REMARK                            x       y       z     vdW  Elec       q    Type
REMARK                         _______ _______ _______ _____ _____    ______ ____
ROOT
ATOM      1  C   UNL     1       6.488   4.574  18.337  0.00  0.00    +0.000 C 
ATOM      2  O   UNL     1       6.910   5.174  19.323  0.00  0.00    +0.000 OA
ATOM      3  N   UNL     1       5.286   3.895  18.248  0.00  0.00    +0.000 N 
ATOM      4  H   UNL     1       5.137   3.322  17.426  0.00  0.00    +0.000 HD
ENDROOT
BRANCH   3   5
ATOM      5  C   UNL     1       4.299   3.821  19.251  0.00  0.00    +0.000 A 
ATOM      6  C   UNL     1       4.023   2.649  19.960  0.00  0.00    +0.000 A 
ATOM      7  C   UNL     1       2.980   2.605  20.887  0.00  0.00    +0.000 A 
ATOM      8  C   UNL     1       2.208   3.739  21.118  0.00  0.00    +0.000 A 
ATOM      9  C   UNL     1       2.509   4.923  20.449  0.00  0.00    +0.000 A 
ATOM     10 CL   UNL     1       1.553   6.325  20.736  0.00  0.00    +0.000 Cl
ATOM     11  C   UNL     1       3.560   4.976  19.532  0.00  0.00    +0.000 A 
ENDBRANCH   3   5
BRANCH   1  12
ATOM     12  C   UNL     1       7.341   4.504  17.085  0.00  0.00    +0.000 C 
BRANCH  12  14
ATOM     13  C   UNL     1       5.730   6.338  16.469  0.00  0.00    +0.000 C 
ATOM     14  C   UNL     1       6.951   5.528  16.002  0.00  0.00    +0.000 C 
BRANCH  14  15
ATOM     15  C   UNL     1       6.831   4.922  14.607  0.00  0.00    +0.000 A 
ATOM     16  C   UNL     1       7.733   5.209  13.575  0.00  0.00    +0.000 A 
ATOM     17  C   UNL     1       7.583   4.642  12.307  0.00  0.00    +0.000 A 
ATOM     18  C   UNL     1       6.522   3.781  12.045  0.00  0.00    +0.000 A 
ATOM     19  C   UNL     1       5.618   3.471  13.055  0.00  0.00    +0.000 A 
ATOM     20  C   UNL     1       5.780   4.021  14.330  0.00  0.00    +0.000 A 
ENDBRANCH  14  15
ENDBRANCH  12  14
ENDBRANCH   1  12
TORSDOF 4
ENDMDL
