MODEL 1
REMARK VINA RESULT:      -8.3      0.000      0.000
REMARK  Name = 
REMARK  4 active torsions:
REMARK  status: ('A' for Active; 'I' for Inactive)
REMARK    1  A    between atoms: C_1  and  C_2
REMARK    2  A    between atoms: C_2  and  C_3
REMARK    3  A    between atoms: C_2  and  C_4
REMARK    4  A    between atoms: C_13  and  C_14
REMARK                            x       y       z     vdW  Elec       q    Type
REMARK                         _______ _______ _______ _____ _____    ______ ____
ROOT
ATOM      1  C   UNL     1       6.729   5.759  16.539  0.00  0.00    +0.000 A 
ATOM      2  N   UNL     1       7.599   5.840  15.477  0.00  0.00    +0.000 N 
ATOM      3  C   UNL     1       7.132   5.117  14.405  0.00  0.00    +0.000 A 
ATOM      4  C   UNL     1       7.709   4.913  13.145  0.00  0.00    +0.000 A 
ATOM      5  C   UNL     1       7.017   4.102  12.243  0.00  0.00    +0.000 A 
ATOM      6  C   UNL     1       5.795   3.531  12.594  0.00  0.00    +0.000 A 
ATOM      7 CL   UNL     1       4.983   2.518  11.462  0.00  0.00    +0.000 Cl
ATOM      8  C   UNL     1       5.219   3.761  13.849  0.00  0.00    +0.000 A 
ATOM      9  C   UNL     1       5.902   4.572  14.778  0.00  0.00    +0.000 A 
ATOM     10  C   UNL     1       5.641   5.020  16.107  0.00  0.00    +0.000 A 
ATOM     11  H   UNL     1       8.474   6.345  15.483  0.00  0.00    +0.000 HD
ENDROOT
BRANCH  10  12
ATOM     12  C   UNL     1       4.470   4.797  16.894  0.00  0.00    +0.000 C 
ATOM     13  C   UNL     1       3.692   5.794  17.349  0.00  0.00    +0.000 C 
ATOM     14  C   UNL     1       2.542   5.579  18.287  0.00  0.00    +0.000 C 
ATOM     15  N   UNL     1       2.169   4.175  18.477  0.00  0.00    +0.000 NA
ATOM     16  C   UNL     1       3.363   3.328  18.594  0.00  0.00    +0.000 C 
ATOM     17  C   UNL     1       4.226   3.374  17.322  0.00  0.00    +0.000 C 
ATOM     18  H   UNL     1       1.636   3.876  17.661  0.00  0.00    +0.000 HD
ENDBRANCH  10  12
BRANCH   1  20
ATOM     19  C   UNL     1       7.824   5.451  18.764  0.00  0.00    +0.000 C 
ATOM     20  C   UNL     1       7.033   6.404  17.866  0.00  0.00    +0.000 C 
ATOM     21  C   UNL     1       7.769   7.731  17.688  0.00  0.00    +0.000 C 
ENDBRANCH   1  20
TORSDOF 2
ENDMDL
MODEL 2
REMARK VINA RESULT:      -8.2      0.291      1.158
REMARK  Name = 
REMARK  4 active torsions:
REMARK  status: ('A' for Active; 'I' for Inactive)
REMARK    1  A    between atoms: C_1  and  C_2
REMARK    2  A    between atoms: C_2  and  C_3
REMARK    3  A    between atoms: C_2  and  C_4
REMARK    4  A    between atoms: C_13  and  C_14
REMARK                            x       y       z     vdW  Elec       q    Type
REMARK                         _______ _______ _______ _____ _____    ______ ____
ROOT
ATOM      1  C   UNL     1       6.777   5.687  16.617  0.00  0.00    +0.000 A 
ATOM      2  N   UNL     1       7.594   5.874  15.527  0.00  0.00    +0.000 N 
ATOM      3  C   UNL     1       7.153   5.141  14.452  0.00  0.00    +0.000 A 
ATOM      4  C   UNL     1       7.697   5.022  13.167  0.00  0.00    +0.000 A 
ATOM      5  C   UNL     1       7.045   4.177  12.267  0.00  0.00    +0.000 A 
ATOM      6  C   UNL     1       5.894   3.489  12.644  0.00  0.00    +0.000 A 
ATOM      7 CL   UNL     1       5.132   2.436  11.513  0.00  0.00    +0.000 Cl
ATOM      8  C   UNL     1       5.349   3.632  13.925  0.00  0.00    +0.000 A 
ATOM      9  C   UNL     1       5.992   4.477  14.853  0.00  0.00    +0.000 A 
ATOM     10  C   UNL     1       5.743   4.865  16.203  0.00  0.00    +0.000 A 
ATOM     11  H   UNL     1       8.421   6.456  15.517  0.00  0.00    +0.000 HD
ENDROOT
BRANCH  10  12
ATOM     12  C   UNL     1       4.629   4.516  17.025  0.00  0.00    +0.000 C 
ATOM     13  C   UNL     1       4.272   3.244  17.274  0.00  0.00    +0.000 C 
ATOM     14  C   UNL     1       3.027   2.869  18.021  0.00  0.00    +0.000 C 
ATOM     15  N   UNL     1       2.353   3.991  18.680  0.00  0.00    +0.000 NA
ATOM     16  C   UNL     1       2.346   5.177  17.814  0.00  0.00    +0.000 C 
ATOM     17  C   UNL     1       3.768   5.661  17.489  0.00  0.00    +0.000 C 
ATOM     18  H   UNL     1       2.868   4.213  19.531  0.00  0.00    +0.000 HD
ENDBRANCH  10  12
BRANCH   1  20
ATOM     19  C   UNL     1       7.889   5.375  18.834  0.00  0.00    +0.000 C 
ATOM     20  C   UNL     1       7.073   6.322  17.951  0.00  0.00    +0.000 C 
ATOM     21  C   UNL     1       7.780   7.666  17.787  0.00  0.00    +0.000 C 
ENDBRANCH   1  20
TORSDOF 2
ENDMDL
MODEL 3
REMARK VINA RESULT:      -6.9      1.180      1.385
REMARK  Name = 
REMARK  4 active torsions:
REMARK  status: ('A' for Active; 'I' for Inactive)
REMARK    1  A    between atoms: C_1  and  C_2
REMARK    2  A    between atoms: C_2  and  C_3
REMARK    3  A    between atoms: C_2  and  C_4
REMARK    4  A    between atoms: C_13  and  C_14
REMARK                            x       y       z     vdW  Elec       q    Type
REMARK                         _______ _______ _______ _____ _____    ______ ____
ROOT
ATOM      1  C   UNL     1       6.253   4.717  17.274  0.00  0.00    +0.000 A 
ATOM      2  N   UNL     1       7.191   5.104  16.345  0.00  0.00    +0.000 N 
ATOM      3  C   UNL     1       6.822   4.707  15.082  0.00  0.00    +0.000 A 
ATOM      4  C   UNL     1       7.490   4.872  13.863  0.00  0.00    +0.000 A 
ATOM      5  C   UNL     1       6.887   4.341  12.721  0.00  0.00    +0.000 A 
ATOM      6  C   UNL     1       5.663   3.681  12.805  0.00  0.00    +0.000 A 
ATOM      7 CL   UNL     1       4.963   3.018  11.378  0.00  0.00    +0.000 Cl
ATOM      8  C   UNL     1       4.995   3.541  14.027  0.00  0.00    +0.000 A 
ATOM      9  C   UNL     1       5.587   4.065  15.195  0.00  0.00    +0.000 A 
ATOM     10  C   UNL     1       5.221   4.118  16.573  0.00  0.00    +0.000 A 
ATOM     11  H   UNL     1       8.047   5.596  16.558  0.00  0.00    +0.000 HD
ENDROOT
BRANCH  10  12
ATOM     12  C   UNL     1       4.007   3.669  17.176  0.00  0.00    +0.000 C 
ATOM     13  C   UNL     1       2.917   4.447  17.295  0.00  0.00    +0.000 C 
ATOM     14  C   UNL     1       1.687   4.032  18.047  0.00  0.00    +0.000 C 
ATOM     15  N   UNL     1       1.660   2.618  18.431  0.00  0.00    +0.000 NA
ATOM     16  C   UNL     1       2.978   2.180  18.907  0.00  0.00    +0.000 C 
ATOM     17  C   UNL     1       4.054   2.307  17.816  0.00  0.00    +0.000 C 
ATOM     18  H   UNL     1       1.413   2.072  17.607  0.00  0.00    +0.000 HD
ENDBRANCH  10  12
BRANCH   1  20
ATOM     19  C   UNL     1       7.750   5.723  19.006  0.00  0.00    +0.000 C 
ATOM     20  C   UNL     1       6.445   4.966  18.748  0.00  0.00    +0.000 C 
ATOM     21  C   UNL     1       5.252   5.706  19.351  0.00  0.00    +0.000 C 
ENDBRANCH   1  20
TORSDOF 2
ENDMDL
MODEL 4
REMARK VINA RESULT:      -6.8      1.018      1.666
REMARK  Name = 
REMARK  4 active torsions:
REMARK  status: ('A' for Active; 'I' for Inactive)
REMARK    1  A    between atoms: C_1  and  C_2
REMARK    2  A    between atoms: C_2  and  C_3
REMARK    3  A    between atoms: C_2  and  C_4
REMARK    4  A    between atoms: C_13  and  C_14
REMARK                            x       y       z     vdW  Elec       q    Type
REMARK                         _______ _______ _______ _____ _____    ______ ____
ROOT
ATOM      1  C   UNL     1       6.561   4.851  17.166  0.00  0.00    +0.000 A 
ATOM      2  N   UNL     1       7.428   5.196  16.155  0.00  0.00    +0.000 N 
ATOM      3  C   UNL     1       6.955   4.770  14.937  0.00  0.00    +0.000 A 
ATOM      4  C   UNL     1       7.528   4.890  13.665  0.00  0.00    +0.000 A 
ATOM      5  C   UNL     1       6.830   4.336  12.589  0.00  0.00    +0.000 A 
ATOM      6  C   UNL     1       5.608   3.698  12.788  0.00  0.00    +0.000 A 
ATOM      7 CL   UNL     1       4.788   3.007  11.440  0.00  0.00    +0.000 Cl
ATOM      8  C   UNL     1       5.036   3.604  14.063  0.00  0.00    +0.000 A 
ATOM      9  C   UNL     1       5.725   4.151  15.164  0.00  0.00    +0.000 A 
ATOM     10  C   UNL     1       5.469   4.249  16.565  0.00  0.00    +0.000 A 
ATOM     11  H   UNL     1       8.305   5.681  16.286  0.00  0.00    +0.000 HD
ENDROOT
BRANCH  10  12
ATOM     12  C   UNL     1       4.300   3.836  17.274  0.00  0.00    +0.000 C 
ATOM     13  C   UNL     1       4.099   2.571  17.682  0.00  0.00    +0.000 C 
ATOM     14  C   UNL     1       2.818   2.101  18.304  0.00  0.00    +0.000 C 
ATOM     15  N   UNL     1       1.889   3.174  18.667  0.00  0.00    +0.000 NA
ATOM     16  C   UNL     1       1.847   4.204  17.622  0.00  0.00    +0.000 C 
ATOM     17  C   UNL     1       3.217   4.872  17.417  0.00  0.00    +0.000 C 
ATOM     18  H   UNL     1       2.222   3.601  19.531  0.00  0.00    +0.000 HD
ENDBRANCH  10  12
BRANCH   1  20
ATOM     19  C   UNL     1       7.895   6.269  18.733  0.00  0.00    +0.000 C 
ATOM     20  C   UNL     1       6.871   5.138  18.611  0.00  0.00    +0.000 C 
ATOM     21  C   UNL     1       5.604   5.456  19.404  0.00  0.00    +0.000 C 
ENDBRANCH   1  20
TORSDOF 2
ENDMDL
MODEL 5
REMARK VINA RESULT:      -6.8      3.618      5.574
REMARK  Name = 
REMARK  4 active torsions:
REMARK  status: ('A' for Active; 'I' for Inactive)
REMARK    1  A    between atoms: C_1  and  C_2
REMARK    2  A    between atoms: C_2  and  C_3
REMARK    3  A    between atoms: C_2  and  C_4
REMARK    4  A    between atoms: C_13  and  C_14
REMARK                            x       y       z     vdW  Elec       q    Type
REMARK                         _______ _______ _______ _____ _____    ______ ____
ROOT
ATOM      1  C   UNL     1       2.754   4.791  18.927  0.00  0.00    +0.000 A 
ATOM      2  N   UNL     1       3.865   3.994  18.780  0.00  0.00    +0.000 N 
ATOM      3  C   UNL     1       4.957   4.741  18.404  0.00  0.00    +0.000 A 
ATOM      4  C   UNL     1       6.267   4.331  18.126  0.00  0.00    +0.000 A 
ATOM      5  C   UNL     1       7.180   5.313  17.737  0.00  0.00    +0.000 A 
ATOM      6  C   UNL     1       6.791   6.647  17.641  0.00  0.00    +0.000 A 
ATOM      7 CL   UNL     1       7.940   7.827  17.135  0.00  0.00    +0.000 Cl
ATOM      8  C   UNL     1       5.483   7.047  17.942  0.00  0.00    +0.000 A 
ATOM      9  C   UNL     1       4.542   6.072  18.332  0.00  0.00    +0.000 A 
ATOM     10  C   UNL     1       3.166   6.094  18.707  0.00  0.00    +0.000 A 
ATOM     11  H   UNL     1       3.881   2.993  18.910  0.00  0.00    +0.000 HD
ENDROOT
BRANCH  10  12
ATOM     12  C   UNL     1       2.318   7.232  18.866  0.00  0.00    +0.000 C 
ATOM     13  C   UNL     1       2.078   8.110  17.877  0.00  0.00    +0.000 C 
ATOM     14  C   UNL     1       1.301   9.379  18.073  0.00  0.00    +0.000 C 
ATOM     15  N   UNL     1       0.607   9.473  19.360  0.00  0.00    +0.000 NA
ATOM     16  C   UNL     1       1.456   8.971  20.448  0.00  0.00    +0.000 C 
ATOM     17  C   UNL     1       1.813   7.487  20.261  0.00  0.00    +0.000 C 
ATOM     18  H   UNL     1      -0.232   8.897  19.309  0.00  0.00    +0.000 HD
ENDBRANCH  10  12
BRANCH   1  20
ATOM     19  C   UNL     1       1.118   2.967  18.431  0.00  0.00    +0.000 C 
ATOM     20  C   UNL     1       1.404   4.216  19.268  0.00  0.00    +0.000 C 
ATOM     21  C   UNL     1       1.283   3.916  20.761  0.00  0.00    +0.000 C 
ENDBRANCH   1  20
TORSDOF 2
ENDMDL
MODEL 6
REMARK VINA RESULT:      -6.6      3.652      5.861
REMARK  Name = 
REMARK  4 active torsions:
REMARK  status: ('A' for Active; 'I' for Inactive)
REMARK    1  A    between atoms: C_1  and  C_2
REMARK    2  A    between atoms: C_2  and  C_3
REMARK    3  A    between atoms: C_2  and  C_4
REMARK    4  A    between atoms: C_13  and  C_14
REMARK                            x       y       z     vdW  Elec       q    Type
REMARK                         _______ _______ _______ _____ _____    ______ ____
ROOT
ATOM      1  C   UNL     1       4.605   5.949  18.014  0.00  0.00    +0.000 A 
ATOM      2  N   UNL     1       5.065   4.666  18.194  0.00  0.00    +0.000 N 
ATOM      3  C   UNL     1       4.281   3.986  19.096  0.00  0.00    +0.000 A 
ATOM      4  C   UNL     1       4.406   2.678  19.580  0.00  0.00    +0.000 A 
ATOM      5  C   UNL     1       3.469   2.247  20.522  0.00  0.00    +0.000 A 
ATOM      6  C   UNL     1       2.451   3.096  20.950  0.00  0.00    +0.000 A 
ATOM      7 CL   UNL     1       1.329   2.537  22.131  0.00  0.00    +0.000 Cl
ATOM      8  C   UNL     1       2.325   4.394  20.442  0.00  0.00    +0.000 A 
ATOM      9  C   UNL     1       3.262   4.852  19.493  0.00  0.00    +0.000 A 
ATOM     10  C   UNL     1       3.452   6.069  18.772  0.00  0.00    +0.000 A 
ATOM     11  H   UNL     1       5.879   4.274  17.741  0.00  0.00    +0.000 HD
ENDROOT
BRANCH  10  12
ATOM     12  C   UNL     1       2.620   7.229  18.774  0.00  0.00    +0.000 C 
ATOM     13  C   UNL     1       2.569   8.095  17.747  0.00  0.00    +0.000 C 
ATOM     14  C   UNL     1       1.804   9.385  17.794  0.00  0.00    +0.000 C 
ATOM     15  N   UNL     1       0.911   9.518  18.948  0.00  0.00    +0.000 NA
ATOM     16  C   UNL     1       1.556   9.016  20.168  0.00  0.00    +0.000 C 
ATOM     17  C   UNL     1       1.900   7.521  20.063  0.00  0.00    +0.000 C 
ATOM     18  H   UNL     1       0.077   8.961  18.768  0.00  0.00    +0.000 HD
ENDBRANCH  10  12
BRANCH   1  20
ATOM     19  C   UNL     1       6.796   7.047  17.524  0.00  0.00    +0.000 C 
ATOM     20  C   UNL     1       5.322   6.934  17.129  0.00  0.00    +0.000 C 
ATOM     21  C   UNL     1       5.175   6.570  15.652  0.00  0.00    +0.000 C 
ENDBRANCH   1  20
TORSDOF 2
ENDMDL
MODEL 7
REMARK VINA RESULT:      -6.6      2.894      6.265
REMARK  Name = 
REMARK  4 active torsions:
REMARK  status: ('A' for Active; 'I' for Inactive)
REMARK    1  A    between atoms: C_1  and  C_2
REMARK    2  A    between atoms: C_2  and  C_3
REMARK    3  A    between atoms: C_2  and  C_4
REMARK    4  A    between atoms: C_13  and  C_14
REMARK                            x       y       z     vdW  Elec       q    Type
REMARK                         _______ _______ _______ _____ _____    ______ ____
ROOT
ATOM      1  C   UNL     1       3.757   4.060  19.081  0.00  0.00    +0.000 A 
ATOM      2  N   UNL     1       2.725   4.548  19.849  0.00  0.00    +0.000 N 
ATOM      3  C   UNL     1       2.450   5.855  19.525  0.00  0.00    +0.000 A 
ATOM      4  C   UNL     1       1.502   6.730  20.071  0.00  0.00    +0.000 A 
ATOM      5  C   UNL     1       1.455   8.029  19.559  0.00  0.00    +0.000 A 
ATOM      6  C   UNL     1       2.318   8.423  18.539  0.00  0.00    +0.000 A 
ATOM      7 CL   UNL     1       2.246  10.040  17.951  0.00  0.00    +0.000 Cl
ATOM      8  C   UNL     1       3.246   7.532  17.988  0.00  0.00    +0.000 A 
ATOM      9  C   UNL     1       3.316   6.217  18.491  0.00  0.00    +0.000 A 
ATOM     10  C   UNL     1       4.102   5.064  18.193  0.00  0.00    +0.000 A 
ATOM     11  H   UNL     1       2.243   4.028  20.568  0.00  0.00    +0.000 HD
ENDROOT
BRANCH  10  12
ATOM     12  C   UNL     1       5.073   4.908  17.157  0.00  0.00    +0.000 C 
ATOM     13  C   UNL     1       4.787   4.368  15.961  0.00  0.00    +0.000 C 
ATOM     14  C   UNL     1       5.826   4.076  14.919  0.00  0.00    +0.000 C 
ATOM     15  N   UNL     1       7.144   4.652  15.198  0.00  0.00    +0.000 NA
ATOM     16  C   UNL     1       7.486   4.508  16.619  0.00  0.00    +0.000 C 
ATOM     17  C   UNL     1       6.492   5.250  17.528  0.00  0.00    +0.000 C 
ATOM     18  H   UNL     1       7.109   5.645  14.971  0.00  0.00    +0.000 HD
ENDBRANCH  10  12
BRANCH   1  20
ATOM     19  C   UNL     1       4.217   2.257  20.750  0.00  0.00    +0.000 C 
ATOM     20  C   UNL     1       4.308   2.672  19.280  0.00  0.00    +0.000 C 
ATOM     21  C   UNL     1       3.607   1.657  18.379  0.00  0.00    +0.000 C 
ENDBRANCH   1  20
TORSDOF 2
ENDMDL
MODEL 8
REMARK VINA RESULT:      -6.5      3.476      5.525
REMARK  Name = 
REMARK  4 active torsions:
REMARK  status: ('A' for Active; 'I' for Inactive)
REMARK    1  A    between atoms: C_1  and  C_2
REMARK    2  A    between atoms: C_2  and  C_3
REMARK    3  A    between atoms: C_2  and  C_4
REMARK    4  A    between atoms: C_13  and  C_14
REMARK                            x       y       z     vdW  Elec       q    Type
REMARK                         _______ _______ _______ _____ _____    ______ ____
ROOT
ATOM      1  C   UNL     1       2.801   4.948  18.700  0.00  0.00    +0.000 A 
ATOM      2  N   UNL     1       3.863   4.118  18.427  0.00  0.00    +0.000 N 
ATOM      3  C   UNL     1       4.987   4.846  18.114  0.00  0.00    +0.000 A 
ATOM      4  C   UNL     1       6.265   4.404  17.753  0.00  0.00    +0.000 A 
ATOM      5  C   UNL     1       7.224   5.377  17.461  0.00  0.00    +0.000 A 
ATOM      6  C   UNL     1       6.908   6.731  17.537  0.00  0.00    +0.000 A 
ATOM      7 CL   UNL     1       8.111   7.901  17.147  0.00  0.00    +0.000 Cl
ATOM      8  C   UNL     1       5.632   7.160  17.921  0.00  0.00    +0.000 A 
ATOM      9  C   UNL     1       4.646   6.196  18.215  0.00  0.00    +0.000 A 
ATOM     10  C   UNL     1       3.281   6.245  18.628  0.00  0.00    +0.000 A 
ATOM     11  H   UNL     1       3.825   3.108  18.435  0.00  0.00    +0.000 HD
ENDROOT
BRANCH  10  12
ATOM     12  C   UNL     1       2.502   7.398  18.946  0.00  0.00    +0.000 C 
ATOM     13  C   UNL     1       1.971   7.610  20.163  0.00  0.00    +0.000 C 
ATOM     14  C   UNL     1       1.041   8.746  20.469  0.00  0.00    +0.000 C 
ATOM     15  N   UNL     1       0.947   9.756  19.411  0.00  0.00    +0.000 NA
ATOM     16  C   UNL     1       0.901   9.122  18.088  0.00  0.00    +0.000 C 
ATOM     17  C   UNL     1       2.173   8.310  17.794  0.00  0.00    +0.000 C 
ATOM     18  H   UNL     1       1.777  10.344  19.462  0.00  0.00    +0.000 HD
ENDBRANCH  10  12
BRANCH   1  20
ATOM     19  C   UNL     1       1.189   3.087  18.271  0.00  0.00    +0.000 C 
ATOM     20  C   UNL     1       1.429   4.408  19.006  0.00  0.00    +0.000 C 
ATOM     21  C   UNL     1       1.212   4.249  20.509  0.00  0.00    +0.000 C 
ENDBRANCH   1  20
TORSDOF 2
ENDMDL
MODEL 9
REMARK VINA RESULT:      -6.5      2.917      4.610
REMARK  Name = 
REMARK  4 active torsions:
REMARK  status: ('A' for Active; 'I' for Inactive)
REMARK    1  A    between atoms: C_1  and  C_2
REMARK    2  A    between atoms: C_2  and  C_3
REMARK    3  A    between atoms: C_2  and  C_4
REMARK    4  A    between atoms: C_13  and  C_14
REMARK                            x       y       z     vdW  Elec       q    Type
REMARK                         _______ _______ _______ _____ _____    ______ ____
ROOT
ATOM      1  C   UNL     1       2.367   7.211  18.826  0.00  0.00    +0.000 A 
ATOM      2  N   UNL     1       3.068   7.852  17.831  0.00  0.00    +0.000 N 
ATOM      3  C   UNL     1       3.898   6.976  17.174  0.00  0.00    +0.000 A 
ATOM      4  C   UNL     1       4.795   7.212  16.124  0.00  0.00    +0.000 A 
ATOM      5  C   UNL     1       5.540   6.126  15.657  0.00  0.00    +0.000 A 
ATOM      6  C   UNL     1       5.382   4.862  16.220  0.00  0.00    +0.000 A 
ATOM      7 CL   UNL     1       6.337   3.553  15.633  0.00  0.00    +0.000 Cl
ATOM      8  C   UNL     1       4.467   4.636  17.255  0.00  0.00    +0.000 A 
ATOM      9  C   UNL     1       3.707   5.717  17.745  0.00  0.00    +0.000 A 
ATOM     10  C   UNL     1       2.709   5.872  18.754  0.00  0.00    +0.000 A 
ATOM     11  H   UNL     1       3.001   8.838  17.619  0.00  0.00    +0.000 HD
ENDROOT
BRANCH  10  12
ATOM     12  C   UNL     1       2.113   4.856  19.561  0.00  0.00    +0.000 C 
ATOM     13  C   UNL     1       2.490   4.612  20.828  0.00  0.00    +0.000 C 
ATOM     14  C   UNL     1       1.967   3.461  21.636  0.00  0.00    +0.000 C 
ATOM     15  N   UNL     1       0.826   2.766  21.034  0.00  0.00    +0.000 NA
ATOM     16  C   UNL     1       1.018   2.603  19.587  0.00  0.00    +0.000 C 
ATOM     17  C   UNL     1       1.125   3.957  18.865  0.00  0.00    +0.000 C 
ATOM     18  H   UNL     1      -0.007   3.332  21.190  0.00  0.00    +0.000 HD
ENDBRANCH  10  12
BRANCH   1  20
ATOM     19  C   UNL     1       1.980   7.966  21.177  0.00  0.00    +0.000 C 
ATOM     20  C   UNL     1       1.435   7.954  19.747  0.00  0.00    +0.000 C 
ATOM     21  C   UNL     1       1.169   9.373  19.249  0.00  0.00    +0.000 C 
ENDBRANCH   1  20
TORSDOF 2
ENDMDL
