MODEL 1
REMARK VINA RESULT:      -5.6      0.000      0.000
REMARK  Name = 
REMARK  12 active torsions:
REMARK  status: ('A' for Active; 'I' for Inactive)
REMARK    1  A    between atoms: C_1  and  C_2
REMARK    2  A    between atoms: C_2  and  O_3
REMARK    3  A    between atoms: O_3  and  C_4
REMARK    4  A    between atoms: C_4  and  C_6
REMARK    5  A    between atoms: C_6  and  C_7
REMARK    6  A    between atoms: C_7  and  C_8
REMARK    7  A    between atoms: C_7  and  O_9
REMARK    8  A    between atoms: C_7  and  P_10
REMARK    9  A    between atoms: P_10  and  O_12
REMARK   10  A    between atoms: P_10  and  O_14
REMARK   11  A    between atoms: O_12  and  C_13
REMARK   12  A    between atoms: O_14  and  C_15
REMARK                            x       y       z     vdW  Elec       q    Type
REMARK                         _______ _______ _______ _____ _____    ______ ____
ROOT
ATOM      1  C   UNL     1       5.014   4.325  18.358  0.00  0.00    +0.000 C 
ATOM      2  C   UNL     1       4.152   5.091  19.378  0.00  0.00    +0.000 C 
ENDROOT
BRANCH   1   3
ATOM      3  O   UNL     1       5.690   3.260  19.078  0.00  0.00    +0.000 OA
ATOM      4  H   UNL     1       6.534   3.592  19.437  0.00  0.00    +0.000 HD
ENDBRANCH   1   3
BRANCH   1   5
ATOM      5  P   UNL     1       6.279   5.389  17.574  0.00  0.00    +0.000 P 
ATOM      6  O   UNL     1       7.402   4.579  18.241  0.00  0.00    +0.000 OA
BRANCH   5   7
ATOM      7  O   UNL     1       5.915   4.784  16.079  0.00  0.00    +0.000 OA
ATOM      8  C   UNL     1       6.948   4.691  15.110  0.00  0.00    +0.000 C 
ENDBRANCH   5   7
BRANCH   5   9
ATOM      9  O   UNL     1       7.476   6.396  16.833  0.00  0.00    +0.000 OA
ATOM     10  C   UNL     1       7.656   7.634  17.494  0.00  0.00    +0.000 C 
ENDBRANCH   5   9
ENDBRANCH   1   5
BRANCH   1  11
ATOM     11  C   UNL     1       4.109   3.720  17.283  0.00  0.00    +0.000 C 
BRANCH  11  12
ATOM     12  C   UNL     1       3.277   2.582  17.816  0.00  0.00    +0.000 C 
ATOM     13  O   UNL     1       3.742   1.613  18.406  0.00  0.00    +0.000 OA
BRANCH  12  14
ATOM     14  O   UNL     1       1.968   2.768  17.509  0.00  0.00    +0.000 OA
BRANCH  14  16
ATOM     15  C   UNL     1       0.858   3.036  19.587  0.00  0.00    +0.000 C 
ATOM     16  C   UNL     1       1.286   3.741  18.315  0.00  0.00    +0.000 C 
ENDBRANCH  14  16
ENDBRANCH  12  14
ENDBRANCH  11  12
ENDBRANCH   1  11
TORSDOF 8
ENDMDL
MODEL 2
REMARK VINA RESULT:      -5.6      0.851      1.248
REMARK  Name = 
REMARK  12 active torsions:
REMARK  status: ('A' for Active; 'I' for Inactive)
REMARK    1  A    between atoms: C_1  and  C_2
REMARK    2  A    between atoms: C_2  and  O_3
REMARK    3  A    between atoms: O_3  and  C_4
REMARK    4  A    between atoms: C_4  and  C_6
REMARK    5  A    between atoms: C_6  and  C_7
REMARK    6  A    between atoms: C_7  and  C_8
REMARK    7  A    between atoms: C_7  and  O_9
REMARK    8  A    between atoms: C_7  and  P_10
REMARK    9  A    between atoms: P_10  and  O_12
REMARK   10  A    between atoms: P_10  and  O_14
REMARK   11  A    between atoms: O_12  and  C_13
REMARK   12  A    between atoms: O_14  and  C_15
REMARK                            x       y       z     vdW  Elec       q    Type
REMARK                         _______ _______ _______ _____ _____    ______ ____
ROOT
ATOM      1  C   UNL     1       4.747   4.380  18.389  0.00  0.00    +0.000 C 
ATOM      2  C   UNL     1       3.927   5.221  19.384  0.00  0.00    +0.000 C 
ENDROOT
BRANCH   1   3
ATOM      3  O   UNL     1       5.205   3.197  19.098  0.00  0.00    +0.000 OA
ATOM      4  H   UNL     1       4.439   2.726  19.478  0.00  0.00    +0.000 HD
ENDBRANCH   1   3
BRANCH   1   5
ATOM      5  P   UNL     1       6.209   5.277  17.753  0.00  0.00    +0.000 P 
ATOM      6  O   UNL     1       7.019   4.879  18.997  0.00  0.00    +0.000 OA
BRANCH   5   7
ATOM      7  O   UNL     1       6.404   4.174  16.538  0.00  0.00    +0.000 OA
ATOM      8  C   UNL     1       6.955   4.608  15.304  0.00  0.00    +0.000 C 
ENDBRANCH   5   7
BRANCH   5   9
ATOM      9  O   UNL     1       7.592   6.126  17.152  0.00  0.00    +0.000 OA
ATOM     10  C   UNL     1       7.653   7.474  17.580  0.00  0.00    +0.000 C 
ENDBRANCH   5   9
ENDBRANCH   1   5
BRANCH   1  11
ATOM     11  C   UNL     1       3.850   3.959  17.222  0.00  0.00    +0.000 C 
BRANCH  11  12
ATOM     12  C   UNL     1       2.508   3.459  17.689  0.00  0.00    +0.000 C 
ATOM     13  O   UNL     1       1.443   3.996  17.407  0.00  0.00    +0.000 OA
BRANCH  12  14
ATOM     14  O   UNL     1       2.660   2.373  18.490  0.00  0.00    +0.000 OA
BRANCH  14  16
ATOM     15  C   UNL     1       1.722   2.591  20.657  0.00  0.00    +0.000 C 
ATOM     16  C   UNL     1       1.505   2.024  19.267  0.00  0.00    +0.000 C 
ENDBRANCH  14  16
ENDBRANCH  12  14
ENDBRANCH  11  12
ENDBRANCH   1  11
TORSDOF 8
ENDMDL
MODEL 3
REMARK VINA RESULT:      -5.5      2.148      5.113
REMARK  Name = 
REMARK  12 active torsions:
REMARK  status: ('A' for Active; 'I' for Inactive)
REMARK    1  A    between atoms: C_1  and  C_2
REMARK    2  A    between atoms: C_2  and  O_3
REMARK    3  A    between atoms: O_3  and  C_4
REMARK    4  A    between atoms: C_4  and  C_6
REMARK    5  A    between atoms: C_6  and  C_7
REMARK    6  A    between atoms: C_7  and  C_8
REMARK    7  A    between atoms: C_7  and  O_9
REMARK    8  A    between atoms: C_7  and  P_10
REMARK    9  A    between atoms: P_10  and  O_12
REMARK   10  A    between atoms: P_10  and  O_14
REMARK   11  A    between atoms: O_12  and  C_13
REMARK   12  A    between atoms: O_14  and  C_15
REMARK                            x       y       z     vdW  Elec       q    Type
REMARK                         _______ _______ _______ _____ _____    ______ ____
ROOT
ATOM      1  C   UNL     1       6.212   5.894  16.692  0.00  0.00    +0.000 C 
ATOM      2  C   UNL     1       7.279   6.814  17.311  0.00  0.00    +0.000 C 
ENDROOT
BRANCH   1   3
ATOM      3  O   UNL     1       5.547   6.649  15.644  0.00  0.00    +0.000 OA
ATOM      4  H   UNL     1       5.440   7.577  15.927  0.00  0.00    +0.000 HD
ENDBRANCH   1   3
BRANCH   1   5
ATOM      5  P   UNL     1       4.955   5.363  17.911  0.00  0.00    +0.000 P 
ATOM      6  O   UNL     1       3.953   6.387  17.354  0.00  0.00    +0.000 OA
BRANCH   5   7
ATOM      7  O   UNL     1       4.790   3.900  17.158  0.00  0.00    +0.000 OA
ATOM      8  C   UNL     1       3.845   2.972  17.668  0.00  0.00    +0.000 C 
ENDBRANCH   5   7
BRANCH   5   9
ATOM      9  O   UNL     1       3.767   4.861  19.064  0.00  0.00    +0.000 OA
ATOM     10  C   UNL     1       2.999   5.930  19.582  0.00  0.00    +0.000 C 
ENDBRANCH   5   9
ENDBRANCH   1   5
BRANCH   1  11
ATOM     11  C   UNL     1       6.893   4.667  16.082  0.00  0.00    +0.000 C 
BRANCH  11  12
ATOM     12  C   UNL     1       7.010   4.769  14.583  0.00  0.00    +0.000 C 
ATOM     13  O   UNL     1       7.821   5.487  14.009  0.00  0.00    +0.000 OA
BRANCH  12  14
ATOM     14  O   UNL     1       6.072   3.995  13.981  0.00  0.00    +0.000 OA
BRANCH  14  16
ATOM     15  C   UNL     1       5.054   3.265  11.968  0.00  0.00    +0.000 C 
ATOM     16  C   UNL     1       6.372   3.613  12.630  0.00  0.00    +0.000 C 
ENDBRANCH  14  16
ENDBRANCH  12  14
ENDBRANCH  11  12
ENDBRANCH   1  11
TORSDOF 8
ENDMDL
MODEL 4
REMARK VINA RESULT:      -5.5      0.976      1.950
REMARK  Name = 
REMARK  12 active torsions:
REMARK  status: ('A' for Active; 'I' for Inactive)
REMARK    1  A    between atoms: C_1  and  C_2
REMARK    2  A    between atoms: C_2  and  O_3
REMARK    3  A    between atoms: O_3  and  C_4
REMARK    4  A    between atoms: C_4  and  C_6
REMARK    5  A    between atoms: C_6  and  C_7
REMARK    6  A    between atoms: C_7  and  C_8
REMARK    7  A    between atoms: C_7  and  O_9
REMARK    8  A    between atoms: C_7  and  P_10
REMARK    9  A    between atoms: P_10  and  O_12
REMARK   10  A    between atoms: P_10  and  O_14
REMARK   11  A    between atoms: O_12  and  C_13
REMARK   12  A    between atoms: O_14  and  C_15
REMARK                            x       y       z     vdW  Elec       q    Type
REMARK                         _______ _______ _______ _____ _____    ______ ____
ROOT
ATOM      1  C   UNL     1       4.896   4.254  17.999  0.00  0.00    +0.000 C 
ATOM      2  C   UNL     1       4.244   5.371  18.834  0.00  0.00    +0.000 C 
ENDROOT
BRANCH   1   3
ATOM      3  O   UNL     1       5.594   3.376  18.922  0.00  0.00    +0.000 OA
ATOM      4  H   UNL     1       4.991   2.671  19.224  0.00  0.00    +0.000 HD
ENDBRANCH   1   3
BRANCH   1   5
ATOM      5  P   UNL     1       6.105   4.902  16.788  0.00  0.00    +0.000 P 
ATOM      6  O   UNL     1       5.028   5.805  16.165  0.00  0.00    +0.000 OA
BRANCH   5   7
ATOM      7  O   UNL     1       6.930   5.696  17.981  0.00  0.00    +0.000 OA
ATOM      8  C   UNL     1       7.477   6.975  17.698  0.00  0.00    +0.000 C 
ENDBRANCH   5   7
BRANCH   5   9
ATOM      9  O   UNL     1       7.249   5.514  15.643  0.00  0.00    +0.000 OA
ATOM     10  C   UNL     1       7.107   4.952  14.352  0.00  0.00    +0.000 C 
ENDBRANCH   5   9
ENDBRANCH   1   5
BRANCH   1  11
ATOM     11  C   UNL     1       3.806   3.465  17.270  0.00  0.00    +0.000 C 
BRANCH  11  12
ATOM     12  C   UNL     1       3.165   2.429  18.158  0.00  0.00    +0.000 C 
ATOM     13  O   UNL     1       3.691   1.362  18.453  0.00  0.00    +0.000 OA
BRANCH  12  14
ATOM     14  O   UNL     1       1.925   2.831  18.535  0.00  0.00    +0.000 OA
BRANCH  14  16
ATOM     15  C   UNL     1       0.990   3.951  20.404  0.00  0.00    +0.000 C 
ATOM     16  C   UNL     1       1.626   2.660  19.928  0.00  0.00    +0.000 C 
ENDBRANCH  14  16
ENDBRANCH  12  14
ENDBRANCH  11  12
ENDBRANCH   1  11
TORSDOF 8
ENDMDL
MODEL 5
REMARK VINA RESULT:      -5.4      1.287      1.461
REMARK  Name = 
REMARK  12 active torsions:
REMARK  status: ('A' for Active; 'I' for Inactive)
REMARK    1  A    between atoms: C_1  and  C_2
REMARK    2  A    between atoms: C_2  and  O_3
REMARK    3  A    between atoms: O_3  and  C_4
REMARK    4  A    between atoms: C_4  and  C_6
REMARK    5  A    between atoms: C_6  and  C_7
REMARK    6  A    between atoms: C_7  and  C_8
REMARK    7  A    between atoms: C_7  and  O_9
REMARK    8  A    between atoms: C_7  and  P_10
REMARK    9  A    between atoms: P_10  and  O_12
REMARK   10  A    between atoms: P_10  and  O_14
REMARK   11  A    between atoms: O_12  and  C_13
REMARK   12  A    between atoms: O_14  and  C_15
REMARK                            x       y       z     vdW  Elec       q    Type
REMARK                         _______ _______ _______ _____ _____    ______ ____
ROOT
ATOM      1  C   UNL     1       3.989   5.021  18.150  0.00  0.00    +0.000 C 
ATOM      2  C   UNL     1       3.343   6.391  17.874  0.00  0.00    +0.000 C 
ENDROOT
BRANCH   1   3
ATOM      3  O   UNL     1       3.558   4.600  19.472  0.00  0.00    +0.000 OA
ATOM      4  H   UNL     1       3.168   3.707  19.420  0.00  0.00    +0.000 HD
ENDBRANCH   1   3
BRANCH   1   5
ATOM      5  P   UNL     1       5.817   5.094  18.131  0.00  0.00    +0.000 P 
ATOM      6  O   UNL     1       5.889   4.093  19.295  0.00  0.00    +0.000 OA
BRANCH   5   7
ATOM      7  O   UNL     1       5.870   4.316  16.673  0.00  0.00    +0.000 OA
ATOM      8  C   UNL     1       6.967   4.563  15.807  0.00  0.00    +0.000 C 
ENDBRANCH   5   7
BRANCH   5   9
ATOM      9  O   UNL     1       7.546   5.163  18.113  0.00  0.00    +0.000 OA
ATOM     10  C   UNL     1       8.093   5.833  19.234  0.00  0.00    +0.000 C 
ENDBRANCH   5   9
ENDBRANCH   1   5
BRANCH   1  11
ATOM     11  C   UNL     1       3.501   4.012  17.109  0.00  0.00    +0.000 C 
BRANCH  11  12
ATOM     12  C   UNL     1       2.795   2.840  17.741  0.00  0.00    +0.000 C 
ATOM     13  O   UNL     1       3.357   1.803  18.074  0.00  0.00    +0.000 OA
BRANCH  12  14
ATOM     14  O   UNL     1       1.464   3.086  17.841  0.00  0.00    +0.000 OA
BRANCH  14  16
ATOM     15  C   UNL     1       0.738   3.168  20.097  0.00  0.00    +0.000 C 
ATOM     16  C   UNL     1       0.776   2.320  18.841  0.00  0.00    +0.000 C 
ENDBRANCH  14  16
ENDBRANCH  12  14
ENDBRANCH  11  12
ENDBRANCH   1  11
TORSDOF 8
ENDMDL
MODEL 6
REMARK VINA RESULT:      -5.4      1.161      2.219
REMARK  Name = 
REMARK  12 active torsions:
REMARK  status: ('A' for Active; 'I' for Inactive)
REMARK    1  A    between atoms: C_1  and  C_2
REMARK    2  A    between atoms: C_2  and  O_3
REMARK    3  A    between atoms: O_3  and  C_4
REMARK    4  A    between atoms: C_4  and  C_6
REMARK    5  A    between atoms: C_6  and  C_7
REMARK    6  A    between atoms: C_7  and  C_8
REMARK    7  A    between atoms: C_7  and  O_9
REMARK    8  A    between atoms: C_7  and  P_10
REMARK    9  A    between atoms: P_10  and  O_12
REMARK   10  A    between atoms: P_10  and  O_14
REMARK   11  A    between atoms: O_12  and  C_13
REMARK   12  A    between atoms: O_14  and  C_15
REMARK                            x       y       z     vdW  Elec       q    Type
REMARK                         _______ _______ _______ _____ _____    ______ ____
ROOT
ATOM      1  C   UNL     1       4.743   4.199  17.941  0.00  0.00    +0.000 C 
ATOM      2  C   UNL     1       4.150   5.449  18.615  0.00  0.00    +0.000 C 
ENDROOT
BRANCH   1   3
ATOM      3  O   UNL     1       5.248   3.338  18.997  0.00  0.00    +0.000 OA
ATOM      4  H   UNL     1       5.825   2.652  18.612  0.00  0.00    +0.000 HD
ENDBRANCH   1   3
BRANCH   1   5
ATOM      5  P   UNL     1       6.125   4.602  16.812  0.00  0.00    +0.000 P 
ATOM      6  O   UNL     1       5.209   4.412  15.592  0.00  0.00    +0.000 OA
BRANCH   5   7
ATOM      7  O   UNL     1       6.125   6.177  17.316  0.00  0.00    +0.000 OA
ATOM      8  C   UNL     1       7.368   6.808  17.584  0.00  0.00    +0.000 C 
ENDBRANCH   5   7
BRANCH   5   9
ATOM      9  O   UNL     1       7.432   4.984  15.744  0.00  0.00    +0.000 OA
ATOM     10  C   UNL     1       7.098   4.846  14.375  0.00  0.00    +0.000 C 
ENDBRANCH   5   9
ENDBRANCH   1   5
BRANCH   1  11
ATOM     11  C   UNL     1       3.641   3.467  17.171  0.00  0.00    +0.000 C 
BRANCH  11  12
ATOM     12  C   UNL     1       2.363   3.370  17.963  0.00  0.00    +0.000 C 
ATOM     13  O   UNL     1       1.310   3.901  17.627  0.00  0.00    +0.000 OA
BRANCH  12  14
ATOM     14  O   UNL     1       2.565   2.661  19.102  0.00  0.00    +0.000 OA
BRANCH  14  16
ATOM     15  C   UNL     1       1.798   3.289  21.256  0.00  0.00    +0.000 C 
ATOM     16  C   UNL     1       1.427   2.571  19.973  0.00  0.00    +0.000 C 
ENDBRANCH  14  16
ENDBRANCH  12  14
ENDBRANCH  11  12
ENDBRANCH   1  11
TORSDOF 8
ENDMDL
MODEL 7
REMARK VINA RESULT:      -5.4      1.310      1.845
REMARK  Name = 
REMARK  12 active torsions:
REMARK  status: ('A' for Active; 'I' for Inactive)
REMARK    1  A    between atoms: C_1  and  C_2
REMARK    2  A    between atoms: C_2  and  O_3
REMARK    3  A    between atoms: O_3  and  C_4
REMARK    4  A    between atoms: C_4  and  C_6
REMARK    5  A    between atoms: C_6  and  C_7
REMARK    6  A    between atoms: C_7  and  C_8
REMARK    7  A    between atoms: C_7  and  O_9
REMARK    8  A    between atoms: C_7  and  P_10
REMARK    9  A    between atoms: P_10  and  O_12
REMARK   10  A    between atoms: P_10  and  O_14
REMARK   11  A    between atoms: O_12  and  C_13
REMARK   12  A    between atoms: O_14  and  C_15
REMARK                            x       y       z     vdW  Elec       q    Type
REMARK                         _______ _______ _______ _____ _____    ______ ____
ROOT
ATOM      1  C   UNL     1       4.905   4.208  18.494  0.00  0.00    +0.000 C 
ATOM      2  C   UNL     1       4.472   5.377  19.397  0.00  0.00    +0.000 C 
ENDROOT
BRANCH   1   3
ATOM      3  O   UNL     1       5.518   3.206  19.350  0.00  0.00    +0.000 OA
ATOM      4  H   UNL     1       4.933   3.020  20.108  0.00  0.00    +0.000 HD
ENDBRANCH   1   3
BRANCH   1   5
ATOM      5  P   UNL     1       6.127   4.716  17.230  0.00  0.00    +0.000 P 
ATOM      6  O   UNL     1       5.340   3.969  16.141  0.00  0.00    +0.000 OA
BRANCH   5   7
ATOM      7  O   UNL     1       5.640   6.292  17.341  0.00  0.00    +0.000 OA
ATOM      8  C   UNL     1       4.926   6.864  16.256  0.00  0.00    +0.000 C 
ENDBRANCH   5   7
BRANCH   5   9
ATOM      9  O   UNL     1       7.282   5.196  16.035  0.00  0.00    +0.000 OA
ATOM     10  C   UNL     1       7.060   4.606  14.769  0.00  0.00    +0.000 C 
ENDBRANCH   5   9
ENDBRANCH   1   5
BRANCH   1  11
ATOM     11  C   UNL     1       3.673   3.610  17.812  0.00  0.00    +0.000 C 
BRANCH  11  12
ATOM     12  C   UNL     1       3.288   2.278  18.401  0.00  0.00    +0.000 C 
ATOM     13  O   UNL     1       3.668   1.200  17.959  0.00  0.00    +0.000 OA
BRANCH  12  14
ATOM     14  O   UNL     1       2.437   2.449  19.445  0.00  0.00    +0.000 OA
BRANCH  14  16
ATOM     15  C   UNL     1       0.950   4.039  20.386  0.00  0.00    +0.000 C 
ATOM     16  C   UNL     1       1.259   3.215  19.151  0.00  0.00    +0.000 C 
ENDBRANCH  14  16
ENDBRANCH  12  14
ENDBRANCH  11  12
ENDBRANCH   1  11
TORSDOF 8
ENDMDL
MODEL 8
REMARK VINA RESULT:      -5.3      1.505      2.146
REMARK  Name = 
REMARK  12 active torsions:
REMARK  status: ('A' for Active; 'I' for Inactive)
REMARK    1  A    between atoms: C_1  and  C_2
REMARK    2  A    between atoms: C_2  and  O_3
REMARK    3  A    between atoms: O_3  and  C_4
REMARK    4  A    between atoms: C_4  and  C_6
REMARK    5  A    between atoms: C_6  and  C_7
REMARK    6  A    between atoms: C_7  and  C_8
REMARK    7  A    between atoms: C_7  and  O_9
REMARK    8  A    between atoms: C_7  and  P_10
REMARK    9  A    between atoms: P_10  and  O_12
REMARK   10  A    between atoms: P_10  and  O_14
REMARK   11  A    between atoms: O_12  and  C_13
REMARK   12  A    between atoms: O_14  and  C_15
REMARK                            x       y       z     vdW  Elec       q    Type
REMARK                         _______ _______ _______ _____ _____    ______ ____
ROOT
ATOM      1  C   UNL     1       4.220   4.556  18.137  0.00  0.00    +0.000 C 
ATOM      2  C   UNL     1       4.312   5.421  19.407  0.00  0.00    +0.000 C 
ENDROOT
BRANCH   1   3
ATOM      3  O   UNL     1       4.657   3.218  18.494  0.00  0.00    +0.000 OA
ATOM      4  H   UNL     1       3.987   2.796  19.065  0.00  0.00    +0.000 HD
ENDBRANCH   1   3
BRANCH   1   5
ATOM      5  P   UNL     1       5.291   5.176  16.789  0.00  0.00    +0.000 P 
ATOM      6  O   UNL     1       5.265   6.590  17.391  0.00  0.00    +0.000 OA
BRANCH   5   7
ATOM      7  O   UNL     1       6.577   4.309  17.363  0.00  0.00    +0.000 OA
ATOM      8  C   UNL     1       7.636   5.001  18.004  0.00  0.00    +0.000 C 
ENDBRANCH   5   7
BRANCH   5   9
ATOM      9  O   UNL     1       6.304   5.761  15.514  0.00  0.00    +0.000 OA
ATOM     10  C   UNL     1       6.555   4.798  14.509  0.00  0.00    +0.000 C 
ENDBRANCH   5   9
ENDBRANCH   1   5
BRANCH   1  11
ATOM     11  C   UNL     1       2.766   4.508  17.661  0.00  0.00    +0.000 C 
BRANCH  11  12
ATOM     12  C   UNL     1       2.078   3.230  18.067  0.00  0.00    +0.000 C 
ATOM     13  O   UNL     1       2.109   2.198  17.406  0.00  0.00    +0.000 OA
BRANCH  12  14
ATOM     14  O   UNL     1       1.397   3.407  19.227  0.00  0.00    +0.000 OA
BRANCH  14  16
ATOM     15  C   UNL     1       2.009   3.276  21.515  0.00  0.00    +0.000 C 
ATOM     16  C   UNL     1       1.709   2.468  20.267  0.00  0.00    +0.000 C 
ENDBRANCH  14  16
ENDBRANCH  12  14
ENDBRANCH  11  12
ENDBRANCH   1  11
TORSDOF 8
ENDMDL
MODEL 9
REMARK VINA RESULT:      -5.3      1.526      1.676
REMARK  Name = 
REMARK  12 active torsions:
REMARK  status: ('A' for Active; 'I' for Inactive)
REMARK    1  A    between atoms: C_1  and  C_2
REMARK    2  A    between atoms: C_2  and  O_3
REMARK    3  A    between atoms: O_3  and  C_4
REMARK    4  A    between atoms: C_4  and  C_6
REMARK    5  A    between atoms: C_6  and  C_7
REMARK    6  A    between atoms: C_7  and  C_8
REMARK    7  A    between atoms: C_7  and  O_9
REMARK    8  A    between atoms: C_7  and  P_10
REMARK    9  A    between atoms: P_10  and  O_12
REMARK   10  A    between atoms: P_10  and  O_14
REMARK   11  A    between atoms: O_12  and  C_13
REMARK   12  A    between atoms: O_14  and  C_15
REMARK                            x       y       z     vdW  Elec       q    Type
REMARK                         _______ _______ _______ _____ _____    ______ ____
ROOT
ATOM      1  C   UNL     1       4.073   5.276  18.421  0.00  0.00    +0.000 C 
ATOM      2  C   UNL     1       2.700   5.805  17.970  0.00  0.00    +0.000 C 
ENDROOT
BRANCH   1   3
ATOM      3  O   UNL     1       4.201   5.562  19.840  0.00  0.00    +0.000 OA
ATOM      4  H   UNL     1       4.265   4.725  20.338  0.00  0.00    +0.000 HD
ENDBRANCH   1   3
BRANCH   1   5
ATOM      5  P   UNL     1       5.458   6.086  17.540  0.00  0.00    +0.000 P 
ATOM      6  O   UNL     1       6.445   5.048  18.097  0.00  0.00    +0.000 OA
BRANCH   5   7
ATOM      7  O   UNL     1       4.854   5.609  16.077  0.00  0.00    +0.000 OA
ATOM      8  C   UNL     1       5.764   5.269  15.041  0.00  0.00    +0.000 C 
ENDBRANCH   5   7
BRANCH   5   9
ATOM      9  O   UNL     1       6.767   6.852  16.708  0.00  0.00    +0.000 OA
ATOM     10  C   UNL     1       7.587   7.638  17.552  0.00  0.00    +0.000 C 
ENDBRANCH   5   9
ENDBRANCH   1   5
BRANCH   1  11
ATOM     11  C   UNL     1       4.133   3.763  18.198  0.00  0.00    +0.000 C 
BRANCH  11  12
ATOM     12  C   UNL     1       4.030   2.994  19.490  0.00  0.00    +0.000 C 
ATOM     13  O   UNL     1       4.988   2.483  20.059  0.00  0.00    +0.000 OA
BRANCH  12  14
ATOM     14  O   UNL     1       2.737   2.918  19.894  0.00  0.00    +0.000 OA
BRANCH  14  16
ATOM     15  C   UNL     1       0.635   2.600  18.844  0.00  0.00    +0.000 C 
ATOM     16  C   UNL     1       1.944   1.932  19.216  0.00  0.00    +0.000 C 
ENDBRANCH  14  16
ENDBRANCH  12  14
ENDBRANCH  11  12
ENDBRANCH   1  11
TORSDOF 8
ENDMDL
