MODEL 1
REMARK VINA RESULT:      -7.6      0.000      0.000
REMARK  Name = 
REMARK  7 active torsions:
REMARK  status: ('A' for Active; 'I' for Inactive)
REMARK    1  A    between atoms: C_1  and  O_2
REMARK    2  A    between atoms: O_2  and  C_3
REMARK    3  A    between atoms: C_6  and  O_7
REMARK    4  A    between atoms: O_7  and  C_8
REMARK    5  A    between atoms: C_8  and  C_9
REMARK    6  A    between atoms: N_11  and  C_12
REMARK    7  A    between atoms: C_15  and  N_16
REMARK                            x       y       z     vdW  Elec       q    Type
REMARK                         _______ _______ _______ _____ _____    ______ ____
ROOT
ATOM      1  C   UNL     1       2.453   4.705  18.525  0.00  0.00    +0.000 C 
ATOM      2  O   UNL     1       1.454   4.644  17.811  0.00  0.00    +0.000 OA
ATOM      3  N   UNL     1       2.934   5.837  19.173  0.00  0.00    +0.000 N 
ATOM      4  H   UNL     1       3.865   5.782  19.567  0.00  0.00    +0.000 HD
ENDROOT
BRANCH   3   5
ATOM      5  C   UNL     1       2.307   7.101  19.206  0.00  0.00    +0.000 A 
ATOM      6  C   UNL     1       2.161   7.898  18.072  0.00  0.00    +0.000 A 
ATOM      7  C   UNL     1       1.536   9.147  18.146  0.00  0.00    +0.000 A 
ATOM      8  C   UNL     1       1.024   9.649  19.348  0.00  0.00    +0.000 A 
ATOM      9  C   UNL     1       1.168   8.828  20.476  0.00  0.00    +0.000 A 
ATOM     10  C   UNL     1       1.793   7.570  20.410  0.00  0.00    +0.000 A 
BRANCH   8  11
ATOM     11  N   UNL     1       0.396  10.877  19.398  0.00  0.00    +0.000 N 
ATOM     12  C   UNL     1      -1.034  11.028  19.145  0.00  0.00    +0.000 C 
ATOM     13  C   UNL     1      -1.236  12.070  18.042  0.00  0.00    +0.000 C 
ATOM     14  C   UNL     1      -0.527  13.384  18.363  0.00  0.00    +0.000 C 
ATOM     15  C   UNL     1       0.946  13.158  18.704  0.00  0.00    +0.000 C 
ATOM     16  C   UNL     1       1.109  12.095  19.789  0.00  0.00    +0.000 C 
ENDBRANCH   8  11
ENDBRANCH   3   5
BRANCH   1  17
ATOM     17  C   UNL     1       3.299   3.463  18.761  0.00  0.00    +0.000 C 
BRANCH  17  18
ATOM     18  O   UNL     1       4.115   3.278  17.610  0.00  0.00    +0.000 OA
BRANCH  18  22
ATOM     19  C   UNL     1       6.964   6.254  17.002  0.00  0.00    +0.000 A 
ATOM     20  C   UNL     1       5.988   5.967  16.047  0.00  0.00    +0.000 A 
ATOM     21  C   UNL     1       5.056   4.952  16.277  0.00  0.00    +0.000 A 
ATOM     22  C   UNL     1       5.113   4.197  17.448  0.00  0.00    +0.000 A 
ATOM     23  C   UNL     1       6.107   4.461  18.388  0.00  0.00    +0.000 A 
ATOM     24  C   UNL     1       7.031   5.488  18.165  0.00  0.00    +0.000 A 
BRANCH  19  26
ATOM     25  C   UNL     1       7.945   8.296  17.669  0.00  0.00    +0.000 C 
ATOM     26  O   UNL     1       7.814   7.277  16.683  0.00  0.00    +0.000 OA
ENDBRANCH  19  26
ENDBRANCH  18  22
ENDBRANCH  17  18
ENDBRANCH   1  17
TORSDOF 6
ENDMDL
MODEL 2
REMARK VINA RESULT:      -7.5      0.784      1.854
REMARK  Name = 
REMARK  7 active torsions:
REMARK  status: ('A' for Active; 'I' for Inactive)
REMARK    1  A    between atoms: C_1  and  O_2
REMARK    2  A    between atoms: O_2  and  C_3
REMARK    3  A    between atoms: C_6  and  O_7
REMARK    4  A    between atoms: O_7  and  C_8
REMARK    5  A    between atoms: C_8  and  C_9
REMARK    6  A    between atoms: N_11  and  C_12
REMARK    7  A    between atoms: C_15  and  N_16
REMARK                            x       y       z     vdW  Elec       q    Type
REMARK                         _______ _______ _______ _____ _____    ______ ____
ROOT
ATOM      1  C   UNL     1       2.596   4.883  19.415  0.00  0.00    +0.000 C 
ATOM      2  O   UNL     1       1.611   4.623  18.726  0.00  0.00    +0.000 OA
ATOM      3  N   UNL     1       2.992   6.147  19.840  0.00  0.00    +0.000 N 
ATOM      4  H   UNL     1       3.920   6.230  20.235  0.00  0.00    +0.000 HD
ENDROOT
BRANCH   3   5
ATOM      5  C   UNL     1       2.281   7.349  19.637  0.00  0.00    +0.000 A 
ATOM      6  C   UNL     1       1.555   7.973  20.650  0.00  0.00    +0.000 A 
ATOM      7  C   UNL     1       0.860   9.163  20.409  0.00  0.00    +0.000 A 
ATOM      8  C   UNL     1       0.868   9.784  19.155  0.00  0.00    +0.000 A 
ATOM      9  C   UNL     1       1.615   9.150  18.152  0.00  0.00    +0.000 A 
ATOM     10  C   UNL     1       2.318   7.954  18.386  0.00  0.00    +0.000 A 
BRANCH   8  11
ATOM     11  N   UNL     1       0.190  10.967  18.941  0.00  0.00    +0.000 N 
ATOM     12  C   UNL     1       0.877  12.254  18.873  0.00  0.00    +0.000 C 
ATOM     13  C   UNL     1       0.237  13.212  19.881  0.00  0.00    +0.000 C 
ATOM     14  C   UNL     1      -1.275  13.312  19.690  0.00  0.00    +0.000 C 
ATOM     15  C   UNL     1      -1.932  11.931  19.683  0.00  0.00    +0.000 C 
ATOM     16  C   UNL     1      -1.252  10.997  18.685  0.00  0.00    +0.000 C 
ENDBRANCH   8  11
ENDBRANCH   3   5
BRANCH   1  17
ATOM     17  C   UNL     1       3.521   3.769  19.876  0.00  0.00    +0.000 C 
BRANCH  17  18
ATOM     18  O   UNL     1       4.289   3.358  18.750  0.00  0.00    +0.000 OA
BRANCH  18  22
ATOM     19  C   UNL     1       6.831   6.233  17.132  0.00  0.00    +0.000 A 
ATOM     20  C   UNL     1       6.920   5.844  18.469  0.00  0.00    +0.000 A 
ATOM     21  C   UNL     1       6.042   4.888  18.984  0.00  0.00    +0.000 A 
ATOM     22  C   UNL     1       5.049   4.336  18.174  0.00  0.00    +0.000 A 
ATOM     23  C   UNL     1       4.938   4.747  16.847  0.00  0.00    +0.000 A 
ATOM     24  C   UNL     1       5.829   5.694  16.327  0.00  0.00    +0.000 A 
BRANCH  19  26
ATOM     25  C   UNL     1       7.950   8.255  17.620  0.00  0.00    +0.000 C 
ATOM     26  O   UNL     1       7.750   7.163  16.729  0.00  0.00    +0.000 OA
ENDBRANCH  19  26
ENDBRANCH  18  22
ENDBRANCH  17  18
ENDBRANCH   1  17
TORSDOF 6
ENDMDL
MODEL 3
REMARK VINA RESULT:      -7.5      1.052      1.742
REMARK  Name = 
REMARK  7 active torsions:
REMARK  status: ('A' for Active; 'I' for Inactive)
REMARK    1  A    between atoms: C_1  and  O_2
REMARK    2  A    between atoms: O_2  and  C_3
REMARK    3  A    between atoms: C_6  and  O_7
REMARK    4  A    between atoms: O_7  and  C_8
REMARK    5  A    between atoms: C_8  and  C_9
REMARK    6  A    between atoms: N_11  and  C_12
REMARK    7  A    between atoms: C_15  and  N_16
REMARK                            x       y       z     vdW  Elec       q    Type
REMARK                         _______ _______ _______ _____ _____    ______ ____
ROOT
ATOM      1  C   UNL     1       2.437   4.944  19.647  0.00  0.00    +0.000 C 
ATOM      2  O   UNL     1       1.282   4.630  19.364  0.00  0.00    +0.000 OA
ATOM      3  N   UNL     1       2.926   6.237  19.792  0.00  0.00    +0.000 N 
ATOM      4  H   UNL     1       3.931   6.348  19.837  0.00  0.00    +0.000 HD
ENDROOT
BRANCH   3   5
ATOM      5  C   UNL     1       2.161   7.422  19.735  0.00  0.00    +0.000 A 
ATOM      6  C   UNL     1       2.066   8.202  18.583  0.00  0.00    +0.000 A 
ATOM      7  C   UNL     1       1.300   9.372  18.568  0.00  0.00    +0.000 A 
ATOM      8  C   UNL     1       0.591   9.808  19.692  0.00  0.00    +0.000 A 
ATOM      9  C   UNL     1       0.687   9.005  20.838  0.00  0.00    +0.000 A 
ATOM     10  C   UNL     1       1.453   7.825  20.862  0.00  0.00    +0.000 A 
BRANCH   8  11
ATOM     11  N   UNL     1      -0.172  10.957  19.652  0.00  0.00    +0.000 N 
ATOM     12  C   UNL     1      -0.216  11.899  20.767  0.00  0.00    +0.000 C 
ATOM     13  C   UNL     1      -1.675  12.119  21.174  0.00  0.00    +0.000 C 
ATOM     14  C   UNL     1      -2.542  12.533  19.986  0.00  0.00    +0.000 C 
ATOM     15  C   UNL     1      -2.391  11.559  18.816  0.00  0.00    +0.000 C 
ATOM     16  C   UNL     1      -0.923  11.346  18.456  0.00  0.00    +0.000 C 
ENDBRANCH   8  11
ENDBRANCH   3   5
BRANCH   1  17
ATOM     17  C   UNL     1       3.489   3.868  19.865  0.00  0.00    +0.000 C 
BRANCH  17  18
ATOM     18  O   UNL     1       4.060   3.566  18.597  0.00  0.00    +0.000 OA
BRANCH  18  22
ATOM     19  C   UNL     1       6.770   6.360  17.115  0.00  0.00    +0.000 A 
ATOM     20  C   UNL     1       6.931   5.775  18.372  0.00  0.00    +0.000 A 
ATOM     21  C   UNL     1       5.996   4.852  18.844  0.00  0.00    +0.000 A 
ATOM     22  C   UNL     1       4.875   4.531  18.078  0.00  0.00    +0.000 A 
ATOM     23  C   UNL     1       4.695   5.138  16.837  0.00  0.00    +0.000 A 
ATOM     24  C   UNL     1       5.641   6.050  16.357  0.00  0.00    +0.000 A 
BRANCH  19  26
ATOM     25  C   UNL     1       7.994   8.307  17.650  0.00  0.00    +0.000 C 
ATOM     26  O   UNL     1       7.752   7.235  16.744  0.00  0.00    +0.000 OA
ENDBRANCH  19  26
ENDBRANCH  18  22
ENDBRANCH  17  18
ENDBRANCH   1  17
TORSDOF 6
ENDMDL
MODEL 4
REMARK VINA RESULT:      -7.5      0.793      1.269
REMARK  Name = 
REMARK  7 active torsions:
REMARK  status: ('A' for Active; 'I' for Inactive)
REMARK    1  A    between atoms: C_1  and  O_2
REMARK    2  A    between atoms: O_2  and  C_3
REMARK    3  A    between atoms: C_6  and  O_7
REMARK    4  A    between atoms: O_7  and  C_8
REMARK    5  A    between atoms: C_8  and  C_9
REMARK    6  A    between atoms: N_11  and  C_12
REMARK    7  A    between atoms: C_15  and  N_16
REMARK                            x       y       z     vdW  Elec       q    Type
REMARK                         _______ _______ _______ _____ _____    ______ ____
ROOT
ATOM      1  C   UNL     1       2.547   4.557  18.459  0.00  0.00    +0.000 C 
ATOM      2  O   UNL     1       1.522   4.524  17.781  0.00  0.00    +0.000 OA
ATOM      3  N   UNL     1       3.044   5.659  19.146  0.00  0.00    +0.000 N 
ATOM      4  H   UNL     1       3.990   5.593  19.501  0.00  0.00    +0.000 HD
ENDROOT
BRANCH   3   5
ATOM      5  C   UNL     1       2.409   6.914  19.267  0.00  0.00    +0.000 A 
ATOM      6  C   UNL     1       2.308   7.812  18.206  0.00  0.00    +0.000 A 
ATOM      7  C   UNL     1       1.674   9.048  18.368  0.00  0.00    +0.000 A 
ATOM      8  C   UNL     1       1.108   9.436  19.587  0.00  0.00    +0.000 A 
ATOM      9  C   UNL     1       1.207   8.515  20.640  0.00  0.00    +0.000 A 
ATOM     10  C   UNL     1       1.841   7.268  20.486  0.00  0.00    +0.000 A 
BRANCH   8  11
ATOM     11  N   UNL     1       0.472  10.653  19.723  0.00  0.00    +0.000 N 
ATOM     12  C   UNL     1       0.650  11.495  20.903  0.00  0.00    +0.000 C 
ATOM     13  C   UNL     1      -0.724  11.821  21.492  0.00  0.00    +0.000 C 
ATOM     14  C   UNL     1      -1.665  12.419  20.448  0.00  0.00    +0.000 C 
ATOM     15  C   UNL     1      -1.747  11.540  19.199  0.00  0.00    +0.000 C 
ATOM     16  C   UNL     1      -0.358  11.215  18.654  0.00  0.00    +0.000 C 
ENDBRANCH   8  11
ENDBRANCH   3   5
BRANCH   1  17
ATOM     17  C   UNL     1       3.410   3.313  18.598  0.00  0.00    +0.000 C 
BRANCH  17  18
ATOM     18  O   UNL     1       4.205   3.212  17.422  0.00  0.00    +0.000 OA
BRANCH  18  22
ATOM     19  C   UNL     1       6.979   6.279  16.928  0.00  0.00    +0.000 A 
ATOM     20  C   UNL     1       5.988   6.025  15.979  0.00  0.00    +0.000 A 
ATOM     21  C   UNL     1       5.083   4.980  16.169  0.00  0.00    +0.000 A 
ATOM     22  C   UNL     1       5.180   4.159  17.293  0.00  0.00    +0.000 A 
ATOM     23  C   UNL     1       6.189   4.391  18.226  0.00  0.00    +0.000 A 
ATOM     24  C   UNL     1       7.086   5.450  18.044  0.00  0.00    +0.000 A 
BRANCH  19  26
ATOM     25  C   UNL     1       7.921   8.307  17.687  0.00  0.00    +0.000 C 
ATOM     26  O   UNL     1       7.800   7.337  16.652  0.00  0.00    +0.000 OA
ENDBRANCH  19  26
ENDBRANCH  18  22
ENDBRANCH  17  18
ENDBRANCH   1  17
TORSDOF 6
ENDMDL
MODEL 5
REMARK VINA RESULT:      -7.5      0.903      1.347
REMARK  Name = 
REMARK  7 active torsions:
REMARK  status: ('A' for Active; 'I' for Inactive)
REMARK    1  A    between atoms: C_1  and  O_2
REMARK    2  A    between atoms: O_2  and  C_3
REMARK    3  A    between atoms: C_6  and  O_7
REMARK    4  A    between atoms: O_7  and  C_8
REMARK    5  A    between atoms: C_8  and  C_9
REMARK    6  A    between atoms: N_11  and  C_12
REMARK    7  A    between atoms: C_15  and  N_16
REMARK                            x       y       z     vdW  Elec       q    Type
REMARK                         _______ _______ _______ _____ _____    ______ ____
ROOT
ATOM      1  C   UNL     1       2.585   4.947  19.393  0.00  0.00    +0.000 C 
ATOM      2  O   UNL     1       1.528   4.668  18.829  0.00  0.00    +0.000 OA
ATOM      3  N   UNL     1       2.956   6.199  19.871  0.00  0.00    +0.000 N 
ATOM      4  H   UNL     1       3.925   6.322  20.138  0.00  0.00    +0.000 HD
ENDROOT
BRANCH   3   5
ATOM      5  C   UNL     1       2.147   7.355  19.881  0.00  0.00    +0.000 A 
ATOM      6  C   UNL     1       1.389   7.733  20.988  0.00  0.00    +0.000 A 
ATOM      7  C   UNL     1       0.597   8.885  20.957  0.00  0.00    +0.000 A 
ATOM      8  C   UNL     1       0.534   9.712  19.830  0.00  0.00    +0.000 A 
ATOM      9  C   UNL     1       1.313   9.324  18.731  0.00  0.00    +0.000 A 
ATOM     10  C   UNL     1       2.115   8.168  18.753  0.00  0.00    +0.000 A 
BRANCH   8  11
ATOM     11  N   UNL     1      -0.241  10.854  19.825  0.00  0.00    +0.000 N 
ATOM     12  C   UNL     1      -0.971  11.291  18.638  0.00  0.00    +0.000 C 
ATOM     13  C   UNL     1      -0.582  12.737  18.321  0.00  0.00    +0.000 C 
ATOM     14  C   UNL     1      -0.765  13.655  19.528  0.00  0.00    +0.000 C 
ATOM     15  C   UNL     1      -0.052  13.105  20.764  0.00  0.00    +0.000 C 
ATOM     16  C   UNL     1      -0.446  11.655  21.035  0.00  0.00    +0.000 C 
ENDBRANCH   8  11
ENDBRANCH   3   5
BRANCH   1  17
ATOM     17  C   UNL     1       3.638   3.874  19.616  0.00  0.00    +0.000 C 
BRANCH  17  18
ATOM     18  O   UNL     1       4.305   3.667  18.376  0.00  0.00    +0.000 OA
BRANCH  18  22
ATOM     19  C   UNL     1       6.995   6.661  17.305  0.00  0.00    +0.000 A 
ATOM     20  C   UNL     1       5.959   6.268  16.458  0.00  0.00    +0.000 A 
ATOM     21  C   UNL     1       5.083   5.250  16.841  0.00  0.00    +0.000 A 
ATOM     22  C   UNL     1       5.256   4.596  18.062  0.00  0.00    +0.000 A 
ATOM     23  C   UNL     1       6.309   4.966  18.896  0.00  0.00    +0.000 A 
ATOM     24  C   UNL     1       7.176   5.997  18.518  0.00  0.00    +0.000 A 
BRANCH  19  26
ATOM     25  C   UNL     1       8.090   8.698  17.783  0.00  0.00    +0.000 C 
ATOM     26  O   UNL     1       7.782   7.678  16.839  0.00  0.00    +0.000 OA
ENDBRANCH  19  26
ENDBRANCH  18  22
ENDBRANCH  17  18
ENDBRANCH   1  17
TORSDOF 6
ENDMDL
MODEL 6
REMARK VINA RESULT:      -7.5      0.846      1.591
REMARK  Name = 
REMARK  7 active torsions:
REMARK  status: ('A' for Active; 'I' for Inactive)
REMARK    1  A    between atoms: C_1  and  O_2
REMARK    2  A    between atoms: O_2  and  C_3
REMARK    3  A    between atoms: C_6  and  O_7
REMARK    4  A    between atoms: O_7  and  C_8
REMARK    5  A    between atoms: C_8  and  C_9
REMARK    6  A    between atoms: N_11  and  C_12
REMARK    7  A    between atoms: C_15  and  N_16
REMARK                            x       y       z     vdW  Elec       q    Type
REMARK                         _______ _______ _______ _____ _____    ______ ____
ROOT
ATOM      1  C   UNL     1       2.560   4.782  18.866  0.00  0.00    +0.000 C 
ATOM      2  O   UNL     1       1.605   4.712  18.094  0.00  0.00    +0.000 OA
ATOM      3  N   UNL     1       2.942   5.897  19.603  0.00  0.00    +0.000 N 
ATOM      4  H   UNL     1       3.853   5.867  20.045  0.00  0.00    +0.000 HD
ENDROOT
BRANCH   3   5
ATOM      5  C   UNL     1       2.246   7.123  19.672  0.00  0.00    +0.000 A 
ATOM      6  C   UNL     1       1.552   7.531  20.809  0.00  0.00    +0.000 A 
ATOM      7  C   UNL     1       0.872   8.753  20.836  0.00  0.00    +0.000 A 
ATOM      8  C   UNL     1       0.862   9.620  19.739  0.00  0.00    +0.000 A 
ATOM      9  C   UNL     1       1.577   9.200  18.608  0.00  0.00    +0.000 A 
ATOM     10  C   UNL     1       2.266   7.974  18.572  0.00  0.00    +0.000 A 
BRANCH   8  11
ATOM     11  N   UNL     1       0.199  10.829  19.791  0.00  0.00    +0.000 N 
ATOM     12  C   UNL     1       0.205  11.667  20.987  0.00  0.00    +0.000 C 
ATOM     13  C   UNL     1      -1.240  11.974  21.385  0.00  0.00    +0.000 C 
ATOM     14  C   UNL     1      -2.038  12.567  20.225  0.00  0.00    +0.000 C 
ATOM     15  C   UNL     1      -1.939  11.693  18.973  0.00  0.00    +0.000 C 
ATOM     16  C   UNL     1      -0.485  11.387  18.622  0.00  0.00    +0.000 C 
ENDBRANCH   8  11
ENDBRANCH   3   5
BRANCH   1  17
ATOM     17  C   UNL     1       3.459   3.574  19.079  0.00  0.00    +0.000 C 
BRANCH  17  18
ATOM     18  O   UNL     1       4.242   3.413  17.901  0.00  0.00    +0.000 OA
BRANCH  18  22
ATOM     19  C   UNL     1       6.910   6.520  17.140  0.00  0.00    +0.000 A 
ATOM     20  C   UNL     1       5.933   6.147  16.215  0.00  0.00    +0.000 A 
ATOM     21  C   UNL     1       5.064   5.091  16.496  0.00  0.00    +0.000 A 
ATOM     22  C   UNL     1       5.185   4.379  17.690  0.00  0.00    +0.000 A 
ATOM     23  C   UNL     1       6.180   4.729  18.601  0.00  0.00    +0.000 A 
ATOM     24  C   UNL     1       7.040   5.798  18.326  0.00  0.00    +0.000 A 
BRANCH  19  26
ATOM     25  C   UNL     1       7.972   8.523  17.798  0.00  0.00    +0.000 C 
ATOM     26  O   UNL     1       7.695   7.577  16.771  0.00  0.00    +0.000 OA
ENDBRANCH  19  26
ENDBRANCH  18  22
ENDBRANCH  17  18
ENDBRANCH   1  17
TORSDOF 6
ENDMDL
MODEL 7
REMARK VINA RESULT:      -7.4      1.397      2.117
REMARK  Name = 
REMARK  7 active torsions:
REMARK  status: ('A' for Active; 'I' for Inactive)
REMARK    1  A    between atoms: C_1  and  O_2
REMARK    2  A    between atoms: O_2  and  C_3
REMARK    3  A    between atoms: C_6  and  O_7
REMARK    4  A    between atoms: O_7  and  C_8
REMARK    5  A    between atoms: C_8  and  C_9
REMARK    6  A    between atoms: N_11  and  C_12
REMARK    7  A    between atoms: C_15  and  N_16
REMARK                            x       y       z     vdW  Elec       q    Type
REMARK                         _______ _______ _______ _____ _____    ______ ____
ROOT
ATOM      1  C   UNL     1       2.613   5.122  19.006  0.00  0.00    +0.000 C 
ATOM      2  O   UNL     1       1.800   5.043  18.087  0.00  0.00    +0.000 OA
ATOM      3  N   UNL     1       2.840   6.233  19.810  0.00  0.00    +0.000 N 
ATOM      4  H   UNL     1       3.666   6.218  20.395  0.00  0.00    +0.000 HD
ENDROOT
BRANCH   3   5
ATOM      5  C   UNL     1       2.110   7.440  19.779  0.00  0.00    +0.000 A 
ATOM      6  C   UNL     1       2.080   8.274  18.662  0.00  0.00    +0.000 A 
ATOM      7  C   UNL     1       1.346   9.464  18.673  0.00  0.00    +0.000 A 
ATOM      8  C   UNL     1       0.606   9.869  19.789  0.00  0.00    +0.000 A 
ATOM      9  C   UNL     1       0.636   9.012  20.898  0.00  0.00    +0.000 A 
ATOM     10  C   UNL     1       1.369   7.811  20.897  0.00  0.00    +0.000 A 
BRANCH   8  11
ATOM     11  N   UNL     1      -0.126  11.039  19.774  0.00  0.00    +0.000 N 
ATOM     12  C   UNL     1      -0.196  11.925  20.933  0.00  0.00    +0.000 C 
ATOM     13  C   UNL     1      -1.666  12.165  21.285  0.00  0.00    +0.000 C 
ATOM     14  C   UNL     1      -2.467  12.662  20.082  0.00  0.00    +0.000 C 
ATOM     15  C   UNL     1      -2.288  11.744  18.872  0.00  0.00    +0.000 C 
ATOM     16  C   UNL     1      -0.810  11.508  18.567  0.00  0.00    +0.000 C 
ENDBRANCH   8  11
ENDBRANCH   3   5
BRANCH   1  17
ATOM     17  C   UNL     1       3.497   3.933  19.348  0.00  0.00    +0.000 C 
BRANCH  17  18
ATOM     18  O   UNL     1       4.841   4.398  19.386  0.00  0.00    +0.000 OA
BRANCH  18  22
ATOM     19  C   UNL     1       6.852   5.092  15.806  0.00  0.00    +0.000 A 
ATOM     20  C   UNL     1       7.152   5.806  16.966  0.00  0.00    +0.000 A 
ATOM     21  C   UNL     1       6.449   5.558  18.147  0.00  0.00    +0.000 A 
ATOM     22  C   UNL     1       5.418   4.618  18.167  0.00  0.00    +0.000 A 
ATOM     23  C   UNL     1       5.096   3.927  17.001  0.00  0.00    +0.000 A 
ATOM     24  C   UNL     1       5.812   4.163  15.823  0.00  0.00    +0.000 A 
BRANCH  19  26
ATOM     25  C   UNL     1       7.216   4.783  13.493  0.00  0.00    +0.000 C 
ATOM     26  O   UNL     1       7.613   5.402  14.712  0.00  0.00    +0.000 OA
ENDBRANCH  19  26
ENDBRANCH  18  22
ENDBRANCH  17  18
ENDBRANCH   1  17
TORSDOF 6
ENDMDL
MODEL 8
REMARK VINA RESULT:      -7.4      1.173      2.008
REMARK  Name = 
REMARK  7 active torsions:
REMARK  status: ('A' for Active; 'I' for Inactive)
REMARK    1  A    between atoms: C_1  and  O_2
REMARK    2  A    between atoms: O_2  and  C_3
REMARK    3  A    between atoms: C_6  and  O_7
REMARK    4  A    between atoms: O_7  and  C_8
REMARK    5  A    between atoms: C_8  and  C_9
REMARK    6  A    between atoms: N_11  and  C_12
REMARK    7  A    between atoms: C_15  and  N_16
REMARK                            x       y       z     vdW  Elec       q    Type
REMARK                         _______ _______ _______ _____ _____    ______ ____
ROOT
ATOM      1  C   UNL     1       2.645   5.059  19.283  0.00  0.00    +0.000 C 
ATOM      2  O   UNL     1       1.744   4.819  18.482  0.00  0.00    +0.000 OA
ATOM      3  N   UNL     1       2.957   6.302  19.822  0.00  0.00    +0.000 N 
ATOM      4  H   UNL     1       3.837   6.383  20.316  0.00  0.00    +0.000 HD
ENDROOT
BRANCH   3   5
ATOM      5  C   UNL     1       2.234   7.497  19.621  0.00  0.00    +0.000 A 
ATOM      6  C   UNL     1       1.490   8.106  20.630  0.00  0.00    +0.000 A 
ATOM      7  C   UNL     1       0.785   9.289  20.389  0.00  0.00    +0.000 A 
ATOM      8  C   UNL     1       0.797   9.918  19.140  0.00  0.00    +0.000 A 
ATOM      9  C   UNL     1       1.561   9.299  18.140  0.00  0.00    +0.000 A 
ATOM     10  C   UNL     1       2.276   8.110  18.373  0.00  0.00    +0.000 A 
BRANCH   8  11
ATOM     11  N   UNL     1       0.108  11.094  18.927  0.00  0.00    +0.000 N 
ATOM     12  C   UNL     1       0.785  12.385  18.833  0.00  0.00    +0.000 C 
ATOM     13  C   UNL     1       0.158  13.349  19.842  0.00  0.00    +0.000 C 
ATOM     14  C   UNL     1      -1.359  13.438  19.680  0.00  0.00    +0.000 C 
ATOM     15  C   UNL     1      -2.007  12.053  19.699  0.00  0.00    +0.000 C 
ATOM     16  C   UNL     1      -1.339  11.112  18.698  0.00  0.00    +0.000 C 
ENDBRANCH   8  11
ENDBRANCH   3   5
BRANCH   1  17
ATOM     17  C   UNL     1       3.552   3.939  19.769  0.00  0.00    +0.000 C 
BRANCH  17  18
ATOM     18  O   UNL     1       3.945   3.183  18.630  0.00  0.00    +0.000 OA
BRANCH  18  22
ATOM     19  C   UNL     1       6.738   4.989  16.122  0.00  0.00    +0.000 A 
ATOM     20  C   UNL     1       5.649   4.278  15.617  0.00  0.00    +0.000 A 
ATOM     21  C   UNL     1       4.739   3.673  16.486  0.00  0.00    +0.000 A 
ATOM     22  C   UNL     1       4.928   3.746  17.866  0.00  0.00    +0.000 A 
ATOM     23  C   UNL     1       6.033   4.427  18.372  0.00  0.00    +0.000 A 
ATOM     24  C   UNL     1       6.936   5.048  17.502  0.00  0.00    +0.000 A 
BRANCH  19  26
ATOM     25  C   UNL     1       7.382   5.085  13.852  0.00  0.00    +0.000 C 
ATOM     26  O   UNL     1       7.557   5.556  15.185  0.00  0.00    +0.000 OA
ENDBRANCH  19  26
ENDBRANCH  18  22
ENDBRANCH  17  18
ENDBRANCH   1  17
TORSDOF 6
ENDMDL
MODEL 9
REMARK VINA RESULT:      -7.3      1.512      2.143
REMARK  Name = 
REMARK  7 active torsions:
REMARK  status: ('A' for Active; 'I' for Inactive)
REMARK    1  A    between atoms: C_1  and  O_2
REMARK    2  A    between atoms: O_2  and  C_3
REMARK    3  A    between atoms: C_6  and  O_7
REMARK    4  A    between atoms: O_7  and  C_8
REMARK    5  A    between atoms: C_8  and  C_9
REMARK    6  A    between atoms: N_11  and  C_12
REMARK    7  A    between atoms: C_15  and  N_16
REMARK                            x       y       z     vdW  Elec       q    Type
REMARK                         _______ _______ _______ _____ _____    ______ ____
ROOT
ATOM      1  C   UNL     1       2.092   5.047  20.292  0.00  0.00    +0.000 C 
ATOM      2  O   UNL     1       0.882   4.826  20.299  0.00  0.00    +0.000 OA
ATOM      3  N   UNL     1       2.700   6.289  20.151  0.00  0.00    +0.000 N 
ATOM      4  H   UNL     1       3.697   6.297  19.972  0.00  0.00    +0.000 HD
ENDROOT
BRANCH   3   5
ATOM      5  C   UNL     1       2.037   7.533  20.086  0.00  0.00    +0.000 A 
ATOM      6  C   UNL     1       1.419   8.115  21.192  0.00  0.00    +0.000 A 
ATOM      7  C   UNL     1       0.769   9.349  21.086  0.00  0.00    +0.000 A 
ATOM      8  C   UNL     1       0.715  10.058  19.881  0.00  0.00    +0.000 A 
ATOM      9  C   UNL     1       1.354   9.464  18.782  0.00  0.00    +0.000 A 
ATOM     10  C   UNL     1       2.012   8.224  18.879  0.00  0.00    +0.000 A 
BRANCH   8  11
ATOM     11  N   UNL     1       0.084  11.282  19.800  0.00  0.00    +0.000 N 
ATOM     12  C   UNL     1      -1.129  11.479  19.011  0.00  0.00    +0.000 C 
ATOM     13  C   UNL     1      -0.903  12.634  18.034  0.00  0.00    +0.000 C 
ATOM     14  C   UNL     1      -0.422  13.897  18.746  0.00  0.00    +0.000 C 
ATOM     15  C   UNL     1       0.798  13.615  19.625  0.00  0.00    +0.000 C 
ATOM     16  C   UNL     1       0.544  12.441  20.568  0.00  0.00    +0.000 C 
ENDBRANCH   8  11
ENDBRANCH   3   5
BRANCH   1  17
ATOM     17  C   UNL     1       3.079   3.899  20.438  0.00  0.00    +0.000 C 
BRANCH  17  18
ATOM     18  O   UNL     1       3.126   3.216  19.191  0.00  0.00    +0.000 OA
BRANCH  18  22
ATOM     19  C   UNL     1       6.191   4.482  16.670  0.00  0.00    +0.000 A 
ATOM     20  C   UNL     1       6.322   4.516  18.059  0.00  0.00    +0.000 A 
ATOM     21  C   UNL     1       5.269   4.097  18.875  0.00  0.00    +0.000 A 
ATOM     22  C   UNL     1       4.066   3.672  18.310  0.00  0.00    +0.000 A 
ATOM     23  C   UNL     1       3.922   3.668  16.925  0.00  0.00    +0.000 A 
ATOM     24  C   UNL     1       4.983   4.072  16.106  0.00  0.00    +0.000 A 
BRANCH  19  26
ATOM     25  C   UNL     1       7.146   4.890  14.550  0.00  0.00    +0.000 C 
ATOM     26  O   UNL     1       7.288   4.897  15.967  0.00  0.00    +0.000 OA
ENDBRANCH  19  26
ENDBRANCH  18  22
ENDBRANCH  17  18
ENDBRANCH   1  17
TORSDOF 6
ENDMDL
