MODEL 1
REMARK VINA RESULT:      -7.4      0.000      0.000
REMARK  Name = 
REMARK  4 active torsions:
REMARK  status: ('A' for Active; 'I' for Inactive)
REMARK    1  A    between atoms: C_1  and  C_2
REMARK    2  A    between atoms: C_8  and  C_9
REMARK    3  A    between atoms: C_15  and  C_16
REMARK    4  A    between atoms: C_15  and  C_17
REMARK                            x       y       z     vdW  Elec       q    Type
REMARK                         _______ _______ _______ _____ _____    ______ ____
ROOT
ATOM      1  C   UNL     1       3.208   6.568  18.353  0.00  0.00    +0.000 A 
ATOM      2  C   UNL     1       2.748   5.392  17.695  0.00  0.00    +0.000 A 
ATOM      3  C   UNL     1       3.663   4.422  17.234  0.00  0.00    +0.000 A 
ATOM      4  C   UNL     1       5.025   4.663  17.413  0.00  0.00    +0.000 A 
ATOM      5  C   UNL     1       5.474   5.800  18.034  0.00  0.00    +0.000 A 
ATOM      6  C   UNL     1       4.594   6.750  18.529  0.00  0.00    +0.000 A 
ATOM      7  C   UNL     1       6.969   5.831  18.036  0.00  0.00    +0.000 C 
ATOM      8  C   UNL     1       7.472   7.020  17.201  0.00  0.00    +0.000 C 
ATOM      9  C   UNL     1       7.531   5.872  19.463  0.00  0.00    +0.000 C 
ATOM     10  C   UNL     1       7.238   4.510  17.347  0.00  0.00    +0.000 C 
ATOM     11  O   UNL     1       8.351   4.066  17.107  0.00  0.00    +0.000 OA
ATOM     12  N   UNL     1       6.102   3.864  17.004  0.00  0.00    +0.000 N 
ATOM     13  H   UNL     1       6.043   2.955  16.521  0.00  0.00    +0.000 HD
ENDROOT
BRANCH   1  21
ATOM     14  C   UNL     1       1.208   6.426  20.724  0.00  0.00    +0.000 C 
ATOM     15  C   UNL     1       1.949   7.712  20.330  0.00  0.00    +0.000 C 
ATOM     16 SE   UNL     1       0.871   9.217  20.931  0.00  0.00    +0.000 Se
ATOM     17  C   UNL     1       0.365   9.892  19.227  0.00  0.00    +0.000 C 
ATOM     18  O   UNL     1      -0.455  10.796  19.202  0.00  0.00    +0.000 OA
ATOM     19  N   UNL     1       0.877   9.441  18.064  0.00  0.00    +0.000 N 
ATOM     20  N   UNL     1       1.786   8.415  17.937  0.00  0.00    +0.000 NA
ATOM     21  C   UNL     1       2.294   7.648  18.850  0.00  0.00    +0.000 C 
ATOM     22  H   UNL     1       0.566   9.890  17.190  0.00  0.00    +0.000 HD
ENDBRANCH   1  21
TORSDOF 1
ENDMDL
MODEL 2
REMARK VINA RESULT:      -7.4      3.319      6.904
REMARK  Name = 
REMARK  4 active torsions:
REMARK  status: ('A' for Active; 'I' for Inactive)
REMARK    1  A    between atoms: C_1  and  C_2
REMARK    2  A    between atoms: C_8  and  C_9
REMARK    3  A    between atoms: C_15  and  C_16
REMARK    4  A    between atoms: C_15  and  C_17
REMARK                            x       y       z     vdW  Elec       q    Type
REMARK                         _______ _______ _______ _____ _____    ______ ____
ROOT
ATOM      1  C   UNL     1       2.484   6.465  19.158  0.00  0.00    +0.000 A 
ATOM      2  C   UNL     1       2.564   7.225  17.956  0.00  0.00    +0.000 A 
ATOM      3  C   UNL     1       2.097   8.555  17.915  0.00  0.00    +0.000 A 
ATOM      4  C   UNL     1       1.529   9.090  19.071  0.00  0.00    +0.000 A 
ATOM      5  C   UNL     1       1.437   8.359  20.226  0.00  0.00    +0.000 A 
ATOM      6  C   UNL     1       1.923   7.062  20.304  0.00  0.00    +0.000 A 
ATOM      7  C   UNL     1       0.734   9.148  21.284  0.00  0.00    +0.000 C 
ATOM      8  C   UNL     1      -0.589   8.463  21.662  0.00  0.00    +0.000 C 
ATOM      9  C   UNL     1       1.625   9.362  22.515  0.00  0.00    +0.000 C 
ATOM     10  C   UNL     1       0.501  10.430  20.511  0.00  0.00    +0.000 C 
ATOM     11  O   UNL     1      -0.058  11.419  20.960  0.00  0.00    +0.000 OA
ATOM     12  N   UNL     1       0.970  10.364  19.246  0.00  0.00    +0.000 N 
ATOM     13  H   UNL     1       0.914  11.112  18.539  0.00  0.00    +0.000 HD
ENDROOT
BRANCH   1  21
ATOM     14  C   UNL     1       0.889   4.025  20.231  0.00  0.00    +0.000 C 
ATOM     15  C   UNL     1       1.934   3.916  19.112  0.00  0.00    +0.000 C 
ATOM     16 SE   UNL     1       2.618   2.093  19.126  0.00  0.00    +0.000 Se
ATOM     17  C   UNL     1       4.391   2.469  19.703  0.00  0.00    +0.000 C 
ATOM     18  O   UNL     1       5.110   1.518  19.964  0.00  0.00    +0.000 OA
ATOM     19  N   UNL     1       4.890   3.717  19.815  0.00  0.00    +0.000 N 
ATOM     20  N   UNL     1       4.191   4.879  19.581  0.00  0.00    +0.000 NA
ATOM     21  C   UNL     1       2.944   5.042  19.267  0.00  0.00    +0.000 C 
ATOM     22  H   UNL     1       5.874   3.822  20.105  0.00  0.00    +0.000 HD
ENDBRANCH   1  21
TORSDOF 1
ENDMDL
MODEL 3
REMARK VINA RESULT:      -7.3      1.484      1.772
REMARK  Name = 
REMARK  4 active torsions:
REMARK  status: ('A' for Active; 'I' for Inactive)
REMARK    1  A    between atoms: C_1  and  C_2
REMARK    2  A    between atoms: C_8  and  C_9
REMARK    3  A    between atoms: C_15  and  C_16
REMARK    4  A    between atoms: C_15  and  C_17
REMARK                            x       y       z     vdW  Elec       q    Type
REMARK                         _______ _______ _______ _____ _____    ______ ____
ROOT
ATOM      1  C   UNL     1       3.071   6.467  18.649  0.00  0.00    +0.000 A 
ATOM      2  C   UNL     1       2.578   5.355  17.910  0.00  0.00    +0.000 A 
ATOM      3  C   UNL     1       3.467   4.443  17.304  0.00  0.00    +0.000 A 
ATOM      4  C   UNL     1       4.836   4.680  17.424  0.00  0.00    +0.000 A 
ATOM      5  C   UNL     1       5.317   5.756  18.123  0.00  0.00    +0.000 A 
ATOM      6  C   UNL     1       4.464   6.646  18.759  0.00  0.00    +0.000 A 
ATOM      7  C   UNL     1       6.809   5.803  18.038  0.00  0.00    +0.000 C 
ATOM      8  C   UNL     1       7.255   7.072  17.293  0.00  0.00    +0.000 C 
ATOM      9  C   UNL     1       7.456   5.713  19.427  0.00  0.00    +0.000 C 
ATOM     10  C   UNL     1       7.042   4.556  17.211  0.00  0.00    +0.000 C 
ATOM     11  O   UNL     1       8.140   4.149  16.864  0.00  0.00    +0.000 OA
ATOM     12  N   UNL     1       5.890   3.934  16.876  0.00  0.00    +0.000 N 
ATOM     13  H   UNL     1       5.806   3.076  16.313  0.00  0.00    +0.000 HD
ENDROOT
BRANCH   1  21
ATOM     14  C   UNL     1       2.588   9.410  17.781  0.00  0.00    +0.000 C 
ATOM     15  C   UNL     1       1.509   8.546  18.447  0.00  0.00    +0.000 C 
ATOM     16 SE   UNL     1       0.262   9.748  19.336  0.00  0.00    +0.000 Se
ATOM     17  C   UNL     1       0.666   9.283  21.135  0.00  0.00    +0.000 C 
ATOM     18  O   UNL     1       0.152   9.953  22.017  0.00  0.00    +0.000 OA
ATOM     19  N   UNL     1       1.463   8.252  21.478  0.00  0.00    +0.000 N 
ATOM     20  N   UNL     1       2.128   7.430  20.596  0.00  0.00    +0.000 NA
ATOM     21  C   UNL     1       2.184   7.485  19.302  0.00  0.00    +0.000 C 
ATOM     22  H   UNL     1       1.599   8.055  22.481  0.00  0.00    +0.000 HD
ENDBRANCH   1  21
TORSDOF 1
ENDMDL
MODEL 4
REMARK VINA RESULT:      -7.2      2.629      3.806
REMARK  Name = 
REMARK  4 active torsions:
REMARK  status: ('A' for Active; 'I' for Inactive)
REMARK    1  A    between atoms: C_1  and  C_2
REMARK    2  A    between atoms: C_8  and  C_9
REMARK    3  A    between atoms: C_15  and  C_16
REMARK    4  A    between atoms: C_15  and  C_17
REMARK                            x       y       z     vdW  Elec       q    Type
REMARK                         _______ _______ _______ _____ _____    ______ ____
ROOT
ATOM      1  C   UNL     1       2.467   6.765  19.080  0.00  0.00    +0.000 A 
ATOM      2  C   UNL     1       3.551   6.870  18.163  0.00  0.00    +0.000 A 
ATOM      3  C   UNL     1       4.181   5.713  17.660  0.00  0.00    +0.000 A 
ATOM      4  C   UNL     1       3.733   4.471  18.109  0.00  0.00    +0.000 A 
ATOM      5  C   UNL     1       2.699   4.364  19.003  0.00  0.00    +0.000 A 
ATOM      6  C   UNL     1       2.039   5.485  19.483  0.00  0.00    +0.000 A 
ATOM      7  C   UNL     1       2.468   2.930  19.358  0.00  0.00    +0.000 C 
ATOM      8  C   UNL     1       2.756   2.705  20.851  0.00  0.00    +0.000 C 
ATOM      9  C   UNL     1       1.050   2.478  18.988  0.00  0.00    +0.000 C 
ATOM     10  C   UNL     1       3.525   2.292  18.481  0.00  0.00    +0.000 C 
ATOM     11  O   UNL     1       3.739   1.091  18.414  0.00  0.00    +0.000 OA
ATOM     12  N   UNL     1       4.232   3.203  17.777  0.00  0.00    +0.000 N 
ATOM     13  H   UNL     1       5.003   2.999  17.124  0.00  0.00    +0.000 HD
ENDROOT
BRANCH   1  21
ATOM     14  C   UNL     1       2.229   9.622  17.885  0.00  0.00    +0.000 C 
ATOM     15  C   UNL     1       1.131   8.980  18.744  0.00  0.00    +0.000 C 
ATOM     16 SE   UNL     1       0.117  10.421  19.572  0.00  0.00    +0.000 Se
ATOM     17  C   UNL     1       0.641  10.126  21.376  0.00  0.00    +0.000 C 
ATOM     18  O   UNL     1       0.293  10.952  22.204  0.00  0.00    +0.000 OA
ATOM     19  N   UNL     1       1.350   9.053  21.781  0.00  0.00    +0.000 N 
ATOM     20  N   UNL     1       1.830   8.058  20.959  0.00  0.00    +0.000 NA
ATOM     21  C   UNL     1       1.765   7.953  19.669  0.00  0.00    +0.000 C 
ATOM     22  H   UNL     1       1.560   8.961  22.786  0.00  0.00    +0.000 HD
ENDBRANCH   1  21
TORSDOF 1
ENDMDL
MODEL 5
REMARK VINA RESULT:      -7.2      2.887      6.873
REMARK  Name = 
REMARK  4 active torsions:
REMARK  status: ('A' for Active; 'I' for Inactive)
REMARK    1  A    between atoms: C_1  and  C_2
REMARK    2  A    between atoms: C_8  and  C_9
REMARK    3  A    between atoms: C_15  and  C_16
REMARK    4  A    between atoms: C_15  and  C_17
REMARK                            x       y       z     vdW  Elec       q    Type
REMARK                         _______ _______ _______ _____ _____    ______ ____
ROOT
ATOM      1  C   UNL     1       2.406   6.782  18.880  0.00  0.00    +0.000 A 
ATOM      2  C   UNL     1       2.475   7.672  17.771  0.00  0.00    +0.000 A 
ATOM      3  C   UNL     1       2.028   9.004  17.891  0.00  0.00    +0.000 A 
ATOM      4  C   UNL     1       1.491   9.412  19.112  0.00  0.00    +0.000 A 
ATOM      5  C   UNL     1       1.411   8.556  20.179  0.00  0.00    +0.000 A 
ATOM      6  C   UNL     1       1.878   7.252  20.098  0.00  0.00    +0.000 A 
ATOM      7  C   UNL     1       0.742   9.230  21.334  0.00  0.00    +0.000 C 
ATOM      8  C   UNL     1      -0.584   8.524  21.661  0.00  0.00    +0.000 C 
ATOM      9  C   UNL     1       1.660   9.290  22.562  0.00  0.00    +0.000 C 
ATOM     10  C   UNL     1       0.514  10.594  20.717  0.00  0.00    +0.000 C 
ATOM     11  O   UNL     1      -0.021  11.533  21.287  0.00  0.00    +0.000 OA
ATOM     12  N   UNL     1       0.956  10.666  19.442  0.00  0.00    +0.000 N 
ATOM     13  H   UNL     1       0.899  11.490  18.826  0.00  0.00    +0.000 HD
ENDROOT
BRANCH   1  21
ATOM     14  C   UNL     1       5.285   5.657  19.188  0.00  0.00    +0.000 C 
ATOM     15  C   UNL     1       4.035   4.895  19.649  0.00  0.00    +0.000 C 
ATOM     16 SE   UNL     1       4.465   2.996  19.630  0.00  0.00    +0.000 Se
ATOM     17  C   UNL     1       3.327   2.470  18.200  0.00  0.00    +0.000 C 
ATOM     18  O   UNL     1       3.427   1.323  17.796  0.00  0.00    +0.000 OA
ATOM     19  N   UNL     1       2.414   3.286  17.634  0.00  0.00    +0.000 N 
ATOM     20  N   UNL     1       2.209   4.606  17.967  0.00  0.00    +0.000 NA
ATOM     21  C   UNL     1       2.845   5.349  18.818  0.00  0.00    +0.000 C 
ATOM     22  H   UNL     1       1.819   2.903  16.885  0.00  0.00    +0.000 HD
ENDBRANCH   1  21
TORSDOF 1
ENDMDL
MODEL 6
REMARK VINA RESULT:      -7.2      2.082      3.310
REMARK  Name = 
REMARK  4 active torsions:
REMARK  status: ('A' for Active; 'I' for Inactive)
REMARK    1  A    between atoms: C_1  and  C_2
REMARK    2  A    between atoms: C_8  and  C_9
REMARK    3  A    between atoms: C_15  and  C_16
REMARK    4  A    between atoms: C_15  and  C_17
REMARK                            x       y       z     vdW  Elec       q    Type
REMARK                         _______ _______ _______ _____ _____    ______ ____
ROOT
ATOM      1  C   UNL     1       2.677   6.873  18.432  0.00  0.00    +0.000 A 
ATOM      2  C   UNL     1       3.889   6.843  17.685  0.00  0.00    +0.000 A 
ATOM      3  C   UNL     1       4.528   5.619  17.400  0.00  0.00    +0.000 A 
ATOM      4  C   UNL     1       3.957   4.447  17.895  0.00  0.00    +0.000 A 
ATOM      5  C   UNL     1       2.798   4.470  18.626  0.00  0.00    +0.000 A 
ATOM      6  C   UNL     1       2.130   5.657  18.888  0.00  0.00    +0.000 A 
ATOM      7  C   UNL     1       2.445   3.090  19.081  0.00  0.00    +0.000 C 
ATOM      8  C   UNL     1       2.497   3.011  20.615  0.00  0.00    +0.000 C 
ATOM      9  C   UNL     1       1.076   2.651  18.544  0.00  0.00    +0.000 C 
ATOM     10  C   UNL     1       3.587   2.327  18.442  0.00  0.00    +0.000 C 
ATOM     11  O   UNL     1       3.748   1.120  18.526  0.00  0.00    +0.000 OA
ATOM     12  N   UNL     1       4.436   3.135  17.768  0.00  0.00    +0.000 N 
ATOM     13  H   UNL     1       5.284   2.838  17.264  0.00  0.00    +0.000 HD
ENDROOT
BRANCH   1  21
ATOM     14  C   UNL     1       0.952   7.439  20.952  0.00  0.00    +0.000 C 
ATOM     15  C   UNL     1       1.788   8.518  20.250  0.00  0.00    +0.000 C 
ATOM     16 SE   UNL     1       0.967  10.240  20.638  0.00  0.00    +0.000 Se
ATOM     17  C   UNL     1       0.355  10.654  18.886  0.00  0.00    +0.000 C 
ATOM     18  O   UNL     1      -0.352  11.640  18.757  0.00  0.00    +0.000 OA
ATOM     19  N   UNL     1       0.678   9.933  17.793  0.00  0.00    +0.000 N 
ATOM     20  N   UNL     1       1.442   8.788  17.790  0.00  0.00    +0.000 NA
ATOM     21  C   UNL     1       1.956   8.139  18.788  0.00  0.00    +0.000 C 
ATOM     22  H   UNL     1       0.325  10.253  16.879  0.00  0.00    +0.000 HD
ENDBRANCH   1  21
TORSDOF 1
ENDMDL
MODEL 7
REMARK VINA RESULT:      -7.1      1.131      1.283
REMARK  Name = 
REMARK  4 active torsions:
REMARK  status: ('A' for Active; 'I' for Inactive)
REMARK    1  A    between atoms: C_1  and  C_2
REMARK    2  A    between atoms: C_8  and  C_9
REMARK    3  A    between atoms: C_15  and  C_16
REMARK    4  A    between atoms: C_15  and  C_17
REMARK                            x       y       z     vdW  Elec       q    Type
REMARK                         _______ _______ _______ _____ _____    ______ ____
ROOT
ATOM      1  C   UNL     1       3.169   6.907  18.882  0.00  0.00    +0.000 A 
ATOM      2  C   UNL     1       3.067   5.690  19.614  0.00  0.00    +0.000 A 
ATOM      3  C   UNL     1       4.053   4.690  19.485  0.00  0.00    +0.000 A 
ATOM      4  C   UNL     1       5.108   4.914  18.602  0.00  0.00    +0.000 A 
ATOM      5  C   UNL     1       5.204   6.078  17.885  0.00  0.00    +0.000 A 
ATOM      6  C   UNL     1       4.269   7.093  18.021  0.00  0.00    +0.000 A 
ATOM      7  C   UNL     1       6.390   6.029  16.975  0.00  0.00    +0.000 C 
ATOM      8  C   UNL     1       5.932   6.074  15.509  0.00  0.00    +0.000 C 
ATOM      9  C   UNL     1       7.386   7.154  17.284  0.00  0.00    +0.000 C 
ATOM     10  C   UNL     1       6.926   4.664  17.353  0.00  0.00    +0.000 C 
ATOM     11  O   UNL     1       7.922   4.150  16.867  0.00  0.00    +0.000 OA
ATOM     12  N   UNL     1       6.169   4.051  18.289  0.00  0.00    +0.000 N 
ATOM     13  H   UNL     1       6.337   3.117  18.690  0.00  0.00    +0.000 HD
ENDROOT
BRANCH   1  21
ATOM     14  C   UNL     1       0.933   7.288  21.004  0.00  0.00    +0.000 C 
ATOM     15  C   UNL     1       1.642   8.462  20.315  0.00  0.00    +0.000 C 
ATOM     16 SE   UNL     1       0.425   9.981  20.348  0.00  0.00    +0.000 Se
ATOM     17  C   UNL     1       0.071  10.091  18.482  0.00  0.00    +0.000 C 
ATOM     18  O   UNL     1      -0.790  10.878  18.120  0.00  0.00    +0.000 OA
ATOM     19  N   UNL     1       0.730   9.369  17.554  0.00  0.00    +0.000 N 
ATOM     20  N   UNL     1       1.702   8.430  17.817  0.00  0.00    +0.000 NA
ATOM     21  C   UNL     1       2.149   8.004  18.957  0.00  0.00    +0.000 C 
ATOM     22  H   UNL     1       0.492   9.520  16.563  0.00  0.00    +0.000 HD
ENDBRANCH   1  21
TORSDOF 1
ENDMDL
MODEL 8
REMARK VINA RESULT:      -6.9      1.954      2.279
REMARK  Name = 
REMARK  4 active torsions:
REMARK  status: ('A' for Active; 'I' for Inactive)
REMARK    1  A    between atoms: C_1  and  C_2
REMARK    2  A    between atoms: C_8  and  C_9
REMARK    3  A    between atoms: C_15  and  C_16
REMARK    4  A    between atoms: C_15  and  C_17
REMARK                            x       y       z     vdW  Elec       q    Type
REMARK                         _______ _______ _______ _____ _____    ______ ____
ROOT
ATOM      1  C   UNL     1       2.574   6.420  18.916  0.00  0.00    +0.000 A 
ATOM      2  C   UNL     1       2.069   5.090  18.978  0.00  0.00    +0.000 A 
ATOM      3  C   UNL     1       2.735   4.037  18.318  0.00  0.00    +0.000 A 
ATOM      4  C   UNL     1       3.879   4.341  17.581  0.00  0.00    +0.000 A 
ATOM      5  C   UNL     1       4.363   5.621  17.506  0.00  0.00    +0.000 A 
ATOM      6  C   UNL     1       3.747   6.668  18.177  0.00  0.00    +0.000 A 
ATOM      7  C   UNL     1       5.555   5.673  16.606  0.00  0.00    +0.000 C 
ATOM      8  C   UNL     1       5.251   6.544  15.377  0.00  0.00    +0.000 C 
ATOM      9  C   UNL     1       6.802   6.170  17.349  0.00  0.00    +0.000 C 
ATOM     10  C   UNL     1       5.646   4.205  16.244  0.00  0.00    +0.000 C 
ATOM     11  O   UNL     1       6.491   3.724  15.505  0.00  0.00    +0.000 OA
ATOM     12  N   UNL     1       4.671   3.468  16.821  0.00  0.00    +0.000 N 
ATOM     13  H   UNL     1       4.533   2.453  16.710  0.00  0.00    +0.000 HD
ENDROOT
BRANCH   1  21
ATOM     14  C   UNL     1       2.333   9.328  17.852  0.00  0.00    +0.000 C 
ATOM     15  C   UNL     1       1.255   8.662  18.720  0.00  0.00    +0.000 C 
ATOM     16 SE   UNL     1       0.287  10.077  19.641  0.00  0.00    +0.000 Se
ATOM     17  C   UNL     1       0.866   9.699  21.413  0.00  0.00    +0.000 C 
ATOM     18  O   UNL     1       0.556  10.493  22.286  0.00  0.00    +0.000 OA
ATOM     19  N   UNL     1       1.574   8.601  21.748  0.00  0.00    +0.000 N 
ATOM     20  N   UNL     1       2.015   7.638  20.869  0.00  0.00    +0.000 NA
ATOM     21  C   UNL     1       1.907   7.589  19.578  0.00  0.00    +0.000 C 
ATOM     22  H   UNL     1       1.816   8.464  22.740  0.00  0.00    +0.000 HD
ENDBRANCH   1  21
TORSDOF 1
ENDMDL
MODEL 9
REMARK VINA RESULT:      -6.8      3.702      6.652
REMARK  Name = 
REMARK  4 active torsions:
REMARK  status: ('A' for Active; 'I' for Inactive)
REMARK    1  A    between atoms: C_1  and  C_2
REMARK    2  A    between atoms: C_8  and  C_9
REMARK    3  A    between atoms: C_15  and  C_16
REMARK    4  A    between atoms: C_15  and  C_17
REMARK                            x       y       z     vdW  Elec       q    Type
REMARK                         _______ _______ _______ _____ _____    ______ ____
ROOT
ATOM      1  C   UNL     1       2.407   6.857  19.080  0.00  0.00    +0.000 A 
ATOM      2  C   UNL     1       3.122   7.265  17.918  0.00  0.00    +0.000 A 
ATOM      3  C   UNL     1       3.029   8.589  17.445  0.00  0.00    +0.000 A 
ATOM      4  C   UNL     1       2.195   9.476  18.126  0.00  0.00    +0.000 A 
ATOM      5  C   UNL     1       1.493   9.086  19.237  0.00  0.00    +0.000 A 
ATOM      6  C   UNL     1       1.597   7.800  19.744  0.00  0.00    +0.000 A 
ATOM      7  C   UNL     1       0.637  10.209  19.728  0.00  0.00    +0.000 C 
ATOM      8  C   UNL     1      -0.848   9.829  19.610  0.00  0.00    +0.000 C 
ATOM      9  C   UNL     1       0.999  10.610  21.164  0.00  0.00    +0.000 C 
ATOM     10  C   UNL     1       1.026  11.268  18.717  0.00  0.00    +0.000 C 
ATOM     11  O   UNL     1       0.581  12.405  18.697  0.00  0.00    +0.000 OA
ATOM     12  N   UNL     1       1.923  10.815  17.813  0.00  0.00    +0.000 N 
ATOM     13  H   UNL     1       2.322  11.356  17.032  0.00  0.00    +0.000 HD
ENDROOT
BRANCH   1  21
ATOM     14  C   UNL     1       1.508   4.236  17.677  0.00  0.00    +0.000 C 
ATOM     15  C   UNL     1       2.668   4.293  18.680  0.00  0.00    +0.000 C 
ATOM     16 SE   UNL     1       2.846   2.524  19.471  0.00  0.00    +0.000 Se
ATOM     17  C   UNL     1       2.300   2.956  21.241  0.00  0.00    +0.000 C 
ATOM     18  O   UNL     1       2.153   2.032  22.025  0.00  0.00    +0.000 OA
ATOM     19  N   UNL     1       2.090   4.218  21.670  0.00  0.00    +0.000 N 
ATOM     20  N   UNL     1       2.192   5.351  20.894  0.00  0.00    +0.000 NA
ATOM     21  C   UNL     1       2.445   5.462  19.627  0.00  0.00    +0.000 C 
ATOM     22  H   UNL     1       1.826   4.358  22.656  0.00  0.00    +0.000 HD
ENDBRANCH   1  21
TORSDOF 1
ENDMDL
