MODEL 1
REMARK VINA RESULT:      -8.8      0.000      0.000
REMARK  Name = 
REMARK  7 active torsions:
REMARK  status: ('A' for Active; 'I' for Inactive)
REMARK    1  A    between atoms: C_2  and  C_27
REMARK    2  A    between atoms: N_3  and  C_4
REMARK    3  A    between atoms: C_4  and  C_5
REMARK    4  A    between atoms: C_4  and  C_23
REMARK    5  A    between atoms: C_8  and  N_9
REMARK    6  A    between atoms: C_10  and  C_12
REMARK    7  A    between atoms: C_14  and  C_15
REMARK                            x       y       z     vdW  Elec       q    Type
REMARK                         _______ _______ _______ _____ _____    ______ ____
ROOT
ATOM      1  C   UNL     1       0.914   9.159  19.773  0.00  0.00    +0.000 A 
ATOM      2  C   UNL     1       1.515   8.025  20.338  0.00  0.00    +0.000 A 
ATOM      3  C   UNL     1       2.477   7.297  19.632  0.00  0.00    +0.000 A 
ATOM      4  C   UNL     1       2.887   7.698  18.362  0.00  0.00    +0.000 A 
ATOM      5  C   UNL     1       2.273   8.813  17.782  0.00  0.00    +0.000 A 
ATOM      6  C   UNL     1       1.290   9.531  18.475  0.00  0.00    +0.000 A 
ENDROOT
BRANCH   4   7
ATOM      7  N   UNL     1       3.921   7.066  17.639  0.00  0.00    +0.000 N 
ATOM      8  C   UNL     1       4.017   5.724  17.341  0.00  0.00    +0.000 C 
ATOM      9  O   UNL     1       3.203   4.848  17.596  0.00  0.00    +0.000 OA
ATOM     10  H   UNL     1       4.686   7.661  17.343  0.00  0.00    +0.000 HD
BRANCH   8  11
ATOM     11  C   UNL     1       5.281   5.360  16.637  0.00  0.00    +0.000 C 
ATOM     12  C   UNL     1       6.088   4.169  17.090  0.00  0.00    +0.000 C 
ATOM     13  C   UNL     1       5.322   4.088  15.794  0.00  0.00    +0.000 C 
BRANCH  13  14
ATOM     14  C   UNL     1       5.969   4.189  14.438  0.00  0.00    +0.000 A 
ATOM     15  C   UNL     1       5.546   3.461  13.320  0.00  0.00    +0.000 A 
ATOM     16  C   UNL     1       6.210   3.583  12.101  0.00  0.00    +0.000 A 
ATOM     17  C   UNL     1       7.287   4.448  12.023  0.00  0.00    +0.000 A 
ATOM     18  N   UNL     1       7.727   5.188  13.061  0.00  0.00    +0.000 NA
ATOM     19  C   UNL     1       7.056   5.044  14.228  0.00  0.00    +0.000 A 
ENDBRANCH  13  14
ENDBRANCH   8  11
ENDBRANCH   4   7
BRANCH   1  20
ATOM     20  C   UNL     1      -0.031  10.050  20.573  0.00  0.00    +0.000 C 
BRANCH  20  23
ATOM     21  O   UNL     1      -1.246  12.554  20.278  0.00  0.00    +0.000 OA
ATOM     22  C   UNL     1      -1.783  11.588  19.748  0.00  0.00    +0.000 C 
ATOM     23  N   UNL     1      -1.266  10.313  19.818  0.00  0.00    +0.000 N 
ATOM     24  H   UNL     1      -1.547   9.650  19.108  0.00  0.00    +0.000 HD
BRANCH  22  25
ATOM     25  C   UNL     1      -3.027  11.745  18.945  0.00  0.00    +0.000 A 
ATOM     26  C   UNL     1      -3.018  11.368  17.594  0.00  0.00    +0.000 A 
ATOM     27  C   UNL     1      -4.173  11.516  16.820  0.00  0.00    +0.000 A 
ATOM     28  C   UNL     1      -5.321  12.050  17.397  0.00  0.00    +0.000 A 
ATOM     29  F   UNL     1      -6.425  12.198  16.653  0.00  0.00    +0.000 F 
ATOM     30  C   UNL     1      -5.339  12.441  18.732  0.00  0.00    +0.000 A 
ATOM     31  C   UNL     1      -4.189  12.292  19.508  0.00  0.00    +0.000 A 
ENDBRANCH  22  25
ENDBRANCH  20  23
BRANCH  20  32
ATOM     32  C   UNL     1      -0.225   9.493  22.025  0.00  0.00    +0.000 C 
ATOM     33  F   UNL     1      -0.848   8.293  22.055  0.00  0.00    +0.000 F 
ATOM     34  F   UNL     1       0.956   9.318  22.673  0.00  0.00    +0.000 F 
ATOM     35  F   UNL     1      -0.951  10.356  22.778  0.00  0.00    +0.000 F 
ENDBRANCH  20  32
ENDBRANCH   1  20
TORSDOF 7
ENDMDL
MODEL 2
REMARK VINA RESULT:      -8.8      6.678     10.022
REMARK  Name = 
REMARK  7 active torsions:
REMARK  status: ('A' for Active; 'I' for Inactive)
REMARK    1  A    between atoms: C_2  and  C_27
REMARK    2  A    between atoms: N_3  and  C_4
REMARK    3  A    between atoms: C_4  and  C_5
REMARK    4  A    between atoms: C_4  and  C_23
REMARK    5  A    between atoms: C_8  and  N_9
REMARK    6  A    between atoms: C_10  and  C_12
REMARK    7  A    between atoms: C_14  and  C_15
REMARK                            x       y       z     vdW  Elec       q    Type
REMARK                         _______ _______ _______ _____ _____    ______ ____
ROOT
ATOM      1  C   UNL     1       7.014   5.494  17.405  0.00  0.00    +0.000 A 
ATOM      2  C   UNL     1       7.625   5.418  18.664  0.00  0.00    +0.000 A 
ATOM      3  C   UNL     1       8.290   6.523  19.205  0.00  0.00    +0.000 A 
ATOM      4  C   UNL     1       8.333   7.737  18.521  0.00  0.00    +0.000 A 
ATOM      5  C   UNL     1       7.747   7.811  17.254  0.00  0.00    +0.000 A 
ATOM      6  C   UNL     1       7.102   6.701  16.696  0.00  0.00    +0.000 A 
ENDROOT
BRANCH   4   7
ATOM      7  N   UNL     1       8.901   8.914  19.055  0.00  0.00    +0.000 N 
ATOM      8  C   UNL     1       8.750  10.195  18.570  0.00  0.00    +0.000 C 
ATOM      9  O   UNL     1       8.059  10.554  17.628  0.00  0.00    +0.000 OA
ATOM     10  H   UNL     1       9.508   8.791  19.857  0.00  0.00    +0.000 HD
BRANCH   8  11
ATOM     11  C   UNL     1       9.555  11.210  19.312  0.00  0.00    +0.000 C 
ATOM     12  C   UNL     1      11.060  11.131  19.318  0.00  0.00    +0.000 C 
ATOM     13  C   UNL     1      10.383  12.220  18.524  0.00  0.00    +0.000 C 
BRANCH  13  14
ATOM     14  C   UNL     1      10.316  13.656  18.973  0.00  0.00    +0.000 A 
ATOM     15  C   UNL     1      10.993  14.151  20.094  0.00  0.00    +0.000 A 
ATOM     16  C   UNL     1      10.862  15.487  20.468  0.00  0.00    +0.000 A 
ATOM     17  C   UNL     1      10.060  16.310  19.698  0.00  0.00    +0.000 A 
ATOM     18  N   UNL     1       9.401  15.893  18.599  0.00  0.00    +0.000 NA
ATOM     19  C   UNL     1       9.552  14.590  18.265  0.00  0.00    +0.000 A 
ENDBRANCH  13  14
ENDBRANCH   8  11
ENDBRANCH   4   7
BRANCH   1  20
ATOM     20  C   UNL     1       6.164   4.353  16.856  0.00  0.00    +0.000 C 
BRANCH  20  23
ATOM     21  O   UNL     1       4.087   5.847  17.991  0.00  0.00    +0.000 OA
ATOM     22  C   UNL     1       4.242   4.693  18.374  0.00  0.00    +0.000 C 
ATOM     23  N   UNL     1       5.222   3.864  17.876  0.00  0.00    +0.000 N 
ATOM     24  H   UNL     1       5.091   2.866  17.971  0.00  0.00    +0.000 HD
BRANCH  22  25
ATOM     25  C   UNL     1       3.334   4.093  19.390  0.00  0.00    +0.000 A 
ATOM     26  C   UNL     1       2.083   4.684  19.622  0.00  0.00    +0.000 A 
ATOM     27  C   UNL     1       1.220   4.142  20.578  0.00  0.00    +0.000 A 
ATOM     28  C   UNL     1       1.617   3.021  21.303  0.00  0.00    +0.000 A 
ATOM     29  F   UNL     1       0.792   2.506  22.224  0.00  0.00    +0.000 F 
ATOM     30  C   UNL     1       2.859   2.433  21.093  0.00  0.00    +0.000 A 
ATOM     31  C   UNL     1       3.723   2.971  20.137  0.00  0.00    +0.000 A 
ENDBRANCH  22  25
ENDBRANCH  20  23
BRANCH  20  32
ATOM     32  C   UNL     1       5.531   4.743  15.476  0.00  0.00    +0.000 C 
ATOM     33  F   UNL     1       4.464   3.982  15.146  0.00  0.00    +0.000 F 
ATOM     34  F   UNL     1       5.094   6.030  15.455  0.00  0.00    +0.000 F 
ATOM     35  F   UNL     1       6.444   4.632  14.480  0.00  0.00    +0.000 F 
ENDBRANCH  20  32
ENDBRANCH   1  20
TORSDOF 7
ENDMDL
MODEL 3
REMARK VINA RESULT:      -8.7      4.436     11.003
REMARK  Name = 
REMARK  7 active torsions:
REMARK  status: ('A' for Active; 'I' for Inactive)
REMARK    1  A    between atoms: C_2  and  C_27
REMARK    2  A    between atoms: N_3  and  C_4
REMARK    3  A    between atoms: C_4  and  C_5
REMARK    4  A    between atoms: C_4  and  C_23
REMARK    5  A    between atoms: C_8  and  N_9
REMARK    6  A    between atoms: C_10  and  C_12
REMARK    7  A    between atoms: C_14  and  C_15
REMARK                            x       y       z     vdW  Elec       q    Type
REMARK                         _______ _______ _______ _____ _____    ______ ____
ROOT
ATOM      1  C   UNL     1       2.344   4.840  18.828  0.00  0.00    +0.000 A 
ATOM      2  C   UNL     1       1.838   4.801  20.135  0.00  0.00    +0.000 A 
ATOM      3  C   UNL     1       1.625   5.980  20.856  0.00  0.00    +0.000 A 
ATOM      4  C   UNL     1       1.880   7.224  20.282  0.00  0.00    +0.000 A 
ATOM      5  C   UNL     1       2.409   7.269  18.989  0.00  0.00    +0.000 A 
ATOM      6  C   UNL     1       2.648   6.091  18.271  0.00  0.00    +0.000 A 
ENDROOT
BRANCH   4   7
ATOM      7  N   UNL     1       1.594   8.450  20.920  0.00  0.00    +0.000 N 
ATOM      8  C   UNL     1       0.384   8.841  21.451  0.00  0.00    +0.000 C 
ATOM      9  O   UNL     1      -0.644   8.182  21.516  0.00  0.00    +0.000 OA
ATOM     10  H   UNL     1       2.353   9.121  20.957  0.00  0.00    +0.000 HD
BRANCH   8  11
ATOM     11  C   UNL     1       0.388  10.237  21.979  0.00  0.00    +0.000 C 
ATOM     12  C   UNL     1       0.907  11.369  21.130  0.00  0.00    +0.000 C 
ATOM     13  C   UNL     1      -0.575  11.259  21.382  0.00  0.00    +0.000 C 
BRANCH  13  14
ATOM     14  C   UNL     1      -1.322  12.139  22.349  0.00  0.00    +0.000 A 
ATOM     15  C   UNL     1      -2.567  11.809  22.896  0.00  0.00    +0.000 A 
ATOM     16  C   UNL     1      -3.215  12.685  23.765  0.00  0.00    +0.000 A 
ATOM     17  C   UNL     1      -2.592  13.879  24.080  0.00  0.00    +0.000 A 
ATOM     18  N   UNL     1      -1.386  14.241  23.598  0.00  0.00    +0.000 NA
ATOM     19  C   UNL     1      -0.786  13.364  22.758  0.00  0.00    +0.000 A 
ENDBRANCH  13  14
ENDBRANCH   8  11
ENDBRANCH   4   7
BRANCH   1  20
ATOM     20  C   UNL     1       2.451   3.583  17.970  0.00  0.00    +0.000 C 
BRANCH  20  23
ATOM     21  O   UNL     1       5.216   3.992  18.130  0.00  0.00    +0.000 OA
ATOM     22  C   UNL     1       4.695   4.009  17.020  0.00  0.00    +0.000 C 
ATOM     23  N   UNL     1       3.347   3.807  16.824  0.00  0.00    +0.000 N 
ATOM     24  H   UNL     1       3.043   3.500  15.909  0.00  0.00    +0.000 HD
BRANCH  22  25
ATOM     25  C   UNL     1       5.511   4.209  15.791  0.00  0.00    +0.000 A 
ATOM     26  C   UNL     1       6.675   4.987  15.864  0.00  0.00    +0.000 A 
ATOM     27  C   UNL     1       7.449   5.195  14.719  0.00  0.00    +0.000 A 
ATOM     28  C   UNL     1       7.049   4.635  13.509  0.00  0.00    +0.000 A 
ATOM     29  F   UNL     1       7.788   4.841  12.412  0.00  0.00    +0.000 F 
ATOM     30  C   UNL     1       5.889   3.873  13.420  0.00  0.00    +0.000 A 
ATOM     31  C   UNL     1       5.115   3.661  14.562  0.00  0.00    +0.000 A 
ENDBRANCH  22  25
ENDBRANCH  20  23
BRANCH  20  32
ATOM     32  C   UNL     1       2.778   2.332  18.856  0.00  0.00    +0.000 C 
ATOM     33  F   UNL     1       3.398   1.343  18.172  0.00  0.00    +0.000 F 
ATOM     34  F   UNL     1       3.596   2.636  19.897  0.00  0.00    +0.000 F 
ATOM     35  F   UNL     1       1.646   1.816  19.396  0.00  0.00    +0.000 F 
ENDBRANCH  20  32
ENDBRANCH   1  20
TORSDOF 7
ENDMDL
MODEL 4
REMARK VINA RESULT:      -8.7      7.024     10.136
REMARK  Name = 
REMARK  7 active torsions:
REMARK  status: ('A' for Active; 'I' for Inactive)
REMARK    1  A    between atoms: C_2  and  C_27
REMARK    2  A    between atoms: N_3  and  C_4
REMARK    3  A    between atoms: C_4  and  C_5
REMARK    4  A    between atoms: C_4  and  C_23
REMARK    5  A    between atoms: C_8  and  N_9
REMARK    6  A    between atoms: C_10  and  C_12
REMARK    7  A    between atoms: C_14  and  C_15
REMARK                            x       y       z     vdW  Elec       q    Type
REMARK                         _______ _______ _______ _____ _____    ______ ____
ROOT
ATOM      1  C   UNL     1       6.948   5.913  17.669  0.00  0.00    +0.000 A 
ATOM      2  C   UNL     1       6.864   7.100  16.927  0.00  0.00    +0.000 A 
ATOM      3  C   UNL     1       7.548   8.249  17.336  0.00  0.00    +0.000 A 
ATOM      4  C   UNL     1       8.356   8.234  18.472  0.00  0.00    +0.000 A 
ATOM      5  C   UNL     1       8.422   7.062  19.229  0.00  0.00    +0.000 A 
ATOM      6  C   UNL     1       7.720   5.914  18.839  0.00  0.00    +0.000 A 
ENDROOT
BRANCH   4   7
ATOM      7  N   UNL     1       9.147   9.329  18.881  0.00  0.00    +0.000 N 
ATOM      8  C   UNL     1       9.065  10.625  18.418  0.00  0.00    +0.000 C 
ATOM      9  O   UNL     1       8.262  11.074  17.613  0.00  0.00    +0.000 OA
ATOM     10  H   UNL     1       9.871   9.126  19.561  0.00  0.00    +0.000 HD
BRANCH   8  11
ATOM     11  C   UNL     1      10.106  11.528  18.990  0.00  0.00    +0.000 C 
ATOM     12  C   UNL     1      11.556  11.347  18.620  0.00  0.00    +0.000 C 
ATOM     13  C   UNL     1      10.800  12.533  18.075  0.00  0.00    +0.000 C 
BRANCH  13  14
ATOM     14  C   UNL     1      10.963  13.935  18.601  0.00  0.00    +0.000 A 
ATOM     15  C   UNL     1      10.042  14.963  18.366  0.00  0.00    +0.000 A 
ATOM     16  C   UNL     1      10.271  16.246  18.859  0.00  0.00    +0.000 A 
ATOM     17  C   UNL     1      11.420  16.473  19.595  0.00  0.00    +0.000 A 
ATOM     18  N   UNL     1      12.331  15.517  19.869  0.00  0.00    +0.000 NA
ATOM     19  C   UNL     1      12.075  14.283  19.374  0.00  0.00    +0.000 A 
ENDBRANCH  13  14
ENDBRANCH   8  11
ENDBRANCH   4   7
BRANCH   1  20
ATOM     20  C   UNL     1       6.329   4.611  17.170  0.00  0.00    +0.000 C 
BRANCH  20  23
ATOM     21  O   UNL     1       3.972   5.901  17.953  0.00  0.00    +0.000 OA
ATOM     22  C   UNL     1       4.230   4.817  18.462  0.00  0.00    +0.000 C 
ATOM     23  N   UNL     1       5.355   4.089  18.143  0.00  0.00    +0.000 N 
ATOM     24  H   UNL     1       5.342   3.094  18.324  0.00  0.00    +0.000 HD
BRANCH  22  25
ATOM     25  C   UNL     1       3.304   4.189  19.445  0.00  0.00    +0.000 A 
ATOM     26  C   UNL     1       3.753   3.099  20.206  0.00  0.00    +0.000 A 
ATOM     27  C   UNL     1       2.897   2.490  21.126  0.00  0.00    +0.000 A 
ATOM     28  C   UNL     1       1.596   2.963  21.270  0.00  0.00    +0.000 A 
ATOM     29  F   UNL     1       0.773   2.374  22.148  0.00  0.00    +0.000 F 
ATOM     30  C   UNL     1       1.133   4.033  20.512  0.00  0.00    +0.000 A 
ATOM     31  C   UNL     1       1.987   4.647  19.594  0.00  0.00    +0.000 A 
ENDBRANCH  22  25
ENDBRANCH  20  23
BRANCH  20  32
ATOM     32  C   UNL     1       5.807   4.769  15.701  0.00  0.00    +0.000 C 
ATOM     33  F   UNL     1       6.775   4.599  14.772  0.00  0.00    +0.000 F 
ATOM     34  F   UNL     1       4.836   3.868  15.399  0.00  0.00    +0.000 F 
ATOM     35  F   UNL     1       5.263   5.997  15.514  0.00  0.00    +0.000 F 
ENDBRANCH  20  32
ENDBRANCH   1  20
TORSDOF 7
ENDMDL
MODEL 5
REMARK VINA RESULT:      -8.7      7.197     10.140
REMARK  Name = 
REMARK  7 active torsions:
REMARK  status: ('A' for Active; 'I' for Inactive)
REMARK    1  A    between atoms: C_2  and  C_27
REMARK    2  A    between atoms: N_3  and  C_4
REMARK    3  A    between atoms: C_4  and  C_5
REMARK    4  A    between atoms: C_4  and  C_23
REMARK    5  A    between atoms: C_8  and  N_9
REMARK    6  A    between atoms: C_10  and  C_12
REMARK    7  A    between atoms: C_14  and  C_15
REMARK                            x       y       z     vdW  Elec       q    Type
REMARK                         _______ _______ _______ _____ _____    ______ ____
ROOT
ATOM      1  C   UNL     1       6.931   6.099  17.425  0.00  0.00    +0.000 A 
ATOM      2  C   UNL     1       6.612   7.345  16.868  0.00  0.00    +0.000 A 
ATOM      3  C   UNL     1       7.223   8.514  17.333  0.00  0.00    +0.000 A 
ATOM      4  C   UNL     1       8.188   8.466  18.338  0.00  0.00    +0.000 A 
ATOM      5  C   UNL     1       8.491   7.229  18.914  0.00  0.00    +0.000 A 
ATOM      6  C   UNL     1       7.864   6.058  18.471  0.00  0.00    +0.000 A 
ENDROOT
BRANCH   4   7
ATOM      7  N   UNL     1       8.910   9.594  18.781  0.00  0.00    +0.000 N 
ATOM      8  C   UNL     1       8.818  10.878  18.288  0.00  0.00    +0.000 C 
ATOM      9  O   UNL     1       8.059  11.285  17.420  0.00  0.00    +0.000 OA
ATOM     10  H   UNL     1       9.591   9.428  19.514  0.00  0.00    +0.000 HD
BRANCH   8  11
ATOM     11  C   UNL     1       9.784  11.827  18.915  0.00  0.00    +0.000 C 
ATOM     12  C   UNL     1      11.140  11.346  19.363  0.00  0.00    +0.000 C 
ATOM     13  C   UNL     1      11.038  12.226  18.143  0.00  0.00    +0.000 C 
BRANCH  13  14
ATOM     14  C   UNL     1      11.401  13.688  18.140  0.00  0.00    +0.000 A 
ATOM     15  C   UNL     1      11.224  14.529  17.036  0.00  0.00    +0.000 A 
ATOM     16  C   UNL     1      11.609  15.867  17.094  0.00  0.00    +0.000 A 
ATOM     17  C   UNL     1      12.157  16.343  18.272  0.00  0.00    +0.000 A 
ATOM     18  N   UNL     1      12.333  15.584  19.372  0.00  0.00    +0.000 NA
ATOM     19  C   UNL     1      11.947  14.290  19.279  0.00  0.00    +0.000 A 
ENDBRANCH  13  14
ENDBRANCH   8  11
ENDBRANCH   4   7
BRANCH   1  20
ATOM     20  C   UNL     1       6.387   4.797  16.843  0.00  0.00    +0.000 C 
BRANCH  20  23
ATOM     21  O   UNL     1       5.853   3.578  19.306  0.00  0.00    +0.000 OA
ATOM     22  C   UNL     1       4.901   3.891  18.601  0.00  0.00    +0.000 C 
ATOM     23  N   UNL     1       5.046   4.507  17.377  0.00  0.00    +0.000 N 
ATOM     24  H   UNL     1       4.260   5.029  17.015  0.00  0.00    +0.000 HD
BRANCH  22  25
ATOM     25  C   UNL     1       3.501   3.659  19.052  0.00  0.00    +0.000 A 
ATOM     26  C   UNL     1       2.942   2.380  18.910  0.00  0.00    +0.000 A 
ATOM     27  C   UNL     1       1.627   2.144  19.319  0.00  0.00    +0.000 A 
ATOM     28  C   UNL     1       0.876   3.188  19.853  0.00  0.00    +0.000 A 
ATOM     29  F   UNL     1      -0.386   2.962  20.238  0.00  0.00    +0.000 F 
ATOM     30  C   UNL     1       1.414   4.464  19.986  0.00  0.00    +0.000 A 
ATOM     31  C   UNL     1       2.728   4.703  19.582  0.00  0.00    +0.000 A 
ENDBRANCH  22  25
ENDBRANCH  20  23
BRANCH  20  32
ATOM     32  C   UNL     1       6.515   4.789  15.282  0.00  0.00    +0.000 C 
ATOM     33  F   UNL     1       6.366   3.558  14.742  0.00  0.00    +0.000 F 
ATOM     34  F   UNL     1       5.583   5.576  14.683  0.00  0.00    +0.000 F 
ATOM     35  F   UNL     1       7.724   5.267  14.896  0.00  0.00    +0.000 F 
ENDBRANCH  20  32
ENDBRANCH   1  20
TORSDOF 7
ENDMDL
MODEL 6
REMARK VINA RESULT:      -8.7      4.464     11.049
REMARK  Name = 
REMARK  7 active torsions:
REMARK  status: ('A' for Active; 'I' for Inactive)
REMARK    1  A    between atoms: C_2  and  C_27
REMARK    2  A    between atoms: N_3  and  C_4
REMARK    3  A    between atoms: C_4  and  C_5
REMARK    4  A    between atoms: C_4  and  C_23
REMARK    5  A    between atoms: C_8  and  N_9
REMARK    6  A    between atoms: C_10  and  C_12
REMARK    7  A    between atoms: C_14  and  C_15
REMARK                            x       y       z     vdW  Elec       q    Type
REMARK                         _______ _______ _______ _____ _____    ______ ____
ROOT
ATOM      1  C   UNL     1       2.309   4.801  18.908  0.00  0.00    +0.000 A 
ATOM      2  C   UNL     1       1.779   4.766  20.206  0.00  0.00    +0.000 A 
ATOM      3  C   UNL     1       1.569   5.947  20.926  0.00  0.00    +0.000 A 
ATOM      4  C   UNL     1       1.851   7.189  20.360  0.00  0.00    +0.000 A 
ATOM      5  C   UNL     1       2.404   7.228  19.076  0.00  0.00    +0.000 A 
ATOM      6  C   UNL     1       2.639   6.048  18.360  0.00  0.00    +0.000 A 
ENDROOT
BRANCH   4   7
ATOM      7  N   UNL     1       1.571   8.418  20.995  0.00  0.00    +0.000 N 
ATOM      8  C   UNL     1       0.373   8.800  21.558  0.00  0.00    +0.000 C 
ATOM      9  O   UNL     1      -0.645   8.130  21.660  0.00  0.00    +0.000 OA
ATOM     10  H   UNL     1       2.323   9.097  21.003  0.00  0.00    +0.000 HD
BRANCH   8  11
ATOM     11  C   UNL     1       0.377  10.200  22.073  0.00  0.00    +0.000 C 
ATOM     12  C   UNL     1       0.940  11.318  21.232  0.00  0.00    +0.000 C 
ATOM     13  C   UNL     1      -0.551  11.229  21.434  0.00  0.00    +0.000 C 
BRANCH  13  14
ATOM     14  C   UNL     1      -1.319  12.128  22.366  0.00  0.00    +0.000 A 
ATOM     15  C   UNL     1      -0.858  13.379  22.792  0.00  0.00    +0.000 A 
ATOM     16  C   UNL     1      -1.610  14.147  23.679  0.00  0.00    +0.000 A 
ATOM     17  C   UNL     1      -2.823  13.648  24.117  0.00  0.00    +0.000 A 
ATOM     18  N   UNL     1      -3.325  12.459  23.726  0.00  0.00    +0.000 NA
ATOM     19  C   UNL     1      -2.568  11.742  22.863  0.00  0.00    +0.000 A 
ENDBRANCH  13  14
ENDBRANCH   8  11
ENDBRANCH   4   7
BRANCH   1  20
ATOM     20  C   UNL     1       2.414   3.544  18.051  0.00  0.00    +0.000 C 
BRANCH  20  23
ATOM     21  O   UNL     1       5.183   3.925  18.191  0.00  0.00    +0.000 OA
ATOM     22  C   UNL     1       4.653   3.957  17.086  0.00  0.00    +0.000 C 
ATOM     23  N   UNL     1       3.302   3.770  16.899  0.00  0.00    +0.000 N 
ATOM     24  H   UNL     1       2.988   3.475  15.984  0.00  0.00    +0.000 HD
BRANCH  22  25
ATOM     25  C   UNL     1       5.461   4.160  15.852  0.00  0.00    +0.000 A 
ATOM     26  C   UNL     1       6.677   4.855  15.939  0.00  0.00    +0.000 A 
ATOM     27  C   UNL     1       7.445   5.065  14.791  0.00  0.00    +0.000 A 
ATOM     28  C   UNL     1       6.988   4.591  13.564  0.00  0.00    +0.000 A 
ATOM     29  F   UNL     1       7.722   4.799  12.463  0.00  0.00    +0.000 F 
ATOM     30  C   UNL     1       5.778   3.914  13.461  0.00  0.00    +0.000 A 
ATOM     31  C   UNL     1       5.009   3.700  14.606  0.00  0.00    +0.000 A 
ENDBRANCH  22  25
ENDBRANCH  20  23
BRANCH  20  32
ATOM     32  C   UNL     1       2.748   2.294  18.934  0.00  0.00    +0.000 C 
ATOM     33  F   UNL     1       3.568   2.579  19.971  0.00  0.00    +0.000 F 
ATOM     34  F   UNL     1       1.637   1.734  19.479  0.00  0.00    +0.000 F 
ATOM     35  F   UNL     1       3.340   1.325  18.192  0.00  0.00    +0.000 F 
ENDBRANCH  20  32
ENDBRANCH   1  20
TORSDOF 7
ENDMDL
MODEL 7
REMARK VINA RESULT:      -8.6      0.961      1.463
REMARK  Name = 
REMARK  7 active torsions:
REMARK  status: ('A' for Active; 'I' for Inactive)
REMARK    1  A    between atoms: C_2  and  C_27
REMARK    2  A    between atoms: N_3  and  C_4
REMARK    3  A    between atoms: C_4  and  C_5
REMARK    4  A    between atoms: C_4  and  C_23
REMARK    5  A    between atoms: C_8  and  N_9
REMARK    6  A    between atoms: C_10  and  C_12
REMARK    7  A    between atoms: C_14  and  C_15
REMARK                            x       y       z     vdW  Elec       q    Type
REMARK                         _______ _______ _______ _____ _____    ______ ____
ROOT
ATOM      1  C   UNL     1       1.255   8.744  19.772  0.00  0.00    +0.000 A 
ATOM      2  C   UNL     1       1.575   7.530  20.396  0.00  0.00    +0.000 A 
ATOM      3  C   UNL     1       2.324   6.557  19.727  0.00  0.00    +0.000 A 
ATOM      4  C   UNL     1       2.798   6.783  18.436  0.00  0.00    +0.000 A 
ATOM      5  C   UNL     1       2.461   7.980  17.799  0.00  0.00    +0.000 A 
ATOM      6  C   UNL     1       1.689   8.948  18.454  0.00  0.00    +0.000 A 
ENDROOT
BRANCH   4   7
ATOM      7  N   UNL     1       3.640   5.884  17.746  0.00  0.00    +0.000 N 
ATOM      8  C   UNL     1       4.934   5.546  18.078  0.00  0.00    +0.000 C 
ATOM      9  O   UNL     1       5.569   5.917  19.054  0.00  0.00    +0.000 OA
ATOM     10  H   UNL     1       3.258   5.475  16.900  0.00  0.00    +0.000 HD
BRANCH   8  11
ATOM     11  C   UNL     1       5.582   4.633  17.092  0.00  0.00    +0.000 C 
ATOM     12  C   UNL     1       4.911   3.343  16.694  0.00  0.00    +0.000 C 
ATOM     13  C   UNL     1       4.965   4.479  15.705  0.00  0.00    +0.000 C 
BRANCH  13  14
ATOM     14  C   UNL     1       5.906   4.515  14.531  0.00  0.00    +0.000 A 
ATOM     15  C   UNL     1       5.764   3.707  13.397  0.00  0.00    +0.000 A 
ATOM     16  C   UNL     1       6.690   3.773  12.358  0.00  0.00    +0.000 A 
ATOM     17  C   UNL     1       7.743   4.664  12.471  0.00  0.00    +0.000 A 
ATOM     18  N   UNL     1       7.919   5.479  13.530  0.00  0.00    +0.000 NA
ATOM     19  C   UNL     1       6.999   5.388  14.519  0.00  0.00    +0.000 A 
ENDBRANCH  13  14
ENDBRANCH   8  11
ENDBRANCH   4   7
BRANCH   1  20
ATOM     20  C   UNL     1       0.563   9.876  20.526  0.00  0.00    +0.000 C 
BRANCH  20  23
ATOM     21  O   UNL     1      -0.014  12.045  18.854  0.00  0.00    +0.000 OA
ATOM     22  C   UNL     1      -0.926  11.275  19.133  0.00  0.00    +0.000 C 
ATOM     23  N   UNL     1      -0.753  10.170  19.935  0.00  0.00    +0.000 N 
ATOM     24  H   UNL     1      -1.422   9.416  19.853  0.00  0.00    +0.000 HD
BRANCH  22  25
ATOM     25  C   UNL     1      -2.293  11.469  18.575  0.00  0.00    +0.000 A 
ATOM     26  C   UNL     1      -3.285  12.040  19.384  0.00  0.00    +0.000 A 
ATOM     27  C   UNL     1      -4.577  12.222  18.883  0.00  0.00    +0.000 A 
ATOM     28  C   UNL     1      -4.871  11.820  17.583  0.00  0.00    +0.000 A 
ATOM     29  F   UNL     1      -6.110  11.988  17.105  0.00  0.00    +0.000 F 
ATOM     30  C   UNL     1      -3.900  11.239  16.774  0.00  0.00    +0.000 A 
ATOM     31  C   UNL     1      -2.608  11.059  17.271  0.00  0.00    +0.000 A 
ENDBRANCH  22  25
ENDBRANCH  20  23
BRANCH  20  32
ATOM     32  C   UNL     1       0.572   9.603  22.069  0.00  0.00    +0.000 C 
ATOM     33  F   UNL     1       0.126  10.652  22.797  0.00  0.00    +0.000 F 
ATOM     34  F   UNL     1      -0.213   8.549  22.411  0.00  0.00    +0.000 F 
ATOM     35  F   UNL     1       1.824   9.304  22.497  0.00  0.00    +0.000 F 
ENDBRANCH  20  32
ENDBRANCH   1  20
TORSDOF 7
ENDMDL
MODEL 8
REMARK VINA RESULT:      -8.5      3.709      4.936
REMARK  Name = 
REMARK  7 active torsions:
REMARK  status: ('A' for Active; 'I' for Inactive)
REMARK    1  A    between atoms: C_2  and  C_27
REMARK    2  A    between atoms: N_3  and  C_4
REMARK    3  A    between atoms: C_4  and  C_5
REMARK    4  A    between atoms: C_4  and  C_23
REMARK    5  A    between atoms: C_8  and  N_9
REMARK    6  A    between atoms: C_10  and  C_12
REMARK    7  A    between atoms: C_14  and  C_15
REMARK                            x       y       z     vdW  Elec       q    Type
REMARK                         _______ _______ _______ _____ _____    ______ ____
ROOT
ATOM      1  C   UNL     1       0.533  10.666  20.956  0.00  0.00    +0.000 A 
ATOM      2  C   UNL     1       0.897   9.727  21.931  0.00  0.00    +0.000 A 
ATOM      3  C   UNL     1       1.486   8.511  21.570  0.00  0.00    +0.000 A 
ATOM      4  C   UNL     1       1.756   8.217  20.234  0.00  0.00    +0.000 A 
ATOM      5  C   UNL     1       1.372   9.138  19.256  0.00  0.00    +0.000 A 
ATOM      6  C   UNL     1       0.758  10.347  19.610  0.00  0.00    +0.000 A 
ENDROOT
BRANCH   4   7
ATOM      7  N   UNL     1       2.436   7.054  19.814  0.00  0.00    +0.000 N 
ATOM      8  C   UNL     1       2.099   5.750  20.107  0.00  0.00    +0.000 C 
ATOM      9  O   UNL     1       1.126   5.360  20.735  0.00  0.00    +0.000 OA
ATOM     10  H   UNL     1       3.278   7.203  19.269  0.00  0.00    +0.000 HD
BRANCH   8  11
ATOM     11  C   UNL     1       3.076   4.751  19.583  0.00  0.00    +0.000 C 
ATOM     12  C   UNL     1       2.592   3.530  18.844  0.00  0.00    +0.000 C 
ATOM     13  C   UNL     1       3.277   4.631  18.075  0.00  0.00    +0.000 C 
BRANCH  13  14
ATOM     14  C   UNL     1       4.697   4.541  17.581  0.00  0.00    +0.000 A 
ATOM     15  C   UNL     1       5.809   4.924  18.340  0.00  0.00    +0.000 A 
ATOM     16  C   UNL     1       7.094   4.840  17.808  0.00  0.00    +0.000 A 
ATOM     17  C   UNL     1       7.243   4.358  16.521  0.00  0.00    +0.000 A 
ATOM     18  N   UNL     1       6.211   3.956  15.751  0.00  0.00    +0.000 NA
ATOM     19  C   UNL     1       4.978   4.051  16.301  0.00  0.00    +0.000 A 
ENDBRANCH  13  14
ENDBRANCH   8  11
ENDBRANCH   4   7
BRANCH   1  20
ATOM     20  C   UNL     1       0.021  12.053  21.330  0.00  0.00    +0.000 C 
BRANCH  20  23
ATOM     21  O   UNL     1       2.371  13.559  21.538  0.00  0.00    +0.000 OA
ATOM     22  C   UNL     1       1.650  13.751  20.567  0.00  0.00    +0.000 C 
ATOM     23  N   UNL     1       0.477  13.059  20.357  0.00  0.00    +0.000 N 
ATOM     24  H   UNL     1       0.118  13.012  19.413  0.00  0.00    +0.000 HD
BRANCH  22  25
ATOM     25  C   UNL     1       2.025  14.732  19.512  0.00  0.00    +0.000 A 
ATOM     26  C   UNL     1       1.284  15.917  19.386  0.00  0.00    +0.000 A 
ATOM     27  C   UNL     1       1.615  16.846  18.397  0.00  0.00    +0.000 A 
ATOM     28  C   UNL     1       2.673  16.580  17.532  0.00  0.00    +0.000 A 
ATOM     29  F   UNL     1       2.985  17.468  16.580  0.00  0.00    +0.000 F 
ATOM     30  C   UNL     1       3.407  15.404  17.636  0.00  0.00    +0.000 A 
ATOM     31  C   UNL     1       3.081  14.474  18.625  0.00  0.00    +0.000 A 
ENDBRANCH  22  25
ENDBRANCH  20  23
BRANCH  20  32
ATOM     32  C   UNL     1      -1.521  12.022  21.606  0.00  0.00    +0.000 C 
ATOM     33  F   UNL     1      -2.029  13.234  21.929  0.00  0.00    +0.000 F 
ATOM     34  F   UNL     1      -2.230  11.596  20.527  0.00  0.00    +0.000 F 
ATOM     35  F   UNL     1      -1.812  11.167  22.617  0.00  0.00    +0.000 F 
ENDBRANCH  20  32
ENDBRANCH   1  20
TORSDOF 7
ENDMDL
MODEL 9
REMARK VINA RESULT:      -8.5      3.462      4.217
REMARK  Name = 
REMARK  7 active torsions:
REMARK  status: ('A' for Active; 'I' for Inactive)
REMARK    1  A    between atoms: C_2  and  C_27
REMARK    2  A    between atoms: N_3  and  C_4
REMARK    3  A    between atoms: C_4  and  C_5
REMARK    4  A    between atoms: C_4  and  C_23
REMARK    5  A    between atoms: C_8  and  N_9
REMARK    6  A    between atoms: C_10  and  C_12
REMARK    7  A    between atoms: C_14  and  C_15
REMARK                            x       y       z     vdW  Elec       q    Type
REMARK                         _______ _______ _______ _____ _____    ______ ____
ROOT
ATOM      1  C   UNL     1       1.266   9.776  19.598  0.00  0.00    +0.000 A 
ATOM      2  C   UNL     1       1.499   8.630  20.370  0.00  0.00    +0.000 A 
ATOM      3  C   UNL     1       2.163   7.525  19.830  0.00  0.00    +0.000 A 
ATOM      4  C   UNL     1       2.640   7.548  18.520  0.00  0.00    +0.000 A 
ATOM      5  C   UNL     1       2.388   8.678  17.737  0.00  0.00    +0.000 A 
ATOM      6  C   UNL     1       1.701   9.778  18.265  0.00  0.00    +0.000 A 
ENDROOT
BRANCH   4   7
ATOM      7  N   UNL     1       3.402   6.506  17.949  0.00  0.00    +0.000 N 
ATOM      8  C   UNL     1       3.933   5.417  18.606  0.00  0.00    +0.000 C 
ATOM      9  O   UNL     1       3.798   5.125  19.785  0.00  0.00    +0.000 OA
ATOM     10  H   UNL     1       3.605   6.593  16.960  0.00  0.00    +0.000 HD
BRANCH   8  11
ATOM     11  C   UNL     1       4.766   4.542  17.730  0.00  0.00    +0.000 C 
ATOM     12  C   UNL     1       4.231   3.217  17.250  0.00  0.00    +0.000 C 
ATOM     13  C   UNL     1       4.363   4.355  16.269  0.00  0.00    +0.000 C 
BRANCH  13  14
ATOM     14  C   UNL     1       5.461   4.444  15.242  0.00  0.00    +0.000 A 
ATOM     15  C   UNL     1       5.399   3.829  13.986  0.00  0.00    +0.000 A 
ATOM     16  C   UNL     1       6.466   3.930  13.095  0.00  0.00    +0.000 A 
ATOM     17  C   UNL     1       7.576   4.661  13.477  0.00  0.00    +0.000 A 
ATOM     18  N   UNL     1       7.682   5.290  14.665  0.00  0.00    +0.000 NA
ATOM     19  C   UNL     1       6.626   5.171  15.504  0.00  0.00    +0.000 A 
ENDBRANCH  13  14
ENDBRANCH   8  11
ENDBRANCH   4   7
BRANCH   1  20
ATOM     20  C   UNL     1       0.672  11.044  20.203  0.00  0.00    +0.000 C 
BRANCH  20  23
ATOM     21  O   UNL     1       1.992  13.275  21.259  0.00  0.00    +0.000 OA
ATOM     22  C   UNL     1       1.721  13.280  20.063  0.00  0.00    +0.000 C 
ATOM     23  N   UNL     1       1.084  12.232  19.436  0.00  0.00    +0.000 N 
ATOM     24  H   UNL     1       1.192  12.145  18.434  0.00  0.00    +0.000 HD
BRANCH  22  25
ATOM     25  C   UNL     1       2.109  14.423  19.192  0.00  0.00    +0.000 A 
ATOM     26  C   UNL     1       1.303  15.571  19.174  0.00  0.00    +0.000 A 
ATOM     27  C   UNL     1       1.645  16.651  18.355  0.00  0.00    +0.000 A 
ATOM     28  C   UNL     1       2.779  16.572  17.552  0.00  0.00    +0.000 A 
ATOM     29  F   UNL     1       3.102  17.604  16.763  0.00  0.00    +0.000 F 
ATOM     30  C   UNL     1       3.578  15.434  17.549  0.00  0.00    +0.000 A 
ATOM     31  C   UNL     1       3.242  14.354  18.368  0.00  0.00    +0.000 A 
ENDBRANCH  22  25
ENDBRANCH  20  23
BRANCH  20  32
ATOM     32  C   UNL     1      -0.870  10.883  20.431  0.00  0.00    +0.000 C 
ATOM     33  F   UNL     1      -1.515  10.362  19.363  0.00  0.00    +0.000 F 
ATOM     34  F   UNL     1      -1.153  10.062  21.476  0.00  0.00    +0.000 F 
ATOM     35  F   UNL     1      -1.441  12.079  20.718  0.00  0.00    +0.000 F 
ENDBRANCH  20  32
ENDBRANCH   1  20
TORSDOF 7
ENDMDL
