MODEL 1
REMARK VINA RESULT:      -8.2      0.000      0.000
REMARK  Name = 
REMARK  6 active torsions:
REMARK  status: ('A' for Active; 'I' for Inactive)
REMARK    1  A    between atoms: C_1  and  C_2
REMARK    2  A    between atoms: C_2  and  C_3
REMARK    3  A    between atoms: N_6  and  C_7
REMARK    4  A    between atoms: C_7  and  C_8
REMARK    5  A    between atoms: C_8  and  O_9
REMARK    6  A    between atoms: O_9  and  C_10
REMARK                            x       y       z     vdW  Elec       q    Type
REMARK                         _______ _______ _______ _____ _____    ______ ____
ROOT
ATOM      1  C   UNL     1      -0.288  10.026  17.624  0.00  0.00    +0.000 C 
ATOM      2  C   UNL     1       0.998  10.163  18.467  0.00  0.00    +0.000 C 
ATOM      3  C   UNL     1       1.483  11.629  18.388  0.00  0.00    +0.000 C 
ATOM      4  C   UNL     1       2.120   9.292  17.864  0.00  0.00    +0.000 C 
ATOM      5  C   UNL     1       1.925   7.831  18.223  0.00  0.00    +0.000 C 
ATOM      6  N   UNL     1       2.011   7.687  19.667  0.00  0.00    +0.000 N 
ATOM      7  C   UNL     1       1.236   8.536  20.451  0.00  0.00    +0.000 A 
ATOM      8  C   UNL     1       0.956   8.265  21.807  0.00  0.00    +0.000 A 
ATOM      9  C   UNL     1       0.172   9.096  22.598  0.00  0.00    +0.000 A 
ATOM     10  C   UNL     1      -0.362  10.254  22.052  0.00  0.00    +0.000 A 
ATOM     11 BR   UNL     1      -1.433  11.391  23.114  0.00  0.00    +0.000 Br
ATOM     12  C   UNL     1      -0.101  10.574  20.725  0.00  0.00    +0.000 A 
ATOM     13  C   UNL     1       0.707   9.744  19.915  0.00  0.00    +0.000 A 
ENDROOT
BRANCH   6  14
ATOM     14  C   UNL     1       2.652   6.471  20.191  0.00  0.00    +0.000 C 
BRANCH  14  15
ATOM     15  C   UNL     1       2.506   5.276  19.253  0.00  0.00    +0.000 C 
BRANCH  15  16
ATOM     16  O   UNL     1       3.597   4.366  19.443  0.00  0.00    +0.000 OA
BRANCH  16  17
ATOM     17  C   UNL     1       4.664   4.556  18.621  0.00  0.00    +0.000 A 
ATOM     18  C   UNL     1       5.896   5.104  19.011  0.00  0.00    +0.000 A 
ATOM     19  C   UNL     1       6.976   5.200  18.123  0.00  0.00    +0.000 A 
ATOM     20  C   UNL     1       6.744   4.830  16.801  0.00  0.00    +0.000 A 
ATOM     21  N   UNL     1       7.589   4.772  15.722  0.00  0.00    +0.000 N 
ATOM     22  C   UNL     1       6.842   4.792  14.574  0.00  0.00    +0.000 A 
ATOM     23  C   UNL     1       5.579   4.378  14.920  0.00  0.00    +0.000 A 
ATOM     24  C   UNL     1       5.490   4.404  16.341  0.00  0.00    +0.000 A 
ATOM     25  C   UNL     1       4.473   4.179  17.280  0.00  0.00    +0.000 A 
ATOM     26  H   UNL     1       8.595   4.790  15.775  0.00  0.00    +0.000 HD
ENDBRANCH  16  17
ENDBRANCH  15  16
ENDBRANCH  14  15
ENDBRANCH   6  14
TORSDOF 4
ENDMDL
MODEL 2
REMARK VINA RESULT:      -8.1      2.996      5.313
REMARK  Name = 
REMARK  6 active torsions:
REMARK  status: ('A' for Active; 'I' for Inactive)
REMARK    1  A    between atoms: C_1  and  C_2
REMARK    2  A    between atoms: C_2  and  C_3
REMARK    3  A    between atoms: N_6  and  C_7
REMARK    4  A    between atoms: C_7  and  C_8
REMARK    5  A    between atoms: C_8  and  O_9
REMARK    6  A    between atoms: O_9  and  C_10
REMARK                            x       y       z     vdW  Elec       q    Type
REMARK                         _______ _______ _______ _____ _____    ______ ____
ROOT
ATOM      1  C   UNL     1       3.042   2.903  21.442  0.00  0.00    +0.000 C 
ATOM      2  C   UNL     1       2.126   3.161  20.227  0.00  0.00    +0.000 C 
ATOM      3  C   UNL     1       0.663   2.899  20.653  0.00  0.00    +0.000 C 
ATOM      4  C   UNL     1       2.447   2.157  19.101  0.00  0.00    +0.000 C 
ATOM      5  C   UNL     1       3.707   2.559  18.357  0.00  0.00    +0.000 C 
ATOM      6  N   UNL     1       3.486   3.847  17.722  0.00  0.00    +0.000 N 
ATOM      7  C   UNL     1       2.977   4.878  18.505  0.00  0.00    +0.000 A 
ATOM      8  C   UNL     1       3.060   6.232  18.115  0.00  0.00    +0.000 A 
ATOM      9  C   UNL     1       2.569   7.274  18.894  0.00  0.00    +0.000 A 
ATOM     10  C   UNL     1       1.960   6.991  20.108  0.00  0.00    +0.000 A 
ATOM     11 BR   UNL     1       1.292   8.397  21.178  0.00  0.00    +0.000 Br
ATOM     12  C   UNL     1       1.838   5.671  20.527  0.00  0.00    +0.000 A 
ATOM     13  C   UNL     1       2.320   4.603  19.737  0.00  0.00    +0.000 A 
ENDROOT
BRANCH   6  14
ATOM     14  C   UNL     1       4.097   4.066  16.401  0.00  0.00    +0.000 C 
BRANCH  14  15
ATOM     15  C   UNL     1       5.586   3.731  16.377  0.00  0.00    +0.000 C 
BRANCH  15  16
ATOM     16  O   UNL     1       6.333   4.851  15.887  0.00  0.00    +0.000 OA
BRANCH  16  17
ATOM     17  C   UNL     1       6.932   5.614  16.840  0.00  0.00    +0.000 A 
ATOM     18  C   UNL     1       7.219   5.192  18.148  0.00  0.00    +0.000 A 
ATOM     19  C   UNL     1       7.908   6.011  19.054  0.00  0.00    +0.000 A 
ATOM     20  C   UNL     1       8.201   7.307  18.639  0.00  0.00    +0.000 A 
ATOM     21  N   UNL     1       8.886   8.318  19.264  0.00  0.00    +0.000 N 
ATOM     22  C   UNL     1       8.539   9.511  18.688  0.00  0.00    +0.000 A 
ATOM     23  C   UNL     1       8.047   9.215  17.440  0.00  0.00    +0.000 A 
ATOM     24  C   UNL     1       7.813   7.811  17.390  0.00  0.00    +0.000 A 
ATOM     25  C   UNL     1       7.258   6.926  16.454  0.00  0.00    +0.000 A 
ATOM     26  H   UNL     1       9.485   8.199  20.067  0.00  0.00    +0.000 HD
ENDBRANCH  16  17
ENDBRANCH  15  16
ENDBRANCH  14  15
ENDBRANCH   6  14
TORSDOF 4
ENDMDL
MODEL 3
REMARK VINA RESULT:      -8.1      3.553      8.080
REMARK  Name = 
REMARK  6 active torsions:
REMARK  status: ('A' for Active; 'I' for Inactive)
REMARK    1  A    between atoms: C_1  and  C_2
REMARK    2  A    between atoms: C_2  and  C_3
REMARK    3  A    between atoms: N_6  and  C_7
REMARK    4  A    between atoms: C_7  and  C_8
REMARK    5  A    between atoms: C_8  and  O_9
REMARK    6  A    between atoms: O_9  and  C_10
REMARK                            x       y       z     vdW  Elec       q    Type
REMARK                         _______ _______ _______ _____ _____    ______ ____
ROOT
ATOM      1  C   UNL     1       1.683   2.632  18.927  0.00  0.00    +0.000 C 
ATOM      2  C   UNL     1       2.802   3.444  19.615  0.00  0.00    +0.000 C 
ATOM      3  C   UNL     1       3.860   2.457  20.158  0.00  0.00    +0.000 C 
ATOM      4  C   UNL     1       2.232   4.199  20.834  0.00  0.00    +0.000 C 
ATOM      5  C   UNL     1       1.469   5.436  20.398  0.00  0.00    +0.000 C 
ATOM      6  N   UNL     1       2.389   6.344  19.733  0.00  0.00    +0.000 N 
ATOM      7  C   UNL     1       3.190   5.828  18.720  0.00  0.00    +0.000 A 
ATOM      8  C   UNL     1       3.839   6.654  17.777  0.00  0.00    +0.000 A 
ATOM      9  C   UNL     1       4.631   6.152  16.751  0.00  0.00    +0.000 A 
ATOM     10  C   UNL     1       4.812   4.782  16.635  0.00  0.00    +0.000 A 
ATOM     11 BR   UNL     1       5.883   4.086  15.244  0.00  0.00    +0.000 Br
ATOM     12  C   UNL     1       4.209   3.928  17.551  0.00  0.00    +0.000 A 
ATOM     13  C   UNL     1       3.413   4.427  18.607  0.00  0.00    +0.000 A 
ENDROOT
BRANCH   6  14
ATOM     14  C   UNL     1       2.193   7.786  19.949  0.00  0.00    +0.000 C 
BRANCH  14  15
ATOM     15  C   UNL     1       1.109   8.087  20.980  0.00  0.00    +0.000 C 
BRANCH  15  16
ATOM     16  O   UNL     1       1.134   9.477  21.327  0.00  0.00    +0.000 OA
BRANCH  16  17
ATOM     17  C   UNL     1       0.508  10.308  20.451  0.00  0.00    +0.000 A 
ATOM     18  C   UNL     1       0.591  11.709  20.468  0.00  0.00    +0.000 A 
ATOM     19  C   UNL     1      -0.023  12.498  19.485  0.00  0.00    +0.000 A 
ATOM     20  C   UNL     1      -0.815  11.839  18.548  0.00  0.00    +0.000 A 
ATOM     21  N   UNL     1      -1.502  12.312  17.460  0.00  0.00    +0.000 N 
ATOM     22  C   UNL     1      -2.470  11.405  17.118  0.00  0.00    +0.000 A 
ATOM     23  C   UNL     1      -2.084  10.200  17.651  0.00  0.00    +0.000 A 
ATOM     24  C   UNL     1      -1.032  10.454  18.577  0.00  0.00    +0.000 A 
ATOM     25  C   UNL     1      -0.289   9.678  19.479  0.00  0.00    +0.000 A 
ATOM     26  H   UNL     1      -1.360  13.216  17.036  0.00  0.00    +0.000 HD
ENDBRANCH  16  17
ENDBRANCH  15  16
ENDBRANCH  14  15
ENDBRANCH   6  14
TORSDOF 4
ENDMDL
MODEL 4
REMARK VINA RESULT:      -8.0      3.564      8.681
REMARK  Name = 
REMARK  6 active torsions:
REMARK  status: ('A' for Active; 'I' for Inactive)
REMARK    1  A    between atoms: C_1  and  C_2
REMARK    2  A    between atoms: C_2  and  C_3
REMARK    3  A    between atoms: N_6  and  C_7
REMARK    4  A    between atoms: C_7  and  C_8
REMARK    5  A    between atoms: C_8  and  O_9
REMARK    6  A    between atoms: O_9  and  C_10
REMARK                            x       y       z     vdW  Elec       q    Type
REMARK                         _______ _______ _______ _____ _____    ______ ____
ROOT
ATOM      1  C   UNL     1       2.069   2.373  18.047  0.00  0.00    +0.000 C 
ATOM      2  C   UNL     1       3.118   3.139  18.880  0.00  0.00    +0.000 C 
ATOM      3  C   UNL     1       4.196   2.136  19.352  0.00  0.00    +0.000 C 
ATOM      4  C   UNL     1       2.463   3.717  20.152  0.00  0.00    +0.000 C 
ATOM      5  C   UNL     1       1.665   4.967  19.831  0.00  0.00    +0.000 C 
ATOM      6  N   UNL     1       2.570   5.985  19.325  0.00  0.00    +0.000 N 
ATOM      7  C   UNL     1       3.438   5.628  18.297  0.00  0.00    +0.000 A 
ATOM      8  C   UNL     1       4.089   6.588  17.492  0.00  0.00    +0.000 A 
ATOM      9  C   UNL     1       4.947   6.246  16.453  0.00  0.00    +0.000 A 
ATOM     10  C   UNL     1       5.194   4.908  16.184  0.00  0.00    +0.000 A 
ATOM     11 BR   UNL     1       6.355   4.430  14.772  0.00  0.00    +0.000 Br
ATOM     12  C   UNL     1       4.591   3.925  16.960  0.00  0.00    +0.000 A 
ATOM     13  C   UNL     1       3.728   4.260  18.028  0.00  0.00    +0.000 A 
ENDROOT
BRANCH   6  14
ATOM     14  C   UNL     1       2.301   7.381  19.701  0.00  0.00    +0.000 C 
BRANCH  14  15
ATOM     15  C   UNL     1       1.268   7.502  20.819  0.00  0.00    +0.000 C 
BRANCH  15  16
ATOM     16  O   UNL     1       1.595   8.606  21.672  0.00  0.00    +0.000 OA
BRANCH  16  17
ATOM     17  C   UNL     1       0.602   9.519  21.849  0.00  0.00    +0.000 A 
ATOM     18  C   UNL     1      -0.132   9.693  23.033  0.00  0.00    +0.000 A 
ATOM     19  C   UNL     1      -1.091  10.707  23.165  0.00  0.00    +0.000 A 
ATOM     20  C   UNL     1      -1.367  11.469  22.033  0.00  0.00    +0.000 A 
ATOM     21  N   UNL     1      -2.206  12.539  21.852  0.00  0.00    +0.000 N 
ATOM     22  C   UNL     1      -2.482  12.664  20.517  0.00  0.00    +0.000 A 
ATOM     23  C   UNL     1      -1.473  12.018  19.845  0.00  0.00    +0.000 A 
ATOM     24  C   UNL     1      -0.753  11.238  20.795  0.00  0.00    +0.000 A 
ATOM     25  C   UNL     1       0.304  10.319  20.732  0.00  0.00    +0.000 A 
ATOM     26  H   UNL     1      -2.609  13.088  22.596  0.00  0.00    +0.000 HD
ENDBRANCH  16  17
ENDBRANCH  15  16
ENDBRANCH  14  15
ENDBRANCH   6  14
TORSDOF 4
ENDMDL
MODEL 5
REMARK VINA RESULT:      -7.8      3.717      8.422
REMARK  Name = 
REMARK  6 active torsions:
REMARK  status: ('A' for Active; 'I' for Inactive)
REMARK    1  A    between atoms: C_1  and  C_2
REMARK    2  A    between atoms: C_2  and  C_3
REMARK    3  A    between atoms: N_6  and  C_7
REMARK    4  A    between atoms: C_7  and  C_8
REMARK    5  A    between atoms: C_8  and  O_9
REMARK    6  A    between atoms: O_9  and  C_10
REMARK                            x       y       z     vdW  Elec       q    Type
REMARK                         _______ _______ _______ _____ _____    ______ ____
ROOT
ATOM      1  C   UNL     1       1.975   2.588  18.722  0.00  0.00    +0.000 C 
ATOM      2  C   UNL     1       3.075   3.420  19.415  0.00  0.00    +0.000 C 
ATOM      3  C   UNL     1       4.182   2.458  19.904  0.00  0.00    +0.000 C 
ATOM      4  C   UNL     1       2.503   4.112  20.670  0.00  0.00    +0.000 C 
ATOM      5  C   UNL     1       1.684   5.332  20.292  0.00  0.00    +0.000 C 
ATOM      6  N   UNL     1       2.553   6.296  19.639  0.00  0.00    +0.000 N 
ATOM      7  C   UNL     1       3.353   5.846  18.593  0.00  0.00    +0.000 A 
ATOM      8  C   UNL     1       3.949   6.728  17.667  0.00  0.00    +0.000 A 
ATOM      9  C   UNL     1       4.738   6.292  16.609  0.00  0.00    +0.000 A 
ATOM     10  C   UNL     1       4.969   4.935  16.443  0.00  0.00    +0.000 A 
ATOM     11 BR   UNL     1       6.037   4.328  15.008  0.00  0.00    +0.000 Br
ATOM     12  C   UNL     1       4.419   4.027  17.341  0.00  0.00    +0.000 A 
ATOM     13  C   UNL     1       3.627   4.459  18.429  0.00  0.00    +0.000 A 
ENDROOT
BRANCH   6  14
ATOM     14  C   UNL     1       2.306   7.722  19.907  0.00  0.00    +0.000 C 
BRANCH  14  15
ATOM     15  C   UNL     1       1.149   8.285  19.087  0.00  0.00    +0.000 C 
BRANCH  15  16
ATOM     16  O   UNL     1       1.136   9.715  19.175  0.00  0.00    +0.000 OA
BRANCH  16  17
ATOM     17  C   UNL     1      -0.062  10.304  18.909  0.00  0.00    +0.000 A 
ATOM     18  C   UNL     1      -0.732  11.191  19.765  0.00  0.00    +0.000 A 
ATOM     19  C   UNL     1      -1.929  11.818  19.391  0.00  0.00    +0.000 A 
ATOM     20  C   UNL     1      -2.488  11.438  18.173  0.00  0.00    +0.000 A 
ATOM     21  N   UNL     1      -3.607  11.886  17.519  0.00  0.00    +0.000 N 
ATOM     22  C   UNL     1      -3.998  10.938  16.611  0.00  0.00    +0.000 A 
ATOM     23  C   UNL     1      -2.896  10.161  16.356  0.00  0.00    +0.000 A 
ATOM     24  C   UNL     1      -1.920  10.456  17.350  0.00  0.00    +0.000 A 
ATOM     25  C   UNL     1      -0.651   9.957  17.680  0.00  0.00    +0.000 A 
ATOM     26  H   UNL     1      -4.098  12.740  17.735  0.00  0.00    +0.000 HD
ENDBRANCH  16  17
ENDBRANCH  15  16
ENDBRANCH  14  15
ENDBRANCH   6  14
TORSDOF 4
ENDMDL
MODEL 6
REMARK VINA RESULT:      -7.8      3.606      8.886
REMARK  Name = 
REMARK  6 active torsions:
REMARK  status: ('A' for Active; 'I' for Inactive)
REMARK    1  A    between atoms: C_1  and  C_2
REMARK    2  A    between atoms: C_2  and  C_3
REMARK    3  A    between atoms: N_6  and  C_7
REMARK    4  A    between atoms: C_7  and  C_8
REMARK    5  A    between atoms: C_8  and  O_9
REMARK    6  A    between atoms: O_9  and  C_10
REMARK                            x       y       z     vdW  Elec       q    Type
REMARK                         _______ _______ _______ _____ _____    ______ ____
ROOT
ATOM      1  C   UNL     1       2.163   2.242  18.767  0.00  0.00    +0.000 C 
ATOM      2  C   UNL     1       3.209   3.148  19.452  0.00  0.00    +0.000 C 
ATOM      3  C   UNL     1       4.368   2.260  19.960  0.00  0.00    +0.000 C 
ATOM      4  C   UNL     1       2.590   3.821  20.695  0.00  0.00    +0.000 C 
ATOM      5  C   UNL     1       1.702   4.985  20.296  0.00  0.00    +0.000 C 
ATOM      6  N   UNL     1       2.516   5.990  19.634  0.00  0.00    +0.000 N 
ATOM      7  C   UNL     1       3.347   5.574  18.598  0.00  0.00    +0.000 A 
ATOM      8  C   UNL     1       3.894   6.477  17.662  0.00  0.00    +0.000 A 
ATOM      9  C   UNL     1       4.713   6.073  16.613  0.00  0.00    +0.000 A 
ATOM     10  C   UNL     1       5.026   4.730  16.468  0.00  0.00    +0.000 A 
ATOM     11 BR   UNL     1       6.135   4.168  15.046  0.00  0.00    +0.000 Br
ATOM     12  C   UNL     1       4.525   3.804  17.376  0.00  0.00    +0.000 A 
ATOM     13  C   UNL     1       3.704   4.204  18.454  0.00  0.00    +0.000 A 
ENDROOT
BRANCH   6  14
ATOM     14  C   UNL     1       2.184   7.402  19.881  0.00  0.00    +0.000 C 
BRANCH  14  15
ATOM     15  C   UNL     1       1.178   7.583  21.014  0.00  0.00    +0.000 C 
BRANCH  15  16
ATOM     16  O   UNL     1       1.414   8.826  21.687  0.00  0.00    +0.000 OA
BRANCH  16  17
ATOM     17  C   UNL     1       0.510   9.809  21.429  0.00  0.00    +0.000 A 
ATOM     18  C   UNL     1       0.274  10.377  20.168  0.00  0.00    +0.000 A 
ATOM     19  C   UNL     1      -0.729  11.336  19.965  0.00  0.00    +0.000 A 
ATOM     20  C   UNL     1      -1.412  11.785  21.092  0.00  0.00    +0.000 A 
ATOM     21  N   UNL     1      -2.453  12.670  21.219  0.00  0.00    +0.000 N 
ATOM     22  C   UNL     1      -2.487  13.130  22.508  0.00  0.00    +0.000 A 
ATOM     23  C   UNL     1      -1.819  12.206  23.273  0.00  0.00    +0.000 A 
ATOM     24  C   UNL     1      -1.114  11.341  22.388  0.00  0.00    +0.000 A 
ATOM     25  C   UNL     1      -0.212  10.278  22.541  0.00  0.00    +0.000 A 
ATOM     26  H   UNL     1      -3.041  12.981  20.462  0.00  0.00    +0.000 HD
ENDBRANCH  16  17
ENDBRANCH  15  16
ENDBRANCH  14  15
ENDBRANCH   6  14
TORSDOF 4
ENDMDL
MODEL 7
REMARK VINA RESULT:      -7.7      3.408      8.017
REMARK  Name = 
REMARK  6 active torsions:
REMARK  status: ('A' for Active; 'I' for Inactive)
REMARK    1  A    between atoms: C_1  and  C_2
REMARK    2  A    between atoms: C_2  and  C_3
REMARK    3  A    between atoms: N_6  and  C_7
REMARK    4  A    between atoms: C_7  and  C_8
REMARK    5  A    between atoms: C_8  and  O_9
REMARK    6  A    between atoms: O_9  and  C_10
REMARK                            x       y       z     vdW  Elec       q    Type
REMARK                         _______ _______ _______ _____ _____    ______ ____
ROOT
ATOM      1  C   UNL     1       8.337   4.664  18.506  0.00  0.00    +0.000 C 
ATOM      2  C   UNL     1       7.163   5.577  18.091  0.00  0.00    +0.000 C 
ATOM      3  C   UNL     1       7.688   7.027  17.977  0.00  0.00    +0.000 C 
ATOM      4  C   UNL     1       6.083   5.582  19.193  0.00  0.00    +0.000 C 
ATOM      5  C   UNL     1       5.245   4.318  19.137  0.00  0.00    +0.000 C 
ATOM      6  N   UNL     1       4.547   4.274  17.863  0.00  0.00    +0.000 N 
ATOM      7  C   UNL     1       5.295   4.469  16.706  0.00  0.00    +0.000 A 
ATOM      8  C   UNL     1       4.821   4.097  15.430  0.00  0.00    +0.000 A 
ATOM      9  C   UNL     1       5.563   4.273  14.268  0.00  0.00    +0.000 A 
ATOM     10  C   UNL     1       6.824   4.844  14.342  0.00  0.00    +0.000 A 
ATOM     11 BR   UNL     1       7.844   5.085  12.771  0.00  0.00    +0.000 Br
ATOM     12  C   UNL     1       7.329   5.243  15.574  0.00  0.00    +0.000 A 
ATOM     13  C   UNL     1       6.578   5.084  16.761  0.00  0.00    +0.000 A 
ENDROOT
BRANCH   6  14
ATOM     14  C   UNL     1       3.183   3.723  17.856  0.00  0.00    +0.000 C 
BRANCH  14  15
ATOM     15  C   UNL     1       2.109   4.807  17.877  0.00  0.00    +0.000 C 
BRANCH  15  16
ATOM     16  O   UNL     1       2.716   6.102  17.794  0.00  0.00    +0.000 OA
BRANCH  16  17
ATOM     17  C   UNL     1       2.227   7.031  18.659  0.00  0.00    +0.000 A 
ATOM     18  C   UNL     1       1.988   6.815  20.025  0.00  0.00    +0.000 A 
ATOM     19  C   UNL     1       1.553   7.845  20.871  0.00  0.00    +0.000 A 
ATOM     20  C   UNL     1       1.258   9.069  20.278  0.00  0.00    +0.000 A 
ATOM     21  N   UNL     1       0.858  10.261  20.827  0.00  0.00    +0.000 N 
ATOM     22  C   UNL     1       0.270  11.022  19.852  0.00  0.00    +0.000 A 
ATOM     23  C   UNL     1       0.728  10.542  18.650  0.00  0.00    +0.000 A 
ATOM     24  C   UNL     1       1.355   9.287  18.897  0.00  0.00    +0.000 A 
ATOM     25  C   UNL     1       1.932   8.287  18.100  0.00  0.00    +0.000 A 
ATOM     26  H   UNL     1       0.921  10.495  21.806  0.00  0.00    +0.000 HD
ENDBRANCH  16  17
ENDBRANCH  15  16
ENDBRANCH  14  15
ENDBRANCH   6  14
TORSDOF 4
ENDMDL
MODEL 8
REMARK VINA RESULT:      -7.7      3.667      7.489
REMARK  Name = 
REMARK  6 active torsions:
REMARK  status: ('A' for Active; 'I' for Inactive)
REMARK    1  A    between atoms: C_1  and  C_2
REMARK    2  A    between atoms: C_2  and  C_3
REMARK    3  A    between atoms: N_6  and  C_7
REMARK    4  A    between atoms: C_7  and  C_8
REMARK    5  A    between atoms: C_8  and  O_9
REMARK    6  A    between atoms: O_9  and  C_10
REMARK                            x       y       z     vdW  Elec       q    Type
REMARK                         _______ _______ _______ _____ _____    ______ ____
ROOT
ATOM      1  C   UNL     1       7.897   5.816  18.645  0.00  0.00    +0.000 C 
ATOM      2  C   UNL     1       6.498   6.009  18.022  0.00  0.00    +0.000 C 
ATOM      3  C   UNL     1       6.291   7.515  17.740  0.00  0.00    +0.000 C 
ATOM      4  C   UNL     1       5.409   5.593  19.033  0.00  0.00    +0.000 C 
ATOM      5  C   UNL     1       5.276   4.083  19.099  0.00  0.00    +0.000 C 
ATOM      6  N   UNL     1       4.853   3.592  17.798  0.00  0.00    +0.000 N 
ATOM      7  C   UNL     1       5.565   4.017  16.681  0.00  0.00    +0.000 A 
ATOM      8  C   UNL     1       5.491   3.348  15.441  0.00  0.00    +0.000 A 
ATOM      9  C   UNL     1       6.208   3.752  14.320  0.00  0.00    +0.000 A 
ATOM     10  C   UNL     1       7.032   4.864  14.401  0.00  0.00    +0.000 A 
ATOM     11 BR   UNL     1       8.015   5.422  12.887  0.00  0.00    +0.000 Br
ATOM     12  C   UNL     1       7.126   5.567  15.596  0.00  0.00    +0.000 A 
ATOM     13  C   UNL     1       6.390   5.175  16.738  0.00  0.00    +0.000 A 
ENDROOT
BRANCH   6  14
ATOM     14  C   UNL     1       3.921   2.454  17.773  0.00  0.00    +0.000 C 
BRANCH  14  15
ATOM     15  C   UNL     1       2.641   2.757  16.998  0.00  0.00    +0.000 C 
BRANCH  15  16
ATOM     16  O   UNL     1       1.553   2.964  17.908  0.00  0.00    +0.000 OA
BRANCH  16  17
ATOM     17  C   UNL     1       1.629   4.096  18.658  0.00  0.00    +0.000 A 
ATOM     18  C   UNL     1       1.404   4.164  20.042  0.00  0.00    +0.000 A 
ATOM     19  C   UNL     1       1.575   5.355  20.761  0.00  0.00    +0.000 A 
ATOM     20  C   UNL     1       1.869   6.501  20.027  0.00  0.00    +0.000 A 
ATOM     21  N   UNL     1       2.129   7.786  20.431  0.00  0.00    +0.000 N 
ATOM     22  C   UNL     1       1.920   8.633  19.376  0.00  0.00    +0.000 A 
ATOM     23  C   UNL     1       2.011   7.871  18.237  0.00  0.00    +0.000 A 
ATOM     24  C   UNL     1       1.969   6.502  18.629  0.00  0.00    +0.000 A 
ATOM     25  C   UNL     1       1.941   5.273  17.954  0.00  0.00    +0.000 A 
ATOM     26  H   UNL     1       2.360   8.058  21.374  0.00  0.00    +0.000 HD
ENDBRANCH  16  17
ENDBRANCH  15  16
ENDBRANCH  14  15
ENDBRANCH   6  14
TORSDOF 4
ENDMDL
MODEL 9
REMARK VINA RESULT:      -7.6      3.375      8.184
REMARK  Name = 
REMARK  6 active torsions:
REMARK  status: ('A' for Active; 'I' for Inactive)
REMARK    1  A    between atoms: C_1  and  C_2
REMARK    2  A    between atoms: C_2  and  C_3
REMARK    3  A    between atoms: N_6  and  C_7
REMARK    4  A    between atoms: C_7  and  C_8
REMARK    5  A    between atoms: C_8  and  O_9
REMARK    6  A    between atoms: O_9  and  C_10
REMARK                            x       y       z     vdW  Elec       q    Type
REMARK                         _______ _______ _______ _____ _____    ______ ____
ROOT
ATOM      1  C   UNL     1       8.341   4.518  18.500  0.00  0.00    +0.000 C 
ATOM      2  C   UNL     1       7.241   5.528  18.110  0.00  0.00    +0.000 C 
ATOM      3  C   UNL     1       7.879   6.933  18.013  0.00  0.00    +0.000 C 
ATOM      4  C   UNL     1       6.174   5.601  19.222  0.00  0.00    +0.000 C 
ATOM      5  C   UNL     1       5.237   4.410  19.155  0.00  0.00    +0.000 C 
ATOM      6  N   UNL     1       4.527   4.442  17.888  0.00  0.00    +0.000 N 
ATOM      7  C   UNL     1       5.279   4.595  16.726  0.00  0.00    +0.000 A 
ATOM      8  C   UNL     1       4.765   4.283  15.450  0.00  0.00    +0.000 A 
ATOM      9  C   UNL     1       5.509   4.418  14.283  0.00  0.00    +0.000 A 
ATOM     10  C   UNL     1       6.813   4.885  14.353  0.00  0.00    +0.000 A 
ATOM     11 BR   UNL     1       7.836   5.069  12.776  0.00  0.00    +0.000 Br
ATOM     12  C   UNL     1       7.358   5.223  15.587  0.00  0.00    +0.000 A 
ATOM     13  C   UNL     1       6.607   5.105  16.778  0.00  0.00    +0.000 A 
ENDROOT
BRANCH   6  14
ATOM     14  C   UNL     1       3.123   4.002  17.885  0.00  0.00    +0.000 C 
BRANCH  14  15
ATOM     15  C   UNL     1       2.140   5.163  18.010  0.00  0.00    +0.000 C 
BRANCH  15  16
ATOM     16  O   UNL     1       2.848   6.409  17.992  0.00  0.00    +0.000 OA
BRANCH  16  17
ATOM     17  C   UNL     1       2.182   7.465  18.533  0.00  0.00    +0.000 A 
ATOM     18  C   UNL     1       1.721   8.580  17.817  0.00  0.00    +0.000 A 
ATOM     19  C   UNL     1       0.975   9.596  18.431  0.00  0.00    +0.000 A 
ATOM     20  C   UNL     1       0.803   9.510  19.810  0.00  0.00    +0.000 A 
ATOM     21  N   UNL     1       0.104  10.307  20.680  0.00  0.00    +0.000 N 
ATOM     22  C   UNL     1       0.580  10.102  21.948  0.00  0.00    +0.000 A 
ATOM     23  C   UNL     1       1.199   8.876  21.941  0.00  0.00    +0.000 A 
ATOM     24  C   UNL     1       1.362   8.482  20.582  0.00  0.00    +0.000 A 
ATOM     25  C   UNL     1       1.975   7.406  19.923  0.00  0.00    +0.000 A 
ATOM     26  H   UNL     1      -0.591  10.986  20.410  0.00  0.00    +0.000 HD
ENDBRANCH  16  17
ENDBRANCH  15  16
ENDBRANCH  14  15
ENDBRANCH   6  14
TORSDOF 4
ENDMDL
