MODEL 1
REMARK VINA RESULT:      -7.5      0.000      0.000
REMARK  Name = 
REMARK  3 active torsions:
REMARK  status: ('A' for Active; 'I' for Inactive)
REMARK    1  A    between atoms: C_1  and  C_2
REMARK    2  A    between atoms: C_4  and  C_5
REMARK    3  A    between atoms: C_12  and  C_13
REMARK                            x       y       z     vdW  Elec       q    Type
REMARK                         _______ _______ _______ _____ _____    ______ ____
ROOT
ATOM      1  C   UNL     1       7.456   5.642  19.350  0.00  0.00    +0.000 C 
ATOM      2  C   UNL     1       6.730   5.164  18.150  0.00  0.00    +0.000 A 
ATOM      3  N   UNL     1       7.302   5.216  16.904  0.00  0.00    +0.000 N 
ATOM      4  C   UNL     1       6.440   4.661  15.989  0.00  0.00    +0.000 A 
ATOM      5  N   UNL     1       5.329   4.287  16.600  0.00  0.00    +0.000 NA
ATOM      6  C   UNL     1       5.490   4.590  17.938  0.00  0.00    +0.000 A 
ATOM      7  H   UNL     1       8.207   5.608  16.688  0.00  0.00    +0.000 HD
ENDROOT
BRANCH   6   8
ATOM      8  C   UNL     1       4.480   4.283  18.942  0.00  0.00    +0.000 A 
ATOM      9  C   UNL     1       4.359   3.001  19.499  0.00  0.00    +0.000 A 
ATOM     10  C   UNL     1       3.359   2.710  20.431  0.00  0.00    +0.000 A 
ATOM     11  C   UNL     1       2.481   3.709  20.836  0.00  0.00    +0.000 A 
ATOM     12  C   UNL     1       2.614   4.996  20.317  0.00  0.00    +0.000 A 
ATOM     13 CL   UNL     1       1.532   6.231  20.834  0.00  0.00    +0.000 Cl
ATOM     14  C   UNL     1       3.603   5.287  19.375  0.00  0.00    +0.000 A 
ENDBRANCH   6   8
BRANCH   4  15
ATOM     15  C   UNL     1       6.737   4.566  14.561  0.00  0.00    +0.000 A 
ATOM     16  C   UNL     1       6.077   3.642  13.750  0.00  0.00    +0.000 A 
ATOM     17  C   UNL     1       6.343   3.598  12.382  0.00  0.00    +0.000 A 
ATOM     18  C   UNL     1       7.278   4.479  11.863  0.00  0.00    +0.000 A 
ATOM     19  N   UNL     1       7.952   5.378  12.611  0.00  0.00    +0.000 NA
ATOM     20  C   UNL     1       7.672   5.391  13.937  0.00  0.00    +0.000 A 
ENDBRANCH   4  15
TORSDOF 2
ENDMDL
MODEL 2
REMARK VINA RESULT:      -7.5      3.059      6.892
REMARK  Name = 
REMARK  3 active torsions:
REMARK  status: ('A' for Active; 'I' for Inactive)
REMARK    1  A    between atoms: C_1  and  C_2
REMARK    2  A    between atoms: C_4  and  C_5
REMARK    3  A    between atoms: C_12  and  C_13
REMARK                            x       y       z     vdW  Elec       q    Type
REMARK                         _______ _______ _______ _____ _____    ______ ____
ROOT
ATOM      1  C   UNL     1       7.851   4.638  17.631  0.00  0.00    +0.000 C 
ATOM      2  C   UNL     1       6.410   4.419  17.365  0.00  0.00    +0.000 A 
ATOM      3  N   UNL     1       5.497   4.368  18.387  0.00  0.00    +0.000 N 
ATOM      4  C   UNL     1       4.238   4.213  17.859  0.00  0.00    +0.000 A 
ATOM      5  N   UNL     1       4.318   4.130  16.543  0.00  0.00    +0.000 NA
ATOM      6  C   UNL     1       5.654   4.257  16.218  0.00  0.00    +0.000 A 
ATOM      7  H   UNL     1       5.713   4.425  19.372  0.00  0.00    +0.000 HD
ENDROOT
BRANCH   6   8
ATOM      8  C   UNL     1       6.134   4.256  14.842  0.00  0.00    +0.000 A 
ATOM      9  C   UNL     1       7.200   5.072  14.431  0.00  0.00    +0.000 A 
ATOM     10  C   UNL     1       7.622   5.092  13.100  0.00  0.00    +0.000 A 
ATOM     11  C   UNL     1       6.997   4.274  12.164  0.00  0.00    +0.000 A 
ATOM     12  C   UNL     1       5.961   3.433  12.568  0.00  0.00    +0.000 A 
ATOM     13 CL   UNL     1       5.202   2.413  11.407  0.00  0.00    +0.000 Cl
ATOM     14  C   UNL     1       5.527   3.420  13.895  0.00  0.00    +0.000 A 
ENDBRANCH   6   8
BRANCH   4  15
ATOM     15  C   UNL     1       3.032   4.112  18.679  0.00  0.00    +0.000 A 
ATOM     16  C   UNL     1       2.067   3.137  18.420  0.00  0.00    +0.000 A 
ATOM     17  C   UNL     1       0.944   3.029  19.240  0.00  0.00    +0.000 A 
ATOM     18  C   UNL     1       0.813   3.914  20.298  0.00  0.00    +0.000 A 
ATOM     19  N   UNL     1       1.712   4.882  20.577  0.00  0.00    +0.000 NA
ATOM     20  C   UNL     1       2.788   4.961  19.757  0.00  0.00    +0.000 A 
ENDBRANCH   4  15
TORSDOF 2
ENDMDL
MODEL 3
REMARK VINA RESULT:      -7.5      3.063      6.966
REMARK  Name = 
REMARK  3 active torsions:
REMARK  status: ('A' for Active; 'I' for Inactive)
REMARK    1  A    between atoms: C_1  and  C_2
REMARK    2  A    between atoms: C_4  and  C_5
REMARK    3  A    between atoms: C_12  and  C_13
REMARK                            x       y       z     vdW  Elec       q    Type
REMARK                         _______ _______ _______ _____ _____    ______ ____
ROOT
ATOM      1  C   UNL     1       7.758   4.627  17.704  0.00  0.00    +0.000 C 
ATOM      2  C   UNL     1       6.337   4.320  17.416  0.00  0.00    +0.000 A 
ATOM      3  N   UNL     1       5.418   4.194  18.427  0.00  0.00    +0.000 N 
ATOM      4  C   UNL     1       4.177   3.967  17.881  0.00  0.00    +0.000 A 
ATOM      5  N   UNL     1       4.278   3.911  16.564  0.00  0.00    +0.000 NA
ATOM      6  C   UNL     1       5.606   4.129  16.258  0.00  0.00    +0.000 A 
ATOM      7  H   UNL     1       5.618   4.248  19.414  0.00  0.00    +0.000 HD
ENDROOT
BRANCH   6   8
ATOM      8  C   UNL     1       6.101   4.181  14.888  0.00  0.00    +0.000 A 
ATOM      9  C   UNL     1       7.166   5.018  14.520  0.00  0.00    +0.000 A 
ATOM     10  C   UNL     1       7.602   5.089  13.194  0.00  0.00    +0.000 A 
ATOM     11  C   UNL     1       6.992   4.303  12.223  0.00  0.00    +0.000 A 
ATOM     12  C   UNL     1       5.957   3.442  12.583  0.00  0.00    +0.000 A 
ATOM     13 CL   UNL     1       5.217   2.461  11.378  0.00  0.00    +0.000 Cl
ATOM     14  C   UNL     1       5.509   3.378  13.904  0.00  0.00    +0.000 A 
ENDBRANCH   6   8
BRANCH   4  15
ATOM     15  C   UNL     1       2.971   3.775  18.683  0.00  0.00    +0.000 A 
ATOM     16  C   UNL     1       2.674   4.628  19.748  0.00  0.00    +0.000 A 
ATOM     17  C   UNL     1       1.495   4.454  20.474  0.00  0.00    +0.000 A 
ATOM     18  C   UNL     1       0.646   3.420  20.117  0.00  0.00    +0.000 A 
ATOM     19  N   UNL     1       0.900   2.562  19.105  0.00  0.00    +0.000 NA
ATOM     20  C   UNL     1       2.055   2.756  18.424  0.00  0.00    +0.000 A 
ENDBRANCH   4  15
TORSDOF 2
ENDMDL
MODEL 4
REMARK VINA RESULT:      -7.4      3.025      6.905
REMARK  Name = 
REMARK  3 active torsions:
REMARK  status: ('A' for Active; 'I' for Inactive)
REMARK    1  A    between atoms: C_1  and  C_2
REMARK    2  A    between atoms: C_4  and  C_5
REMARK    3  A    between atoms: C_12  and  C_13
REMARK                            x       y       z     vdW  Elec       q    Type
REMARK                         _______ _______ _______ _____ _____    ______ ____
ROOT
ATOM      1  C   UNL     1       7.237   6.470  17.094  0.00  0.00    +0.000 C 
ATOM      2  C   UNL     1       6.154   5.461  17.041  0.00  0.00    +0.000 A 
ATOM      3  N   UNL     1       5.337   5.236  18.120  0.00  0.00    +0.000 N 
ATOM      4  C   UNL     1       4.391   4.299  17.781  0.00  0.00    +0.000 A 
ATOM      5  N   UNL     1       4.595   3.895  16.540  0.00  0.00    +0.000 NA
ATOM      6  C   UNL     1       5.681   4.604  16.065  0.00  0.00    +0.000 A 
ATOM      7  H   UNL     1       5.420   5.680  19.023  0.00  0.00    +0.000 HD
ENDROOT
BRANCH   6   8
ATOM      8  C   UNL     1       6.183   4.458  14.705  0.00  0.00    +0.000 A 
ATOM      9  C   UNL     1       7.316   5.154  14.258  0.00  0.00    +0.000 A 
ATOM     10  C   UNL     1       7.763   5.036  12.939  0.00  0.00    +0.000 A 
ATOM     11  C   UNL     1       7.092   4.198  12.055  0.00  0.00    +0.000 A 
ATOM     12  C   UNL     1       5.986   3.473  12.498  0.00  0.00    +0.000 A 
ATOM     13 CL   UNL     1       5.170   2.426  11.402  0.00  0.00    +0.000 Cl
ATOM     14  C   UNL     1       5.529   3.599  13.811  0.00  0.00    +0.000 A 
ENDBRANCH   6   8
BRANCH   4  15
ATOM     15  C   UNL     1       3.367   3.821  18.709  0.00  0.00    +0.000 A 
ATOM     16  C   UNL     1       2.010   3.998  18.433  0.00  0.00    +0.000 A 
ATOM     17  C   UNL     1       1.048   3.496  19.309  0.00  0.00    +0.000 A 
ATOM     18  C   UNL     1       1.475   2.836  20.450  0.00  0.00    +0.000 A 
ATOM     19  N   UNL     1       2.775   2.656  20.765  0.00  0.00    +0.000 NA
ATOM     20  C   UNL     1       3.683   3.160  19.895  0.00  0.00    +0.000 A 
ENDBRANCH   4  15
TORSDOF 2
ENDMDL
MODEL 5
REMARK VINA RESULT:      -7.4      1.076      1.617
REMARK  Name = 
REMARK  3 active torsions:
REMARK  status: ('A' for Active; 'I' for Inactive)
REMARK    1  A    between atoms: C_1  and  C_2
REMARK    2  A    between atoms: C_4  and  C_5
REMARK    3  A    between atoms: C_12  and  C_13
REMARK                            x       y       z     vdW  Elec       q    Type
REMARK                         _______ _______ _______ _____ _____    ______ ____
ROOT
ATOM      1  C   UNL     1       7.211   5.543  19.329  0.00  0.00    +0.000 C 
ATOM      2  C   UNL     1       6.429   5.257  18.104  0.00  0.00    +0.000 A 
ATOM      3  N   UNL     1       7.046   5.062  16.894  0.00  0.00    +0.000 N 
ATOM      4  C   UNL     1       6.097   4.760  15.947  0.00  0.00    +0.000 A 
ATOM      5  N   UNL     1       4.897   4.787  16.501  0.00  0.00    +0.000 NA
ATOM      6  C   UNL     1       5.082   5.092  17.835  0.00  0.00    +0.000 A 
ATOM      7  H   UNL     1       8.037   5.137  16.721  0.00  0.00    +0.000 HD
ENDROOT
BRANCH   6   8
ATOM      8  C   UNL     1       3.980   5.170  18.785  0.00  0.00    +0.000 A 
ATOM      9  C   UNL     1       3.207   6.333  18.924  0.00  0.00    +0.000 A 
ATOM     10  C   UNL     1       2.180   6.408  19.868  0.00  0.00    +0.000 A 
ATOM     11  C   UNL     1       1.897   5.308  20.671  0.00  0.00    +0.000 A 
ATOM     12  C   UNL     1       2.635   4.135  20.517  0.00  0.00    +0.000 A 
ATOM     13 CL   UNL     1       2.269   2.772  21.503  0.00  0.00    +0.000 Cl
ATOM     14  C   UNL     1       3.671   4.061  19.584  0.00  0.00    +0.000 A 
ENDBRANCH   6   8
BRANCH   4  15
ATOM     15  C   UNL     1       6.417   4.504  14.544  0.00  0.00    +0.000 A 
ATOM     16  C   UNL     1       5.648   3.622  13.782  0.00  0.00    +0.000 A 
ATOM     17  C   UNL     1       5.943   3.425  12.433  0.00  0.00    +0.000 A 
ATOM     18  C   UNL     1       7.013   4.113  11.884  0.00  0.00    +0.000 A 
ATOM     19  N   UNL     1       7.792   4.962  12.586  0.00  0.00    +0.000 NA
ATOM     20  C   UNL     1       7.481   5.127  13.895  0.00  0.00    +0.000 A 
ENDBRANCH   4  15
TORSDOF 2
ENDMDL
MODEL 6
REMARK VINA RESULT:      -7.4      3.112      6.903
REMARK  Name = 
REMARK  3 active torsions:
REMARK  status: ('A' for Active; 'I' for Inactive)
REMARK    1  A    between atoms: C_1  and  C_2
REMARK    2  A    between atoms: C_4  and  C_5
REMARK    3  A    between atoms: C_12  and  C_13
REMARK                            x       y       z     vdW  Elec       q    Type
REMARK                         _______ _______ _______ _____ _____    ______ ____
ROOT
ATOM      1  C   UNL     1       7.730   4.675  17.568  0.00  0.00    +0.000 C 
ATOM      2  C   UNL     1       6.318   4.307  17.317  0.00  0.00    +0.000 A 
ATOM      3  N   UNL     1       5.430   4.144  18.351  0.00  0.00    +0.000 N 
ATOM      4  C   UNL     1       4.187   3.864  17.837  0.00  0.00    +0.000 A 
ATOM      5  N   UNL     1       4.256   3.810  16.519  0.00  0.00    +0.000 NA
ATOM      6  C   UNL     1       5.566   4.082  16.178  0.00  0.00    +0.000 A 
ATOM      7  H   UNL     1       5.653   4.210  19.333  0.00  0.00    +0.000 HD
ENDROOT
BRANCH   6   8
ATOM      8  C   UNL     1       6.023   4.153  14.796  0.00  0.00    +0.000 A 
ATOM      9  C   UNL     1       5.392   3.430  13.773  0.00  0.00    +0.000 A 
ATOM     10  C   UNL     1       5.866   3.474  12.459  0.00  0.00    +0.000 A 
ATOM     11  C   UNL     1       6.966   4.267  12.148  0.00  0.00    +0.000 A 
ATOM     12  C   UNL     1       7.578   5.018  13.150  0.00  0.00    +0.000 A 
ATOM     13 CL   UNL     1       8.931   6.008  12.754  0.00  0.00    +0.000 Cl
ATOM     14  C   UNL     1       7.116   4.965  14.466  0.00  0.00    +0.000 A 
ENDBRANCH   6   8
BRANCH   4  15
ATOM     15  C   UNL     1       3.010   3.623  18.670  0.00  0.00    +0.000 A 
ATOM     16  C   UNL     1       1.915   2.911  18.178  0.00  0.00    +0.000 A 
ATOM     17  C   UNL     1       0.821   2.654  19.004  0.00  0.00    +0.000 A 
ATOM     18  C   UNL     1       0.850   3.129  20.304  0.00  0.00    +0.000 A 
ATOM     19  N   UNL     1       1.879   3.835  20.818  0.00  0.00    +0.000 NA
ATOM     20  C   UNL     1       2.924   4.071  19.988  0.00  0.00    +0.000 A 
ENDBRANCH   4  15
TORSDOF 2
ENDMDL
MODEL 7
REMARK VINA RESULT:      -7.3      0.659      1.102
REMARK  Name = 
REMARK  3 active torsions:
REMARK  status: ('A' for Active; 'I' for Inactive)
REMARK    1  A    between atoms: C_1  and  C_2
REMARK    2  A    between atoms: C_4  and  C_5
REMARK    3  A    between atoms: C_12  and  C_13
REMARK                            x       y       z     vdW  Elec       q    Type
REMARK                         _______ _______ _______ _____ _____    ______ ____
ROOT
ATOM      1  C   UNL     1       7.462   5.619  19.283  0.00  0.00    +0.000 C 
ATOM      2  C   UNL     1       6.714   5.139  18.098  0.00  0.00    +0.000 A 
ATOM      3  N   UNL     1       7.263   5.188  16.841  0.00  0.00    +0.000 N 
ATOM      4  C   UNL     1       6.385   4.630  15.944  0.00  0.00    +0.000 A 
ATOM      5  N   UNL     1       5.285   4.259  16.575  0.00  0.00    +0.000 NA
ATOM      6  C   UNL     1       5.470   4.564  17.909  0.00  0.00    +0.000 A 
ATOM      7  H   UNL     1       8.164   5.578  16.608  0.00  0.00    +0.000 HD
ENDROOT
BRANCH   6   8
ATOM      8  C   UNL     1       4.478   4.260  18.932  0.00  0.00    +0.000 A 
ATOM      9  C   UNL     1       4.385   2.987  19.515  0.00  0.00    +0.000 A 
ATOM     10  C   UNL     1       3.402   2.698  20.465  0.00  0.00    +0.000 A 
ATOM     11  C   UNL     1       2.513   3.690  20.863  0.00  0.00    +0.000 A 
ATOM     12  C   UNL     1       2.618   4.969  20.317  0.00  0.00    +0.000 A 
ATOM     13 CL   UNL     1       1.523   6.196  20.826  0.00  0.00    +0.000 Cl
ATOM     14  C   UNL     1       3.590   5.258  19.358  0.00  0.00    +0.000 A 
ENDBRANCH   6   8
BRANCH   4  15
ATOM     15  C   UNL     1       6.657   4.532  14.511  0.00  0.00    +0.000 A 
ATOM     16  C   UNL     1       7.606   5.354  13.902  0.00  0.00    +0.000 A 
ATOM     17  C   UNL     1       7.882   5.214  12.542  0.00  0.00    +0.000 A 
ATOM     18  C   UNL     1       7.188   4.256  11.823  0.00  0.00    +0.000 A 
ATOM     19  N   UNL     1       6.251   3.450  12.366  0.00  0.00    +0.000 NA
ATOM     20  C   UNL     1       6.004   3.615  13.688  0.00  0.00    +0.000 A 
ENDBRANCH   4  15
TORSDOF 2
ENDMDL
MODEL 8
REMARK VINA RESULT:      -7.3      3.084      6.957
REMARK  Name = 
REMARK  3 active torsions:
REMARK  status: ('A' for Active; 'I' for Inactive)
REMARK    1  A    between atoms: C_1  and  C_2
REMARK    2  A    between atoms: C_4  and  C_5
REMARK    3  A    between atoms: C_12  and  C_13
REMARK                            x       y       z     vdW  Elec       q    Type
REMARK                         _______ _______ _______ _____ _____    ______ ____
ROOT
ATOM      1  C   UNL     1       7.700   4.656  17.584  0.00  0.00    +0.000 C 
ATOM      2  C   UNL     1       6.290   4.292  17.312  0.00  0.00    +0.000 A 
ATOM      3  N   UNL     1       5.387   4.127  18.332  0.00  0.00    +0.000 N 
ATOM      4  C   UNL     1       4.151   3.851  17.799  0.00  0.00    +0.000 A 
ATOM      5  N   UNL     1       4.239   3.801  16.482  0.00  0.00    +0.000 NA
ATOM      6  C   UNL     1       5.555   4.072  16.161  0.00  0.00    +0.000 A 
ATOM      7  H   UNL     1       5.596   4.189  19.317  0.00  0.00    +0.000 HD
ENDROOT
BRANCH   6   8
ATOM      8  C   UNL     1       6.031   4.146  14.786  0.00  0.00    +0.000 A 
ATOM      9  C   UNL     1       5.429   3.408  13.755  0.00  0.00    +0.000 A 
ATOM     10  C   UNL     1       5.922   3.456  12.449  0.00  0.00    +0.000 A 
ATOM     11  C   UNL     1       7.013   4.267  12.153  0.00  0.00    +0.000 A 
ATOM     12  C   UNL     1       7.597   5.032  13.161  0.00  0.00    +0.000 A 
ATOM     13 CL   UNL     1       8.938   6.044  12.783  0.00  0.00    +0.000 Cl
ATOM     14  C   UNL     1       7.115   4.976  14.470  0.00  0.00    +0.000 A 
ENDBRANCH   6   8
BRANCH   4  15
ATOM     15  C   UNL     1       2.962   3.610  18.615  0.00  0.00    +0.000 A 
ATOM     16  C   UNL     1       2.769   4.287  19.820  0.00  0.00    +0.000 A 
ATOM     17  C   UNL     1       1.607   4.075  20.562  0.00  0.00    +0.000 A 
ATOM     18  C   UNL     1       0.669   3.178  20.077  0.00  0.00    +0.000 A 
ATOM     19  N   UNL     1       0.821   2.490  18.926  0.00  0.00    +0.000 NA
ATOM     20  C   UNL     1       1.963   2.716  18.232  0.00  0.00    +0.000 A 
ENDBRANCH   4  15
TORSDOF 2
ENDMDL
MODEL 9
REMARK VINA RESULT:      -7.3      1.561      1.747
REMARK  Name = 
REMARK  3 active torsions:
REMARK  status: ('A' for Active; 'I' for Inactive)
REMARK    1  A    between atoms: C_1  and  C_2
REMARK    2  A    between atoms: C_4  and  C_5
REMARK    3  A    between atoms: C_12  and  C_13
REMARK                            x       y       z     vdW  Elec       q    Type
REMARK                         _______ _______ _______ _____ _____    ______ ____
ROOT
ATOM      1  C   UNL     1       6.065   5.133  19.411  0.00  0.00    +0.000 C 
ATOM      2  C   UNL     1       5.623   4.768  18.045  0.00  0.00    +0.000 A 
ATOM      3  N   UNL     1       6.447   4.941  16.961  0.00  0.00    +0.000 N 
ATOM      4  C   UNL     1       5.813   4.471  15.836  0.00  0.00    +0.000 A 
ATOM      5  N   UNL     1       4.607   4.037  16.157  0.00  0.00    +0.000 NA
ATOM      6  C   UNL     1       4.472   4.212  17.520  0.00  0.00    +0.000 A 
ATOM      7  H   UNL     1       7.367   5.355  16.981  0.00  0.00    +0.000 HD
ENDROOT
BRANCH   6   8
ATOM      8  C   UNL     1       3.279   3.807  18.251  0.00  0.00    +0.000 A 
ATOM      9  C   UNL     1       2.006   3.831  17.660  0.00  0.00    +0.000 A 
ATOM     10  C   UNL     1       0.865   3.480  18.386  0.00  0.00    +0.000 A 
ATOM     11  C   UNL     1       0.988   3.074  19.711  0.00  0.00    +0.000 A 
ATOM     12  C   UNL     1       2.250   3.012  20.298  0.00  0.00    +0.000 A 
ATOM     13 CL   UNL     1       2.395   2.495  21.934  0.00  0.00    +0.000 Cl
ATOM     14  C   UNL     1       3.390   3.375  19.580  0.00  0.00    +0.000 A 
ENDBRANCH   6   8
BRANCH   4  15
ATOM     15  C   UNL     1       6.410   4.514  14.502  0.00  0.00    +0.000 A 
ATOM     16  C   UNL     1       6.003   3.627  13.504  0.00  0.00    +0.000 A 
ATOM     17  C   UNL     1       6.554   3.713  12.226  0.00  0.00    +0.000 A 
ATOM     18  C   UNL     1       7.512   4.684  11.984  0.00  0.00    +0.000 A 
ATOM     19  N   UNL     1       7.947   5.552  12.922  0.00  0.00    +0.000 NA
ATOM     20  C   UNL     1       7.394   5.438  14.154  0.00  0.00    +0.000 A 
ENDBRANCH   4  15
TORSDOF 2
ENDMDL
