MODEL 1
REMARK VINA RESULT:      -8.0      0.000      0.000
REMARK  Name = 
REMARK  10 active torsions:
REMARK  status: ('A' for Active; 'I' for Inactive)
REMARK    1  A    between atoms: C_1  and  O_2
REMARK    2  A    between atoms: O_2  and  C_3
REMARK    3  A    between atoms: C_7  and  C_8
REMARK    4  A    between atoms: N_11  and  C_12
REMARK    5  A    between atoms: C_12  and  C_13
REMARK    6  A    between atoms: N_15  and  C_16
REMARK    7  A    between atoms: N_15  and  C_20
REMARK    8  A    between atoms: C_16  and  C_17
REMARK    9  A    between atoms: C_17  and  C_18
REMARK   10  A    between atoms: C_17  and  C_19
REMARK                            x       y       z     vdW  Elec       q    Type
REMARK                         _______ _______ _______ _____ _____    ______ ____
ROOT
ATOM      1  C   UNL     1       7.656   5.958  17.955  0.00  0.00    +0.000 C 
ENDROOT
BRANCH   1   5
ATOM      2  C   UNL     1       8.446   9.296  18.280  0.00  0.00    +0.000 A 
ATOM      3  N   UNL     1       7.533   9.377  17.259  0.00  0.00    +0.000 NA
ATOM      4  N   UNL     1       7.053   8.154  17.076  0.00  0.00    +0.000 NA
ATOM      5  N   UNL     1       7.645   7.401  18.020  0.00  0.00    +0.000 N 
ATOM      6  N   UNL     1       8.559   8.047  18.771  0.00  0.00    +0.000 NA
BRANCH   2  11
ATOM      7  C   UNL     1      10.299  12.559  18.375  0.00  0.00    +0.000 A 
ATOM      8  C   UNL     1      10.773  12.563  19.686  0.00  0.00    +0.000 A 
ATOM      9  C   UNL     1      10.440  11.530  20.565  0.00  0.00    +0.000 A 
ATOM     10  C   UNL     1       9.650  10.465  20.128  0.00  0.00    +0.000 A 
ATOM     11  C   UNL     1       9.189  10.432  18.808  0.00  0.00    +0.000 A 
ATOM     12  C   UNL     1       9.492  11.506  17.952  0.00  0.00    +0.000 A 
BRANCH   7  14
ATOM     13  C   UNL     1      11.802  13.374  16.724  0.00  0.00    +0.000 C 
ATOM     14  O   UNL     1      10.700  13.610  17.597  0.00  0.00    +0.000 OA
ENDBRANCH   7  14
ENDBRANCH   2  11
ENDBRANCH   1   5
BRANCH   1  15
ATOM     15  C   UNL     1       6.550   5.333  18.782  0.00  0.00    +0.000 C 
ATOM     16  O   UNL     1       6.803   5.008  19.947  0.00  0.00    +0.000 OA
ATOM     17  N   UNL     1       5.238   5.209  18.271  0.00  0.00    +0.000 N 
BRANCH  17  18
ATOM     18  C   UNL     1       4.156   4.922  19.269  0.00  0.00    +0.000 C 
ATOM     19  C   UNL     1       4.202   3.509  19.909  0.00  0.00    +0.000 C 
ATOM     20  C   UNL     1       3.492   2.542  18.976  0.00  0.00    +0.000 C 
ATOM     21  S   UNL     1       2.151   3.470  18.274  0.00  0.00    +0.000 S 
ATOM     22  O   UNL     1       0.927   3.135  18.974  0.00  0.00    +0.000 OA
ATOM     23  O   UNL     1       2.250   3.422  16.835  0.00  0.00    +0.000 OA
ATOM     24  C   UNL     1       2.687   5.073  18.830  0.00  0.00    +0.000 C 
ENDBRANCH  17  18
BRANCH  17  25
ATOM     25  C   UNL     1       4.869   5.654  16.909  0.00  0.00    +0.000 C 
BRANCH  25  26
ATOM     26  C   UNL     1       5.143   4.617  15.790  0.00  0.00    +0.000 C 
ATOM     27  C   UNL     1       6.098   5.103  14.702  0.00  0.00    +0.000 C 
ATOM     28  C   UNL     1       5.689   3.323  16.404  0.00  0.00    +0.000 C 
ENDBRANCH  25  26
ENDBRANCH  17  25
ENDBRANCH   1  15
TORSDOF 7
ENDMDL
MODEL 2
REMARK VINA RESULT:      -7.9      5.006      6.800
REMARK  Name = 
REMARK  10 active torsions:
REMARK  status: ('A' for Active; 'I' for Inactive)
REMARK    1  A    between atoms: C_1  and  O_2
REMARK    2  A    between atoms: O_2  and  C_3
REMARK    3  A    between atoms: C_7  and  C_8
REMARK    4  A    between atoms: N_11  and  C_12
REMARK    5  A    between atoms: C_12  and  C_13
REMARK    6  A    between atoms: N_15  and  C_16
REMARK    7  A    between atoms: N_15  and  C_20
REMARK    8  A    between atoms: C_16  and  C_17
REMARK    9  A    between atoms: C_17  and  C_18
REMARK   10  A    between atoms: C_17  and  C_19
REMARK                            x       y       z     vdW  Elec       q    Type
REMARK                         _______ _______ _______ _____ _____    ______ ____
ROOT
ATOM      1  C   UNL     1       5.560   5.389  18.736  0.00  0.00    +0.000 C 
ENDROOT
BRANCH   1   5
ATOM      2  C   UNL     1       6.825   5.295  15.532  0.00  0.00    +0.000 A 
ATOM      3  N   UNL     1       7.642   6.257  16.071  0.00  0.00    +0.000 NA
ATOM      4  N   UNL     1       7.336   6.343  17.360  0.00  0.00    +0.000 NA
ATOM      5  N   UNL     1       6.397   5.400  17.558  0.00  0.00    +0.000 N 
ATOM      6  N   UNL     1       6.004   4.746  16.448  0.00  0.00    +0.000 NA
BRANCH   2  11
ATOM      7  C   UNL     1       5.978   3.425  12.390  0.00  0.00    +0.000 A 
ATOM      8  C   UNL     1       6.971   3.884  11.526  0.00  0.00    +0.000 A 
ATOM      9  C   UNL     1       7.886   4.852  11.945  0.00  0.00    +0.000 A 
ATOM     10  C   UNL     1       7.832   5.350  13.250  0.00  0.00    +0.000 A 
ATOM     11  C   UNL     1       6.859   4.879  14.137  0.00  0.00    +0.000 A 
ATOM     12  C   UNL     1       5.915   3.943  13.681  0.00  0.00    +0.000 A 
BRANCH   7  14
ATOM     13  C   UNL     1       3.994   2.927  11.179  0.00  0.00    +0.000 C 
ATOM     14  O   UNL     1       5.146   2.466  11.881  0.00  0.00    +0.000 OA
ENDBRANCH   7  14
ENDBRANCH   2  11
ENDBRANCH   1   5
BRANCH   1  15
ATOM     15  C   UNL     1       4.755   4.111  18.862  0.00  0.00    +0.000 C 
ATOM     16  O   UNL     1       5.293   3.130  19.386  0.00  0.00    +0.000 OA
ATOM     17  N   UNL     1       3.395   4.065  18.480  0.00  0.00    +0.000 N 
BRANCH  17  18
ATOM     18  C   UNL     1       2.602   2.890  18.972  0.00  0.00    +0.000 C 
ATOM     19  C   UNL     1       1.063   3.084  18.974  0.00  0.00    +0.000 C 
ATOM     20  C   UNL     1       0.674   3.788  20.263  0.00  0.00    +0.000 C 
ATOM     21  S   UNL     1       1.779   3.147  21.496  0.00  0.00    +0.000 S 
ATOM     22  O   UNL     1       1.090   2.129  22.265  0.00  0.00    +0.000 OA
ATOM     23  O   UNL     1       2.469   4.248  22.126  0.00  0.00    +0.000 OA
ATOM     24  C   UNL     1       2.899   2.335  20.378  0.00  0.00    +0.000 C 
ENDBRANCH  17  18
BRANCH  17  25
ATOM     25  C   UNL     1       2.686   5.236  17.918  0.00  0.00    +0.000 C 
BRANCH  25  26
ATOM     26  C   UNL     1       3.076   6.596  18.549  0.00  0.00    +0.000 C 
ATOM     27  C   UNL     1       2.916   7.792  17.614  0.00  0.00    +0.000 C 
ATOM     28  C   UNL     1       2.254   6.832  19.821  0.00  0.00    +0.000 C 
ENDBRANCH  25  26
ENDBRANCH  17  25
ENDBRANCH   1  15
TORSDOF 7
ENDMDL
MODEL 3
REMARK VINA RESULT:      -7.5      5.790      8.944
REMARK  Name = 
REMARK  10 active torsions:
REMARK  status: ('A' for Active; 'I' for Inactive)
REMARK    1  A    between atoms: C_1  and  O_2
REMARK    2  A    between atoms: O_2  and  C_3
REMARK    3  A    between atoms: C_7  and  C_8
REMARK    4  A    between atoms: N_11  and  C_12
REMARK    5  A    between atoms: C_12  and  C_13
REMARK    6  A    between atoms: N_15  and  C_16
REMARK    7  A    between atoms: N_15  and  C_20
REMARK    8  A    between atoms: C_16  and  C_17
REMARK    9  A    between atoms: C_17  and  C_18
REMARK   10  A    between atoms: C_17  and  C_19
REMARK                            x       y       z     vdW  Elec       q    Type
REMARK                         _______ _______ _______ _____ _____    ______ ____
ROOT
ATOM      1  C   UNL     1       1.918   8.300  19.416  0.00  0.00    +0.000 C 
ENDROOT
BRANCH   1   5
ATOM      2  C   UNL     1      -0.702  10.379  18.588  0.00  0.00    +0.000 A 
ATOM      3  N   UNL     1       0.068  11.258  19.308  0.00  0.00    +0.000 NA
ATOM      4  N   UNL     1       1.187  10.619  19.625  0.00  0.00    +0.000 NA
ATOM      5  N   UNL     1       1.075   9.412  19.041  0.00  0.00    +0.000 N 
ATOM      6  N   UNL     1      -0.099   9.186  18.421  0.00  0.00    +0.000 NA
BRANCH   2  11
ATOM      7  C   UNL     1      -3.531  10.588  16.130  0.00  0.00    +0.000 A 
ATOM      8  C   UNL     1      -4.416  11.426  16.808  0.00  0.00    +0.000 A 
ATOM      9  C   UNL     1      -4.123  11.877  18.096  0.00  0.00    +0.000 A 
ATOM     10  C   UNL     1      -2.919  11.516  18.708  0.00  0.00    +0.000 A 
ATOM     11  C   UNL     1      -2.008  10.700  18.031  0.00  0.00    +0.000 A 
ATOM     12  C   UNL     1      -2.344  10.214  16.755  0.00  0.00    +0.000 A 
BRANCH   7  14
ATOM     13  C   UNL     1      -2.867   9.861  13.967  0.00  0.00    +0.000 C 
ATOM     14  O   UNL     1      -3.911  10.220  14.869  0.00  0.00    +0.000 OA
ENDBRANCH   7  14
ENDBRANCH   2  11
ENDBRANCH   1   5
BRANCH   1  15
ATOM     15  C   UNL     1       2.678   7.726  18.236  0.00  0.00    +0.000 C 
ATOM     16  O   UNL     1       2.731   8.390  17.196  0.00  0.00    +0.000 OA
ATOM     17  N   UNL     1       3.390   6.510  18.349  0.00  0.00    +0.000 N 
BRANCH  17  18
ATOM     18  C   UNL     1       4.388   6.216  17.268  0.00  0.00    +0.000 C 
ATOM     19  C   UNL     1       4.453   4.735  16.810  0.00  0.00    +0.000 C 
ATOM     20  C   UNL     1       5.374   3.985  17.757  0.00  0.00    +0.000 C 
ATOM     21  S   UNL     1       6.654   5.142  18.178  0.00  0.00    +0.000 S 
ATOM     22  O   UNL     1       7.829   4.856  17.379  0.00  0.00    +0.000 OA
ATOM     23  O   UNL     1       6.714   5.272  19.614  0.00  0.00    +0.000 OA
ATOM     24  C   UNL     1       5.864   6.587  17.505  0.00  0.00    +0.000 C 
ENDBRANCH  17  18
BRANCH  17  25
ATOM     25  C   UNL     1       3.419   5.718  19.598  0.00  0.00    +0.000 C 
BRANCH  25  26
ATOM     26  C   UNL     1       2.378   4.571  19.666  0.00  0.00    +0.000 C 
ATOM     27  C   UNL     1       2.937   3.244  20.171  0.00  0.00    +0.000 C 
ATOM     28  C   UNL     1       1.197   4.995  20.548  0.00  0.00    +0.000 C 
ENDBRANCH  25  26
ENDBRANCH  17  25
ENDBRANCH   1  15
TORSDOF 7
ENDMDL
MODEL 4
REMARK VINA RESULT:      -7.5      1.501      2.075
REMARK  Name = 
REMARK  10 active torsions:
REMARK  status: ('A' for Active; 'I' for Inactive)
REMARK    1  A    between atoms: C_1  and  O_2
REMARK    2  A    between atoms: O_2  and  C_3
REMARK    3  A    between atoms: C_7  and  C_8
REMARK    4  A    between atoms: N_11  and  C_12
REMARK    5  A    between atoms: C_12  and  C_13
REMARK    6  A    between atoms: N_15  and  C_16
REMARK    7  A    between atoms: N_15  and  C_20
REMARK    8  A    between atoms: C_16  and  C_17
REMARK    9  A    between atoms: C_17  and  C_18
REMARK   10  A    between atoms: C_17  and  C_19
REMARK                            x       y       z     vdW  Elec       q    Type
REMARK                         _______ _______ _______ _____ _____    ______ ____
ROOT
ATOM      1  C   UNL     1       7.484   5.789  18.264  0.00  0.00    +0.000 C 
ENDROOT
BRANCH   1   5
ATOM      2  C   UNL     1       8.589   9.051  18.330  0.00  0.00    +0.000 A 
ATOM      3  N   UNL     1       7.760   9.114  17.238  0.00  0.00    +0.000 NA
ATOM      4  N   UNL     1       7.170   7.930  17.135  0.00  0.00    +0.000 NA
ATOM      5  N   UNL     1       7.617   7.225  18.191  0.00  0.00    +0.000 N 
ATOM      6  N   UNL     1       8.539   7.854  18.945  0.00  0.00    +0.000 NA
BRANCH   2  11
ATOM      7  C   UNL     1       9.952  11.707  20.606  0.00  0.00    +0.000 A 
ATOM      8  C   UNL     1      10.799  12.397  19.740  0.00  0.00    +0.000 A 
ATOM      9  C   UNL     1      10.977  11.963  18.425  0.00  0.00    +0.000 A 
ATOM     10  C   UNL     1      10.282  10.846  17.955  0.00  0.00    +0.000 A 
ATOM     11  C   UNL     1       9.407  10.159  18.803  0.00  0.00    +0.000 A 
ATOM     12  C   UNL     1       9.280  10.580  20.138  0.00  0.00    +0.000 A 
BRANCH   7  14
ATOM     13  C   UNL     1       9.242  13.518  21.972  0.00  0.00    +0.000 C 
ATOM     14  O   UNL     1       9.840  12.228  21.866  0.00  0.00    +0.000 OA
ENDBRANCH   7  14
ENDBRANCH   2  11
ENDBRANCH   1   5
BRANCH   1  15
ATOM     15  C   UNL     1       6.084   5.356  18.653  0.00  0.00    +0.000 C 
ATOM     16  O   UNL     1       5.575   5.860  19.660  0.00  0.00    +0.000 OA
ATOM     17  N   UNL     1       5.340   4.472  17.838  0.00  0.00    +0.000 N 
BRANCH  17  18
ATOM     18  C   UNL     1       3.866   4.393  18.109  0.00  0.00    +0.000 C 
ATOM     19  C   UNL     1       3.471   4.322  19.607  0.00  0.00    +0.000 C 
ATOM     20  C   UNL     1       3.553   2.872  20.053  0.00  0.00    +0.000 C 
ATOM     21  S   UNL     1       3.019   1.923  18.651  0.00  0.00    +0.000 S 
ATOM     22  O   UNL     1       1.636   1.531  18.844  0.00  0.00    +0.000 OA
ATOM     23  O   UNL     1       4.046   0.968  18.312  0.00  0.00    +0.000 OA
ATOM     24  C   UNL     1       3.059   3.250  17.467  0.00  0.00    +0.000 C 
ENDBRANCH  17  18
BRANCH  17  25
ATOM     25  C   UNL     1       5.880   3.903  16.584  0.00  0.00    +0.000 C 
BRANCH  25  26
ATOM     26  C   UNL     1       5.279   4.501  15.286  0.00  0.00    +0.000 C 
ATOM     27  C   UNL     1       5.263   6.027  15.246  0.00  0.00    +0.000 C 
ATOM     28  C   UNL     1       6.042   3.968  14.068  0.00  0.00    +0.000 C 
ENDBRANCH  25  26
ENDBRANCH  17  25
ENDBRANCH   1  15
TORSDOF 7
ENDMDL
MODEL 5
REMARK VINA RESULT:      -7.4      4.873      7.149
REMARK  Name = 
REMARK  10 active torsions:
REMARK  status: ('A' for Active; 'I' for Inactive)
REMARK    1  A    between atoms: C_1  and  O_2
REMARK    2  A    between atoms: O_2  and  C_3
REMARK    3  A    between atoms: C_7  and  C_8
REMARK    4  A    between atoms: N_11  and  C_12
REMARK    5  A    between atoms: C_12  and  C_13
REMARK    6  A    between atoms: N_15  and  C_16
REMARK    7  A    between atoms: N_15  and  C_20
REMARK    8  A    between atoms: C_16  and  C_17
REMARK    9  A    between atoms: C_17  and  C_18
REMARK   10  A    between atoms: C_17  and  C_19
REMARK                            x       y       z     vdW  Elec       q    Type
REMARK                         _______ _______ _______ _____ _____    ______ ____
ROOT
ATOM      1  C   UNL     1       2.867   5.074  20.148  0.00  0.00    +0.000 C 
ENDROOT
BRANCH   1   5
ATOM      2  C   UNL     1       1.370   8.161  20.466  0.00  0.00    +0.000 A 
ATOM      3  N   UNL     1       2.034   8.351  19.279  0.00  0.00    +0.000 NA
ATOM      4  N   UNL     1       2.597   7.191  18.964  0.00  0.00    +0.000 NA
ATOM      5  N   UNL     1       2.208   6.341  19.932  0.00  0.00    +0.000 N 
ATOM      6  N   UNL     1       1.481   6.898  20.920  0.00  0.00    +0.000 NA
BRANCH   2  11
ATOM      7  C   UNL     1      -0.219  11.487  21.172  0.00  0.00    +0.000 A 
ATOM      8  C   UNL     1      -0.705  11.286  22.464  0.00  0.00    +0.000 A 
ATOM      9  C   UNL     1      -0.571  10.044  23.088  0.00  0.00    +0.000 A 
ATOM     10  C   UNL     1       0.081   8.996  22.432  0.00  0.00    +0.000 A 
ATOM     11  C   UNL     1       0.599   9.190  21.147  0.00  0.00    +0.000 A 
ATOM     12  C   UNL     1       0.409  10.432  20.515  0.00  0.00    +0.000 A 
BRANCH   7  14
ATOM     13  C   UNL     1       0.702  13.290  19.926  0.00  0.00    +0.000 C 
ATOM     14  O   UNL     1      -0.390  12.746  20.664  0.00  0.00    +0.000 OA
ENDBRANCH   7  14
ENDBRANCH   2  11
ENDBRANCH   1   5
BRANCH   1  15
ATOM     15  C   UNL     1       4.148   4.944  19.347  0.00  0.00    +0.000 C 
ATOM     16  O   UNL     1       5.212   5.256  19.892  0.00  0.00    +0.000 OA
ATOM     17  N   UNL     1       4.142   4.391  18.046  0.00  0.00    +0.000 N 
BRANCH  17  18
ATOM     18  C   UNL     1       5.472   3.974  17.491  0.00  0.00    +0.000 C 
ATOM     19  C   UNL     1       6.685   4.808  17.979  0.00  0.00    +0.000 C 
ATOM     20  C   UNL     1       6.795   6.046  17.105  0.00  0.00    +0.000 C 
ATOM     21  S   UNL     1       6.313   5.514  15.481  0.00  0.00    +0.000 S 
ATOM     22  O   UNL     1       7.503   5.285  14.686  0.00  0.00    +0.000 OA
ATOM     23  O   UNL     1       5.229   6.347  15.017  0.00  0.00    +0.000 OA
ATOM     24  C   UNL     1       5.653   3.933  15.962  0.00  0.00    +0.000 C 
ENDBRANCH  17  18
BRANCH  17  25
ATOM     25  C   UNL     1       2.902   3.933  17.382  0.00  0.00    +0.000 C 
BRANCH  25  26
ATOM     26  C   UNL     1       2.504   2.466  17.688  0.00  0.00    +0.000 C 
ATOM     27  C   UNL     1       3.574   1.665  18.424  0.00  0.00    +0.000 C 
ATOM     28  C   UNL     1       1.202   2.441  18.497  0.00  0.00    +0.000 C 
ENDBRANCH  25  26
ENDBRANCH  17  25
ENDBRANCH   1  15
TORSDOF 7
ENDMDL
MODEL 6
REMARK VINA RESULT:      -7.3      1.532      2.586
REMARK  Name = 
REMARK  10 active torsions:
REMARK  status: ('A' for Active; 'I' for Inactive)
REMARK    1  A    between atoms: C_1  and  O_2
REMARK    2  A    between atoms: O_2  and  C_3
REMARK    3  A    between atoms: C_7  and  C_8
REMARK    4  A    between atoms: N_11  and  C_12
REMARK    5  A    between atoms: C_12  and  C_13
REMARK    6  A    between atoms: N_15  and  C_16
REMARK    7  A    between atoms: N_15  and  C_20
REMARK    8  A    between atoms: C_16  and  C_17
REMARK    9  A    between atoms: C_17  and  C_18
REMARK   10  A    between atoms: C_17  and  C_19
REMARK                            x       y       z     vdW  Elec       q    Type
REMARK                         _______ _______ _______ _____ _____    ______ ____
ROOT
ATOM      1  C   UNL     1       5.726   7.000  16.609  0.00  0.00    +0.000 C 
ENDROOT
BRANCH   1   5
ATOM      2  C   UNL     1       8.234   8.678  18.274  0.00  0.00    +0.000 A 
ATOM      3  N   UNL     1       8.424   7.418  18.785  0.00  0.00    +0.000 NA
ATOM      4  N   UNL     1       7.575   6.616  18.155  0.00  0.00    +0.000 NA
ATOM      5  N   UNL     1       6.953   7.402  17.258  0.00  0.00    +0.000 N 
ATOM      6  N   UNL     1       7.287   8.706  17.316  0.00  0.00    +0.000 NA
BRANCH   2  11
ATOM      7  C   UNL     1      10.395  11.738  18.043  0.00  0.00    +0.000 A 
ATOM      8  C   UNL     1      10.614  12.016  19.392  0.00  0.00    +0.000 A 
ATOM      9  C   UNL     1      10.008  11.244  20.385  0.00  0.00    +0.000 A 
ATOM     10  C   UNL     1       9.196  10.162  20.033  0.00  0.00    +0.000 A 
ATOM     11  C   UNL     1       8.989   9.852  18.685  0.00  0.00    +0.000 A 
ATOM     12  C   UNL     1       9.567  10.672  17.700  0.00  0.00    +0.000 A 
BRANCH   7  14
ATOM     13  C   UNL     1      10.893  13.952  17.338  0.00  0.00    +0.000 C 
ATOM     14  O   UNL     1      11.051  12.547  17.157  0.00  0.00    +0.000 OA
ENDBRANCH   7  14
ENDBRANCH   2  11
ENDBRANCH   1   5
BRANCH   1  15
ATOM     15  C   UNL     1       5.313   5.588  16.973  0.00  0.00    +0.000 C 
ATOM     16  O   UNL     1       5.729   4.658  16.274  0.00  0.00    +0.000 OA
ATOM     17  N   UNL     1       4.552   5.328  18.136  0.00  0.00    +0.000 N 
BRANCH  17  18
ATOM     18  C   UNL     1       4.506   3.901  18.599  0.00  0.00    +0.000 C 
ATOM     19  C   UNL     1       4.026   2.875  17.540  0.00  0.00    +0.000 C 
ATOM     20  C   UNL     1       2.507   2.850  17.557  0.00  0.00    +0.000 C 
ATOM     21  S   UNL     1       2.056   3.079  19.259  0.00  0.00    +0.000 S 
ATOM     22  O   UNL     1       1.728   1.791  19.838  0.00  0.00    +0.000 OA
ATOM     23  O   UNL     1       1.170   4.214  19.360  0.00  0.00    +0.000 OA
ATOM     24  C   UNL     1       3.666   3.557  19.843  0.00  0.00    +0.000 C 
ENDBRANCH  17  18
BRANCH  17  25
ATOM     25  C   UNL     1       4.096   6.402  19.045  0.00  0.00    +0.000 C 
BRANCH  25  26
ATOM     26  C   UNL     1       2.660   6.918  18.774  0.00  0.00    +0.000 C 
ATOM     27  C   UNL     1       1.900   7.349  20.026  0.00  0.00    +0.000 C 
ATOM     28  C   UNL     1       2.707   8.084  17.780  0.00  0.00    +0.000 C 
ENDBRANCH  25  26
ENDBRANCH  17  25
ENDBRANCH   1  15
TORSDOF 7
ENDMDL
MODEL 7
REMARK VINA RESULT:      -7.3      4.563      7.571
REMARK  Name = 
REMARK  10 active torsions:
REMARK  status: ('A' for Active; 'I' for Inactive)
REMARK    1  A    between atoms: C_1  and  O_2
REMARK    2  A    between atoms: O_2  and  C_3
REMARK    3  A    between atoms: C_7  and  C_8
REMARK    4  A    between atoms: N_11  and  C_12
REMARK    5  A    between atoms: C_12  and  C_13
REMARK    6  A    between atoms: N_15  and  C_16
REMARK    7  A    between atoms: N_15  and  C_20
REMARK    8  A    between atoms: C_16  and  C_17
REMARK    9  A    between atoms: C_17  and  C_18
REMARK   10  A    between atoms: C_17  and  C_19
REMARK                            x       y       z     vdW  Elec       q    Type
REMARK                         _______ _______ _______ _____ _____    ______ ____
ROOT
ATOM      1  C   UNL     1       6.255   6.022  17.397  0.00  0.00    +0.000 C 
ENDROOT
BRANCH   1   5
ATOM      2  C   UNL     1       6.283   4.562  14.276  0.00  0.00    +0.000 A 
ATOM      3  N   UNL     1       7.461   5.263  14.210  0.00  0.00    +0.000 NA
ATOM      4  N   UNL     1       7.646   5.818  15.401  0.00  0.00    +0.000 NA
ATOM      5  N   UNL     1       6.613   5.388  16.149  0.00  0.00    +0.000 N 
ATOM      6  N   UNL     1       5.706   4.641  15.490  0.00  0.00    +0.000 NA
BRANCH   2  11
ATOM      7  C   UNL     1       6.022   1.986  11.558  0.00  0.00    +0.000 A 
ATOM      8  C   UNL     1       4.828   2.361  10.944  0.00  0.00    +0.000 A 
ATOM      9  C   UNL     1       4.070   3.419  11.451  0.00  0.00    +0.000 A 
ATOM     10  C   UNL     1       4.519   4.132  12.565  0.00  0.00    +0.000 A 
ATOM     11  C   UNL     1       5.728   3.787  13.176  0.00  0.00    +0.000 A 
ATOM     12  C   UNL     1       6.452   2.687  12.683  0.00  0.00    +0.000 A 
BRANCH   7  14
ATOM     13  C   UNL     1       6.191  -0.361  11.227  0.00  0.00    +0.000 C 
ATOM     14  O   UNL     1       6.691   0.948  10.970  0.00  0.00    +0.000 OA
ENDBRANCH   7  14
ENDBRANCH   2  11
ENDBRANCH   1   5
BRANCH   1  15
ATOM     15  C   UNL     1       5.646   5.049  18.387  0.00  0.00    +0.000 C 
ATOM     16  O   UNL     1       6.407   4.345  19.059  0.00  0.00    +0.000 OA
ATOM     17  N   UNL     1       4.250   5.013  18.609  0.00  0.00    +0.000 N 
BRANCH  17  18
ATOM     18  C   UNL     1       3.788   4.293  19.842  0.00  0.00    +0.000 C 
ATOM     19  C   UNL     1       4.210   2.804  19.937  0.00  0.00    +0.000 C 
ATOM     20  C   UNL     1       3.199   1.973  19.166  0.00  0.00    +0.000 C 
ATOM     21  S   UNL     1       1.636   2.770  19.437  0.00  0.00    +0.000 S 
ATOM     22  O   UNL     1       0.909   2.050  20.464  0.00  0.00    +0.000 OA
ATOM     23  O   UNL     1       1.044   3.088  18.159  0.00  0.00    +0.000 OA
ATOM     24  C   UNL     1       2.280   4.263  20.157  0.00  0.00    +0.000 C 
ENDBRANCH  17  18
BRANCH  17  25
ATOM     25  C   UNL     1       3.306   5.891  17.883  0.00  0.00    +0.000 C 
BRANCH  25  26
ATOM     26  C   UNL     1       3.181   7.326  18.456  0.00  0.00    +0.000 C 
ATOM     27  C   UNL     1       2.679   8.361  17.452  0.00  0.00    +0.000 C 
ATOM     28  C   UNL     1       2.260   7.317  19.681  0.00  0.00    +0.000 C 
ENDBRANCH  25  26
ENDBRANCH  17  25
ENDBRANCH   1  15
TORSDOF 7
ENDMDL
MODEL 8
REMARK VINA RESULT:      -7.3      5.184      8.000
REMARK  Name = 
REMARK  10 active torsions:
REMARK  status: ('A' for Active; 'I' for Inactive)
REMARK    1  A    between atoms: C_1  and  O_2
REMARK    2  A    between atoms: O_2  and  C_3
REMARK    3  A    between atoms: C_7  and  C_8
REMARK    4  A    between atoms: N_11  and  C_12
REMARK    5  A    between atoms: C_12  and  C_13
REMARK    6  A    between atoms: N_15  and  C_16
REMARK    7  A    between atoms: N_15  and  C_20
REMARK    8  A    between atoms: C_16  and  C_17
REMARK    9  A    between atoms: C_17  and  C_18
REMARK   10  A    between atoms: C_17  and  C_19
REMARK                            x       y       z     vdW  Elec       q    Type
REMARK                         _______ _______ _______ _____ _____    ______ ____
ROOT
ATOM      1  C   UNL     1       2.993   8.033  17.704  0.00  0.00    +0.000 C 
ENDROOT
BRANCH   1   5
ATOM      2  C   UNL     1       0.188   9.924  18.357  0.00  0.00    +0.000 A 
ATOM      3  N   UNL     1       0.948  10.260  19.449  0.00  0.00    +0.000 NA
ATOM      4  N   UNL     1       2.127   9.671  19.293  0.00  0.00    +0.000 NA
ATOM      5  N   UNL     1       2.054   9.057  18.097  0.00  0.00    +0.000 N 
ATOM      6  N   UNL     1       0.855   9.140  17.488  0.00  0.00    +0.000 NA
BRANCH   2  11
ATOM      7  C   UNL     1      -3.130  10.436  16.678  0.00  0.00    +0.000 A 
ATOM      8  C   UNL     1      -3.719  11.375  17.524  0.00  0.00    +0.000 A 
ATOM      9  C   UNL     1      -3.062  11.800  18.681  0.00  0.00    +0.000 A 
ATOM     10  C   UNL     1      -1.790  11.309  18.986  0.00  0.00    +0.000 A 
ATOM     11  C   UNL     1      -1.174  10.388  18.132  0.00  0.00    +0.000 A 
ATOM     12  C   UNL     1      -1.871   9.933  17.000  0.00  0.00    +0.000 A 
BRANCH   7  14
ATOM     13  C   UNL     1      -3.161  10.137  14.320  0.00  0.00    +0.000 C 
ATOM     14  O   UNL     1      -3.854  10.104  15.566  0.00  0.00    +0.000 OA
ENDBRANCH   7  14
ENDBRANCH   2  11
ENDBRANCH   1   5
BRANCH   1  15
ATOM     15  C   UNL     1       3.043   6.883  18.691  0.00  0.00    +0.000 C 
ATOM     16  O   UNL     1       2.164   6.816  19.556  0.00  0.00    +0.000 OA
ATOM     17  N   UNL     1       4.011   5.859  18.569  0.00  0.00    +0.000 N 
BRANCH  17  18
ATOM     18  C   UNL     1       3.758   4.604  19.351  0.00  0.00    +0.000 C 
ATOM     19  C   UNL     1       4.390   3.317  18.761  0.00  0.00    +0.000 C 
ATOM     20  C   UNL     1       3.443   2.761  17.711  0.00  0.00    +0.000 C 
ATOM     21  S   UNL     1       1.813   3.091  18.331  0.00  0.00    +0.000 S 
ATOM     22  O   UNL     1       1.283   1.883  18.933  0.00  0.00    +0.000 OA
ATOM     23  O   UNL     1       1.078   3.842  17.341  0.00  0.00    +0.000 OA
ATOM     24  C   UNL     1       2.301   4.194  19.638  0.00  0.00    +0.000 C 
ENDBRANCH  17  18
BRANCH  17  25
ATOM     25  C   UNL     1       5.036   5.856  17.503  0.00  0.00    +0.000 C 
BRANCH  25  26
ATOM     26  C   UNL     1       6.492   6.041  18.000  0.00  0.00    +0.000 C 
ATOM     27  C   UNL     1       7.412   4.859  17.705  0.00  0.00    +0.000 C 
ATOM     28  C   UNL     1       7.090   7.315  17.391  0.00  0.00    +0.000 C 
ENDBRANCH  25  26
ENDBRANCH  17  25
ENDBRANCH   1  15
TORSDOF 7
ENDMDL
MODEL 9
REMARK VINA RESULT:      -7.2      6.947      9.457
REMARK  Name = 
REMARK  10 active torsions:
REMARK  status: ('A' for Active; 'I' for Inactive)
REMARK    1  A    between atoms: C_1  and  O_2
REMARK    2  A    between atoms: O_2  and  C_3
REMARK    3  A    between atoms: C_7  and  C_8
REMARK    4  A    between atoms: N_11  and  C_12
REMARK    5  A    between atoms: C_12  and  C_13
REMARK    6  A    between atoms: N_15  and  C_16
REMARK    7  A    between atoms: N_15  and  C_20
REMARK    8  A    between atoms: C_16  and  C_17
REMARK    9  A    between atoms: C_17  and  C_18
REMARK   10  A    between atoms: C_17  and  C_19
REMARK                            x       y       z     vdW  Elec       q    Type
REMARK                         _______ _______ _______ _____ _____    ______ ____
ROOT
ATOM      1  C   UNL     1       1.229  10.486  18.358  0.00  0.00    +0.000 C 
ENDROOT
BRANCH   1   5
ATOM      2  C   UNL     1       2.731   7.387  18.240  0.00  0.00    +0.000 A 
ATOM      3  N   UNL     1       2.312   7.388  19.547  0.00  0.00    +0.000 NA
ATOM      4  N   UNL     1       1.615   8.503  19.727  0.00  0.00    +0.000 NA
ATOM      5  N   UNL     1       1.592   9.097  18.520  0.00  0.00    +0.000 N 
ATOM      6  N   UNL     1       2.309   8.474  17.565  0.00  0.00    +0.000 NA
BRANCH   2  11
ATOM      7  C   UNL     1       5.281   5.678  16.081  0.00  0.00    +0.000 A 
ATOM      8  C   UNL     1       4.941   4.339  16.269  0.00  0.00    +0.000 A 
ATOM      9  C   UNL     1       3.917   3.983  17.149  0.00  0.00    +0.000 A 
ATOM     10  C   UNL     1       3.202   4.972  17.829  0.00  0.00    +0.000 A 
ATOM     11  C   UNL     1       3.512   6.321  17.630  0.00  0.00    +0.000 A 
ATOM     12  C   UNL     1       4.579   6.657  16.779  0.00  0.00    +0.000 A 
BRANCH   7  14
ATOM     13  C   UNL     1       7.041   4.781  14.759  0.00  0.00    +0.000 C 
ATOM     14  O   UNL     1       6.288   5.914  15.185  0.00  0.00    +0.000 OA
ENDBRANCH   7  14
ENDBRANCH   2  11
ENDBRANCH   1   5
BRANCH   1  15
ATOM     15  C   UNL     1      -0.017  10.854  19.139  0.00  0.00    +0.000 C 
ATOM     16  O   UNL     1      -1.091  10.346  18.800  0.00  0.00    +0.000 OA
ATOM     17  N   UNL     1       0.057  11.681  20.283  0.00  0.00    +0.000 N 
BRANCH  17  18
ATOM     18  C   UNL     1      -1.146  11.690  21.180  0.00  0.00    +0.000 C 
ATOM     19  C   UNL     1      -2.294  12.636  20.741  0.00  0.00    +0.000 C 
ATOM     20  C   UNL     1      -1.988  14.029  21.265  0.00  0.00    +0.000 C 
ATOM     21  S   UNL     1      -1.215  13.774  22.843  0.00  0.00    +0.000 S 
ATOM     22  O   UNL     1      -2.196  13.984  23.890  0.00  0.00    +0.000 OA
ATOM     23  O   UNL     1       0.068  14.437  22.849  0.00  0.00    +0.000 OA
ATOM     24  C   UNL     1      -0.952  12.023  22.671  0.00  0.00    +0.000 C 
ENDBRANCH  17  18
BRANCH  17  25
ATOM     25  C   UNL     1       1.331  12.251  20.772  0.00  0.00    +0.000 C 
BRANCH  25  26
ATOM     26  C   UNL     1       1.932  13.364  19.876  0.00  0.00    +0.000 C 
ATOM     27  C   UNL     1       0.909  14.368  19.351  0.00  0.00    +0.000 C 
ATOM     28  C   UNL     1       3.030  14.110  20.643  0.00  0.00    +0.000 C 
ENDBRANCH  25  26
ENDBRANCH  17  25
ENDBRANCH   1  15
TORSDOF 7
ENDMDL
