MODEL 1
REMARK VINA RESULT:      -7.5      0.000      0.000
REMARK  Name = 
REMARK  13 active torsions:
REMARK  status: ('A' for Active; 'I' for Inactive)
REMARK    1  A    between atoms: C_1  and  O_2
REMARK    2  A    between atoms: O_2  and  C_3
REMARK    3  A    between atoms: C_6  and  C_7
REMARK    4  A    between atoms: C_7  and  C_8
REMARK    5  A    between atoms: C_8  and  N_9
REMARK    6  A    between atoms: C_11  and  C_12
REMARK    7  A    between atoms: C_12  and  O_14
REMARK    8  A    between atoms: O_14  and  C_15
REMARK    9  A    between atoms: C_15  and  C_16
REMARK   10  A    between atoms: C_15  and  C_17
REMARK   11  A    between atoms: N_19  and  C_20
REMARK   12  A    between atoms: C_31  and  O_32
REMARK   13  A    between atoms: O_32  and  C_33
REMARK                            x       y       z     vdW  Elec       q    Type
REMARK                         _______ _______ _______ _____ _____    ______ ____
ROOT
ATOM      1  N   UNL     1       2.927   3.114  19.174  0.00  0.00    +0.000 N 
ATOM      2  C   UNL     1       1.606   3.563  18.807  0.00  0.00    +0.000 C 
ATOM      3  C   UNL     1       1.079   4.186  20.084  0.00  0.00    +0.000 C 
ATOM      4  C   UNL     1       1.761   3.392  21.193  0.00  0.00    +0.000 C 
ATOM      5  C   UNL     1       3.051   2.938  20.546  0.00  0.00    +0.000 C 
ATOM      6  O   UNL     1       3.997   2.455  21.146  0.00  0.00    +0.000 OA
ENDROOT
BRANCH   3   7
ATOM      7  C   UNL     1       1.488   5.641  20.170  0.00  0.00    +0.000 C 
ATOM      8  O   UNL     1       1.570   6.283  21.208  0.00  0.00    +0.000 OA
BRANCH   7   9
ATOM      9  O   UNL     1       1.743   6.147  18.932  0.00  0.00    +0.000 OA
BRANCH   9  10
ATOM     10  C   UNL     1       2.729   7.194  18.900  0.00  0.00    +0.000 C 
ATOM     11  C   UNL     1       3.862   6.815  17.944  0.00  0.00    +0.000 C 
BRANCH  10  12
ATOM     12  C   UNL     1       2.038   8.475  18.409  0.00  0.00    +0.000 C 
ATOM     13  O   UNL     1       2.228   8.898  17.269  0.00  0.00    +0.000 OA
ATOM     14  N   UNL     1       1.249   9.093  19.369  0.00  0.00    +0.000 N 
ATOM     15  H   UNL     1       1.344   8.778  20.327  0.00  0.00    +0.000 HD
BRANCH  14  16
ATOM     16  C   UNL     1       0.437  10.231  19.148  0.00  0.00    +0.000 A 
ATOM     17  C   UNL     1       0.907  11.536  19.351  0.00  0.00    +0.000 A 
ATOM     18  C   UNL     1       0.078  12.641  19.151  0.00  0.00    +0.000 A 
ATOM     19  C   UNL     1      -1.238  12.454  18.741  0.00  0.00    +0.000 A 
ATOM     20  C   UNL     1      -1.706  11.162  18.515  0.00  0.00    +0.000 A 
ATOM     21 CL   UNL     1      -3.336  10.935  18.007  0.00  0.00    +0.000 Cl
ATOM     22  C   UNL     1      -0.873  10.053  18.700  0.00  0.00    +0.000 A 
ENDBRANCH  14  16
ENDBRANCH  10  12
ENDBRANCH   9  10
ENDBRANCH   7   9
ENDBRANCH   3   7
BRANCH   1  23
ATOM     23  C   UNL     1       3.904   2.640  18.203  0.00  0.00    +0.000 C 
BRANCH  23  24
ATOM     24  C   UNL     1       3.609   3.125  16.778  0.00  0.00    +0.000 C 
BRANCH  24  28
ATOM     25  C   UNL     1       7.050   4.932  14.897  0.00  0.00    +0.000 A 
ATOM     26  C   UNL     1       6.063   4.292  14.125  0.00  0.00    +0.000 A 
ATOM     27  C   UNL     1       4.956   3.692  14.725  0.00  0.00    +0.000 A 
ATOM     28  C   UNL     1       4.841   3.675  16.112  0.00  0.00    +0.000 A 
ATOM     29  C   UNL     1       5.878   4.219  16.883  0.00  0.00    +0.000 A 
ATOM     30  C   UNL     1       6.989   4.842  16.294  0.00  0.00    +0.000 A 
BRANCH  25  32
ATOM     31  C   UNL     1       8.156   5.450  12.880  0.00  0.00    +0.000 C 
ATOM     32  O   UNL     1       8.062   5.632  14.295  0.00  0.00    +0.000 OA
ENDBRANCH  25  32
BRANCH  30  33
ATOM     33  O   UNL     1       7.861   5.309  17.238  0.00  0.00    +0.000 OA
ATOM     34  C   UNL     1       7.477   5.322  18.602  0.00  0.00    +0.000 C 
ENDBRANCH  30  33
ENDBRANCH  24  28
ENDBRANCH  23  24
ENDBRANCH   1  23
TORSDOF 10
ENDMDL
MODEL 2
REMARK VINA RESULT:      -7.4      3.366      8.576
REMARK  Name = 
REMARK  13 active torsions:
REMARK  status: ('A' for Active; 'I' for Inactive)
REMARK    1  A    between atoms: C_1  and  O_2
REMARK    2  A    between atoms: O_2  and  C_3
REMARK    3  A    between atoms: C_6  and  C_7
REMARK    4  A    between atoms: C_7  and  C_8
REMARK    5  A    between atoms: C_8  and  N_9
REMARK    6  A    between atoms: C_11  and  C_12
REMARK    7  A    between atoms: C_12  and  O_14
REMARK    8  A    between atoms: O_14  and  C_15
REMARK    9  A    between atoms: C_15  and  C_16
REMARK   10  A    between atoms: C_15  and  C_17
REMARK   11  A    between atoms: N_19  and  C_20
REMARK   12  A    between atoms: C_31  and  O_32
REMARK   13  A    between atoms: O_32  and  C_33
REMARK                            x       y       z     vdW  Elec       q    Type
REMARK                         _______ _______ _______ _____ _____    ______ ____
ROOT
ATOM      1  N   UNL     1       2.454   5.245  18.632  0.00  0.00    +0.000 N 
ATOM      2  C   UNL     1       3.603   5.338  19.499  0.00  0.00    +0.000 C 
ATOM      3  C   UNL     1       4.238   3.966  19.390  0.00  0.00    +0.000 C 
ATOM      4  C   UNL     1       3.061   3.033  19.130  0.00  0.00    +0.000 C 
ATOM      5  C   UNL     1       2.059   3.929  18.435  0.00  0.00    +0.000 C 
ATOM      6  O   UNL     1       1.059   3.536  17.857  0.00  0.00    +0.000 OA
ENDROOT
BRANCH   3   7
ATOM      7  C   UNL     1       5.197   3.919  18.219  0.00  0.00    +0.000 C 
ATOM      8  O   UNL     1       4.965   3.378  17.147  0.00  0.00    +0.000 OA
BRANCH   7   9
ATOM      9  O   UNL     1       6.362   4.554  18.522  0.00  0.00    +0.000 OA
BRANCH   9  10
ATOM     10  C   UNL     1       6.443   5.917  18.067  0.00  0.00    +0.000 C 
ATOM     11  C   UNL     1       7.806   6.509  18.430  0.00  0.00    +0.000 C 
BRANCH  10  12
ATOM     12  C   UNL     1       6.266   5.914  16.541  0.00  0.00    +0.000 C 
ATOM     13  O   UNL     1       5.501   6.707  15.993  0.00  0.00    +0.000 OA
ATOM     14  N   UNL     1       6.998   4.931  15.889  0.00  0.00    +0.000 N 
ATOM     15  H   UNL     1       7.414   4.203  16.458  0.00  0.00    +0.000 HD
BRANCH  14  16
ATOM     16  C   UNL     1       7.082   4.773  14.485  0.00  0.00    +0.000 A 
ATOM     17  C   UNL     1       7.937   5.554  13.695  0.00  0.00    +0.000 A 
ATOM     18  C   UNL     1       7.982   5.397  12.309  0.00  0.00    +0.000 A 
ATOM     19  C   UNL     1       7.171   4.449  11.693  0.00  0.00    +0.000 A 
ATOM     20  C   UNL     1       6.337   3.653  12.474  0.00  0.00    +0.000 A 
ATOM     21 CL   UNL     1       5.335   2.480  11.707  0.00  0.00    +0.000 Cl
ATOM     22  C   UNL     1       6.300   3.798  13.865  0.00  0.00    +0.000 A 
ENDBRANCH  14  16
ENDBRANCH  10  12
ENDBRANCH   9  10
ENDBRANCH   7   9
ENDBRANCH   3   7
BRANCH   1  23
ATOM     23  C   UNL     1       1.652   6.400  18.247  0.00  0.00    +0.000 C 
BRANCH  23  24
ATOM     24  C   UNL     1       2.364   7.732  18.513  0.00  0.00    +0.000 C 
BRANCH  24  28
ATOM     25  C   UNL     1       0.602  10.134  21.638  0.00  0.00    +0.000 A 
ATOM     26  C   UNL     1       1.046   8.826  21.903  0.00  0.00    +0.000 A 
ATOM     27  C   UNL     1       1.603   8.037  20.896  0.00  0.00    +0.000 A 
ATOM     28  C   UNL     1       1.676   8.522  19.593  0.00  0.00    +0.000 A 
ATOM     29  C   UNL     1       1.135   9.784  19.311  0.00  0.00    +0.000 A 
ATOM     30  C   UNL     1       0.589  10.597  20.315  0.00  0.00    +0.000 A 
BRANCH  25  32
ATOM     31  C   UNL     1      -1.208  10.834  22.979  0.00  0.00    +0.000 C 
ATOM     32  O   UNL     1       0.181  10.948  22.657  0.00  0.00    +0.000 OA
ENDBRANCH  25  32
BRANCH  30  33
ATOM     33  O   UNL     1       0.137  11.785  19.809  0.00  0.00    +0.000 OA
ATOM     34  C   UNL     1      -1.146  11.848  19.211  0.00  0.00    +0.000 C 
ENDBRANCH  30  33
ENDBRANCH  24  28
ENDBRANCH  23  24
ENDBRANCH   1  23
TORSDOF 10
ENDMDL
MODEL 3
REMARK VINA RESULT:      -7.4      3.142      7.742
REMARK  Name = 
REMARK  13 active torsions:
REMARK  status: ('A' for Active; 'I' for Inactive)
REMARK    1  A    between atoms: C_1  and  O_2
REMARK    2  A    between atoms: O_2  and  C_3
REMARK    3  A    between atoms: C_6  and  C_7
REMARK    4  A    between atoms: C_7  and  C_8
REMARK    5  A    between atoms: C_8  and  N_9
REMARK    6  A    between atoms: C_11  and  C_12
REMARK    7  A    between atoms: C_12  and  O_14
REMARK    8  A    between atoms: O_14  and  C_15
REMARK    9  A    between atoms: C_15  and  C_16
REMARK   10  A    between atoms: C_15  and  C_17
REMARK   11  A    between atoms: N_19  and  C_20
REMARK   12  A    between atoms: C_31  and  O_32
REMARK   13  A    between atoms: O_32  and  C_33
REMARK                            x       y       z     vdW  Elec       q    Type
REMARK                         _______ _______ _______ _____ _____    ______ ____
ROOT
ATOM      1  N   UNL     1       1.772   4.955  18.847  0.00  0.00    +0.000 N 
ATOM      2  C   UNL     1       1.120   4.956  20.133  0.00  0.00    +0.000 C 
ATOM      3  C   UNL     1       0.897   3.484  20.415  0.00  0.00    +0.000 C 
ATOM      4  C   UNL     1       0.722   2.864  19.033  0.00  0.00    +0.000 C 
ATOM      5  C   UNL     1       1.521   3.787  18.139  0.00  0.00    +0.000 C 
ATOM      6  O   UNL     1       1.829   3.542  16.984  0.00  0.00    +0.000 OA
ENDROOT
BRANCH   3   7
ATOM      7  C   UNL     1       2.111   2.886  21.094  0.00  0.00    +0.000 C 
ATOM      8  O   UNL     1       2.345   2.954  22.292  0.00  0.00    +0.000 OA
BRANCH   7   9
ATOM      9  O   UNL     1       2.917   2.268  20.188  0.00  0.00    +0.000 OA
BRANCH   9  10
ATOM     10  C   UNL     1       4.327   2.433  20.424  0.00  0.00    +0.000 C 
ATOM     11  C   UNL     1       5.062   1.121  20.141  0.00  0.00    +0.000 C 
BRANCH  10  12
ATOM     12  C   UNL     1       4.836   3.531  19.478  0.00  0.00    +0.000 C 
ATOM     13  O   UNL     1       5.063   4.668  19.894  0.00  0.00    +0.000 OA
ATOM     14  N   UNL     1       4.963   3.125  18.157  0.00  0.00    +0.000 N 
ATOM     15  H   UNL     1       4.541   2.241  17.897  0.00  0.00    +0.000 HD
BRANCH  14  16
ATOM     16  C   UNL     1       5.495   3.912  17.109  0.00  0.00    +0.000 A 
ATOM     17  C   UNL     1       6.116   5.147  17.343  0.00  0.00    +0.000 A 
ATOM     18  C   UNL     1       6.609   5.917  16.288  0.00  0.00    +0.000 A 
ATOM     19  C   UNL     1       6.490   5.459  14.981  0.00  0.00    +0.000 A 
ATOM     20  C   UNL     1       5.894   4.223  14.742  0.00  0.00    +0.000 A 
ATOM     21 CL   UNL     1       5.749   3.658  13.121  0.00  0.00    +0.000 Cl
ATOM     22  C   UNL     1       5.412   3.441  15.798  0.00  0.00    +0.000 A 
ENDBRANCH  14  16
ENDBRANCH  10  12
ENDBRANCH   9  10
ENDBRANCH   7   9
ENDBRANCH   3   7
BRANCH   1  23
ATOM     23  C   UNL     1       2.378   6.144  18.262  0.00  0.00    +0.000 C 
BRANCH  23  24
ATOM     24  C   UNL     1       2.724   7.211  19.308  0.00  0.00    +0.000 C 
BRANCH  24  28
ATOM     25  C   UNL     1      -0.101  10.462  19.002  0.00  0.00    +0.000 A 
ATOM     26  C   UNL     1       0.753  10.149  17.929  0.00  0.00    +0.000 A 
ATOM     27  C   UNL     1       1.679   9.110  18.024  0.00  0.00    +0.000 A 
ATOM     28  C   UNL     1       1.806   8.399  19.214  0.00  0.00    +0.000 A 
ATOM     29  C   UNL     1       1.030   8.783  20.316  0.00  0.00    +0.000 A 
ATOM     30  C   UNL     1       0.081   9.813  20.231  0.00  0.00    +0.000 A 
BRANCH  25  32
ATOM     31  C   UNL     1      -2.324  10.877  18.335  0.00  0.00    +0.000 C 
ATOM     32  O   UNL     1      -1.096  11.392  18.855  0.00  0.00    +0.000 OA
ENDBRANCH  25  32
BRANCH  30  33
ATOM     33  O   UNL     1      -0.564  10.000  21.422  0.00  0.00    +0.000 OA
ATOM     34  C   UNL     1      -0.345  11.192  22.157  0.00  0.00    +0.000 C 
ENDBRANCH  30  33
ENDBRANCH  24  28
ENDBRANCH  23  24
ENDBRANCH   1  23
TORSDOF 10
ENDMDL
MODEL 4
REMARK VINA RESULT:      -7.4      1.571      1.986
REMARK  Name = 
REMARK  13 active torsions:
REMARK  status: ('A' for Active; 'I' for Inactive)
REMARK    1  A    between atoms: C_1  and  O_2
REMARK    2  A    between atoms: O_2  and  C_3
REMARK    3  A    between atoms: C_6  and  C_7
REMARK    4  A    between atoms: C_7  and  C_8
REMARK    5  A    between atoms: C_8  and  N_9
REMARK    6  A    between atoms: C_11  and  C_12
REMARK    7  A    between atoms: C_12  and  O_14
REMARK    8  A    between atoms: O_14  and  C_15
REMARK    9  A    between atoms: C_15  and  C_16
REMARK   10  A    between atoms: C_15  and  C_17
REMARK   11  A    between atoms: N_19  and  C_20
REMARK   12  A    between atoms: C_31  and  O_32
REMARK   13  A    between atoms: O_32  and  C_33
REMARK                            x       y       z     vdW  Elec       q    Type
REMARK                         _______ _______ _______ _____ _____    ______ ____
ROOT
ATOM      1  N   UNL     1       3.115   2.956  18.859  0.00  0.00    +0.000 N 
ATOM      2  C   UNL     1       1.776   3.458  18.675  0.00  0.00    +0.000 C 
ATOM      3  C   UNL     1       1.360   3.872  20.072  0.00  0.00    +0.000 C 
ATOM      4  C   UNL     1       2.117   2.913  20.984  0.00  0.00    +0.000 C 
ATOM      5  C   UNL     1       3.346   2.566  20.172  0.00  0.00    +0.000 C 
ATOM      6  O   UNL     1       4.330   1.994  20.610  0.00  0.00    +0.000 OA
ENDROOT
BRANCH   3   7
ATOM      7  C   UNL     1       1.794   5.295  20.353  0.00  0.00    +0.000 C 
ATOM      8  O   UNL     1       2.161   5.711  21.443  0.00  0.00    +0.000 OA
BRANCH   7   9
ATOM      9  O   UNL     1       1.709   6.058  19.229  0.00  0.00    +0.000 OA
BRANCH   9  10
ATOM     10  C   UNL     1       2.534   7.237  19.237  0.00  0.00    +0.000 C 
ATOM     11  C   UNL     1       3.179   7.433  17.864  0.00  0.00    +0.000 C 
BRANCH  10  12
ATOM     12  C   UNL     1       1.634   8.438  19.567  0.00  0.00    +0.000 C 
ATOM     13  O   UNL     1       1.259   8.648  20.720  0.00  0.00    +0.000 OA
ATOM     14  N   UNL     1       1.274   9.195  18.460  0.00  0.00    +0.000 N 
ATOM     15  H   UNL     1       1.459   8.802  17.544  0.00  0.00    +0.000 HD
BRANCH  14  16
ATOM     16  C   UNL     1       0.531  10.398  18.502  0.00  0.00    +0.000 A 
ATOM     17  C   UNL     1       1.131  11.639  18.761  0.00  0.00    +0.000 A 
ATOM     18  C   UNL     1       0.372  12.808  18.823  0.00  0.00    +0.000 A 
ATOM     19  C   UNL     1      -1.003  12.753  18.622  0.00  0.00    +0.000 A 
ATOM     20  C   UNL     1      -1.603  11.527  18.341  0.00  0.00    +0.000 A 
ATOM     21 CL   UNL     1      -3.307  11.463  18.093  0.00  0.00    +0.000 Cl
ATOM     22  C   UNL     1      -0.843  10.355  18.264  0.00  0.00    +0.000 A 
ENDBRANCH  14  16
ENDBRANCH  10  12
ENDBRANCH   9  10
ENDBRANCH   7   9
ENDBRANCH   3   7
BRANCH   1  23
ATOM     23  C   UNL     1       4.007   2.642  17.750  0.00  0.00    +0.000 C 
BRANCH  23  24
ATOM     24  C   UNL     1       4.144   3.798  16.752  0.00  0.00    +0.000 C 
BRANCH  24  28
ATOM     25  C   UNL     1       7.280   6.546  17.873  0.00  0.00    +0.000 A 
ATOM     26  C   UNL     1       6.809   6.496  16.549  0.00  0.00    +0.000 A 
ATOM     27  C   UNL     1       5.807   5.601  16.173  0.00  0.00    +0.000 A 
ATOM     28  C   UNL     1       5.294   4.702  17.104  0.00  0.00    +0.000 A 
ATOM     29  C   UNL     1       5.840   4.681  18.395  0.00  0.00    +0.000 A 
ATOM     30  C   UNL     1       6.836   5.587  18.793  0.00  0.00    +0.000 A 
BRANCH  25  32
ATOM     31  C   UNL     1       7.904   8.816  17.730  0.00  0.00    +0.000 C 
ATOM     32  O   UNL     1       8.167   7.515  18.263  0.00  0.00    +0.000 OA
ENDBRANCH  25  32
BRANCH  30  33
ATOM     33  O   UNL     1       7.204   5.388  20.095  0.00  0.00    +0.000 OA
ATOM     34  C   UNL     1       8.569   5.186  20.413  0.00  0.00    +0.000 C 
ENDBRANCH  30  33
ENDBRANCH  24  28
ENDBRANCH  23  24
ENDBRANCH   1  23
TORSDOF 10
ENDMDL
MODEL 5
REMARK VINA RESULT:      -7.1      4.191      5.824
REMARK  Name = 
REMARK  13 active torsions:
REMARK  status: ('A' for Active; 'I' for Inactive)
REMARK    1  A    between atoms: C_1  and  O_2
REMARK    2  A    between atoms: O_2  and  C_3
REMARK    3  A    between atoms: C_6  and  C_7
REMARK    4  A    between atoms: C_7  and  C_8
REMARK    5  A    between atoms: C_8  and  N_9
REMARK    6  A    between atoms: C_11  and  C_12
REMARK    7  A    between atoms: C_12  and  O_14
REMARK    8  A    between atoms: O_14  and  C_15
REMARK    9  A    between atoms: C_15  and  C_16
REMARK   10  A    between atoms: C_15  and  C_17
REMARK   11  A    between atoms: N_19  and  C_20
REMARK   12  A    between atoms: C_31  and  O_32
REMARK   13  A    between atoms: O_32  and  C_33
REMARK                            x       y       z     vdW  Elec       q    Type
REMARK                         _______ _______ _______ _____ _____    ______ ____
ROOT
ATOM      1  N   UNL     1       7.104   6.471  17.700  0.00  0.00    +0.000 N 
ATOM      2  C   UNL     1       6.174   6.700  16.621  0.00  0.00    +0.000 C 
ATOM      3  C   UNL     1       5.363   5.421  16.580  0.00  0.00    +0.000 C 
ATOM      4  C   UNL     1       6.337   4.348  17.056  0.00  0.00    +0.000 C 
ATOM      5  C   UNL     1       7.283   5.117  17.951  0.00  0.00    +0.000 C 
ATOM      6  O   UNL     1       8.090   4.608  18.711  0.00  0.00    +0.000 OA
ENDROOT
BRANCH   3   7
ATOM      7  C   UNL     1       4.190   5.507  17.535  0.00  0.00    +0.000 C 
ATOM      8  O   UNL     1       3.622   4.545  18.032  0.00  0.00    +0.000 OA
BRANCH   7   9
ATOM      9  O   UNL     1       3.843   6.804  17.758  0.00  0.00    +0.000 OA
BRANCH   9  10
ATOM     10  C   UNL     1       2.540   6.988  18.341  0.00  0.00    +0.000 C 
ATOM     11  C   UNL     1       2.609   6.769  19.854  0.00  0.00    +0.000 C 
BRANCH  10  12
ATOM     12  C   UNL     1       2.090   8.426  18.041  0.00  0.00    +0.000 C 
ATOM     13  O   UNL     1       2.519   9.030  17.058  0.00  0.00    +0.000 OA
ATOM     14  N   UNL     1       1.221   8.954  18.986  0.00  0.00    +0.000 N 
ATOM     15  H   UNL     1       1.115   8.449  19.858  0.00  0.00    +0.000 HD
BRANCH  14  16
ATOM     16  C   UNL     1       0.590  10.217  18.898  0.00  0.00    +0.000 A 
ATOM     17  C   UNL     1       1.215  11.396  19.328  0.00  0.00    +0.000 A 
ATOM     18  C   UNL     1       0.561  12.627  19.256  0.00  0.00    +0.000 A 
ATOM     19  C   UNL     1      -0.731  12.696  18.746  0.00  0.00    +0.000 A 
ATOM     20  C   UNL     1      -1.350  11.532  18.296  0.00  0.00    +0.000 A 
ATOM     21 CL   UNL     1      -2.951  11.621  17.665  0.00  0.00    +0.000 Cl
ATOM     22  C   UNL     1      -0.692  10.298  18.354  0.00  0.00    +0.000 A 
ENDBRANCH  14  16
ENDBRANCH  10  12
ENDBRANCH   9  10
ENDBRANCH   7   9
ENDBRANCH   3   7
BRANCH   1  23
ATOM     23  C   UNL     1       7.952   7.519  18.255  0.00  0.00    +0.000 C 
BRANCH  23  24
ATOM     24  C   UNL     1       7.837   8.843  17.489  0.00  0.00    +0.000 C 
BRANCH  24  28
ATOM     25  C   UNL     1       9.913  12.077  19.458  0.00  0.00    +0.000 A 
ATOM     26  C   UNL     1       9.937  10.777  19.994  0.00  0.00    +0.000 A 
ATOM     27  C   UNL     1       9.257   9.729  19.374  0.00  0.00    +0.000 A 
ATOM     28  C   UNL     1       8.495   9.973  18.234  0.00  0.00    +0.000 A 
ATOM     29  C   UNL     1       8.386  11.288  17.763  0.00  0.00    +0.000 A 
ATOM     30  C   UNL     1       9.079  12.350  18.364  0.00  0.00    +0.000 A 
BRANCH  25  32
ATOM     31  C   UNL     1      12.068  13.020  19.619  0.00  0.00    +0.000 C 
ATOM     32  O   UNL     1      10.690  13.069  19.996  0.00  0.00    +0.000 OA
ENDBRANCH  25  32
BRANCH  30  33
ATOM     33  O   UNL     1       8.833  13.535  17.728  0.00  0.00    +0.000 OA
ATOM     34  C   UNL     1       7.574  14.166  17.885  0.00  0.00    +0.000 C 
ENDBRANCH  30  33
ENDBRANCH  24  28
ENDBRANCH  23  24
ENDBRANCH   1  23
TORSDOF 10
ENDMDL
MODEL 6
REMARK VINA RESULT:      -7.1      4.886      6.524
REMARK  Name = 
REMARK  13 active torsions:
REMARK  status: ('A' for Active; 'I' for Inactive)
REMARK    1  A    between atoms: C_1  and  O_2
REMARK    2  A    between atoms: O_2  and  C_3
REMARK    3  A    between atoms: C_6  and  C_7
REMARK    4  A    between atoms: C_7  and  C_8
REMARK    5  A    between atoms: C_8  and  N_9
REMARK    6  A    between atoms: C_11  and  C_12
REMARK    7  A    between atoms: C_12  and  O_14
REMARK    8  A    between atoms: O_14  and  C_15
REMARK    9  A    between atoms: C_15  and  C_16
REMARK   10  A    between atoms: C_15  and  C_17
REMARK   11  A    between atoms: N_19  and  C_20
REMARK   12  A    between atoms: C_31  and  O_32
REMARK   13  A    between atoms: O_32  and  C_33
REMARK                            x       y       z     vdW  Elec       q    Type
REMARK                         _______ _______ _______ _____ _____    ______ ____
ROOT
ATOM      1  N   UNL     1       7.799   6.905  18.321  0.00  0.00    +0.000 N 
ATOM      2  C   UNL     1       7.454   6.789  16.925  0.00  0.00    +0.000 C 
ATOM      3  C   UNL     1       6.406   5.694  16.913  0.00  0.00    +0.000 C 
ATOM      4  C   UNL     1       6.792   4.798  18.084  0.00  0.00    +0.000 C 
ATOM      5  C   UNL     1       7.492   5.750  19.028  0.00  0.00    +0.000 C 
ATOM      6  O   UNL     1       7.774   5.498  20.188  0.00  0.00    +0.000 OA
ENDROOT
BRANCH   3   7
ATOM      7  C   UNL     1       5.028   6.278  17.146  0.00  0.00    +0.000 C 
ATOM      8  O   UNL     1       4.573   7.249  16.560  0.00  0.00    +0.000 OA
BRANCH   7   9
ATOM      9  O   UNL     1       4.365   5.581  18.109  0.00  0.00    +0.000 OA
BRANCH   9  10
ATOM     10  C   UNL     1       2.933   5.559  17.959  0.00  0.00    +0.000 C 
ATOM     11  C   UNL     1       2.407   4.139  18.178  0.00  0.00    +0.000 C 
BRANCH  10  12
ATOM     12  C   UNL     1       2.336   6.506  19.010  0.00  0.00    +0.000 C 
ATOM     13  O   UNL     1       2.166   6.134  20.171  0.00  0.00    +0.000 OA
ATOM     14  N   UNL     1       1.987   7.754  18.512  0.00  0.00    +0.000 N 
ATOM     15  H   UNL     1       1.968   7.867  17.505  0.00  0.00    +0.000 HD
BRANCH  14  16
ATOM     16  C   UNL     1       1.504   8.835  19.287  0.00  0.00    +0.000 A 
ATOM     17  C   UNL     1       1.332  10.120  18.752  0.00  0.00    +0.000 A 
ATOM     18  C   UNL     1       0.879  11.176  19.544  0.00  0.00    +0.000 A 
ATOM     19  C   UNL     1       0.588  10.960  20.887  0.00  0.00    +0.000 A 
ATOM     20  C   UNL     1       0.735   9.682  21.420  0.00  0.00    +0.000 A 
ATOM     21 CL   UNL     1       0.373   9.418  23.083  0.00  0.00    +0.000 Cl
ATOM     22  C   UNL     1       1.175   8.617  20.625  0.00  0.00    +0.000 A 
ENDBRANCH  14  16
ENDBRANCH  10  12
ENDBRANCH   9  10
ENDBRANCH   7   9
ENDBRANCH   3   7
BRANCH   1  23
ATOM     23  C   UNL     1       8.618   7.988  18.851  0.00  0.00    +0.000 C 
BRANCH  23  24
ATOM     24  C   UNL     1       8.349   9.329  18.157  0.00  0.00    +0.000 C 
BRANCH  24  28
ATOM     25  C   UNL     1      10.849  12.570  19.534  0.00  0.00    +0.000 A 
ATOM     26  C   UNL     1      10.941  12.105  18.210  0.00  0.00    +0.000 A 
ATOM     27  C   UNL     1      10.148  11.049  17.760  0.00  0.00    +0.000 A 
ATOM     28  C   UNL     1       9.287  10.402  18.642  0.00  0.00    +0.000 A 
ATOM     29  C   UNL     1       9.275  10.796  19.987  0.00  0.00    +0.000 A 
ATOM     30  C   UNL     1      10.052  11.869  20.450  0.00  0.00    +0.000 A 
BRANCH  25  32
ATOM     31  C   UNL     1      11.564  14.743  18.964  0.00  0.00    +0.000 C 
ATOM     32  O   UNL     1      11.531  13.690  19.931  0.00  0.00    +0.000 OA
ENDBRANCH  25  32
BRANCH  30  33
ATOM     33  O   UNL     1       9.869  12.080  21.789  0.00  0.00    +0.000 OA
ATOM     34  C   UNL     1       8.874  12.991  22.224  0.00  0.00    +0.000 C 
ENDBRANCH  30  33
ENDBRANCH  24  28
ENDBRANCH  23  24
ENDBRANCH   1  23
TORSDOF 10
ENDMDL
MODEL 7
REMARK VINA RESULT:      -7.1      3.226      7.940
REMARK  Name = 
REMARK  13 active torsions:
REMARK  status: ('A' for Active; 'I' for Inactive)
REMARK    1  A    between atoms: C_1  and  O_2
REMARK    2  A    between atoms: O_2  and  C_3
REMARK    3  A    between atoms: C_6  and  C_7
REMARK    4  A    between atoms: C_7  and  C_8
REMARK    5  A    between atoms: C_8  and  N_9
REMARK    6  A    between atoms: C_11  and  C_12
REMARK    7  A    between atoms: C_12  and  O_14
REMARK    8  A    between atoms: O_14  and  C_15
REMARK    9  A    between atoms: C_15  and  C_16
REMARK   10  A    between atoms: C_15  and  C_17
REMARK   11  A    between atoms: N_19  and  C_20
REMARK   12  A    between atoms: C_31  and  O_32
REMARK   13  A    between atoms: O_32  and  C_33
REMARK                            x       y       z     vdW  Elec       q    Type
REMARK                         _______ _______ _______ _____ _____    ______ ____
ROOT
ATOM      1  N   UNL     1       1.483   4.924  19.134  0.00  0.00    +0.000 N 
ATOM      2  C   UNL     1       0.913   4.739  20.446  0.00  0.00    +0.000 C 
ATOM      3  C   UNL     1       0.879   3.232  20.604  0.00  0.00    +0.000 C 
ATOM      4  C   UNL     1       0.694   2.714  19.182  0.00  0.00    +0.000 C 
ATOM      5  C   UNL     1       1.326   3.798  18.337  0.00  0.00    +0.000 C 
ATOM      6  O   UNL     1       1.591   3.690  17.151  0.00  0.00    +0.000 OA
ENDROOT
BRANCH   3   7
ATOM      7  C   UNL     1       2.192   2.729  21.165  0.00  0.00    +0.000 C 
ATOM      8  O   UNL     1       2.633   3.010  22.271  0.00  0.00    +0.000 OA
BRANCH   7   9
ATOM      9  O   UNL     1       2.827   1.927  20.267  0.00  0.00    +0.000 OA
BRANCH   9  10
ATOM     10  C   UNL     1       4.223   2.219  20.078  0.00  0.00    +0.000 C 
ATOM     11  C   UNL     1       5.062   0.973  20.365  0.00  0.00    +0.000 C 
BRANCH  10  12
ATOM     12  C   UNL     1       4.418   2.655  18.618  0.00  0.00    +0.000 C 
ATOM     13  O   UNL     1       4.097   1.914  17.689  0.00  0.00    +0.000 OA
ATOM     14  N   UNL     1       5.011   3.902  18.475  0.00  0.00    +0.000 N 
ATOM     15  H   UNL     1       5.429   4.318  19.299  0.00  0.00    +0.000 HD
BRANCH  14  16
ATOM     16  C   UNL     1       5.217   4.571  17.245  0.00  0.00    +0.000 A 
ATOM     17  C   UNL     1       5.041   5.955  17.109  0.00  0.00    +0.000 A 
ATOM     18  C   UNL     1       5.225   6.588  15.878  0.00  0.00    +0.000 A 
ATOM     19  C   UNL     1       5.592   5.841  14.764  0.00  0.00    +0.000 A 
ATOM     20  C   UNL     1       5.792   4.470  14.897  0.00  0.00    +0.000 A 
ATOM     21 CL   UNL     1       6.248   3.548  13.514  0.00  0.00    +0.000 Cl
ATOM     22  C   UNL     1       5.622   3.834  16.132  0.00  0.00    +0.000 A 
ENDBRANCH  14  16
ENDBRANCH  10  12
ENDBRANCH   9  10
ENDBRANCH   7   9
ENDBRANCH   3   7
BRANCH   1  23
ATOM     23  C   UNL     1       1.912   6.223  18.629  0.00  0.00    +0.000 C 
BRANCH  23  24
ATOM     24  C   UNL     1       2.593   7.081  19.702  0.00  0.00    +0.000 C 
BRANCH  24  28
ATOM     25  C   UNL     1       0.178  10.356  21.148  0.00  0.00    +0.000 A 
ATOM     26  C   UNL     1       0.556   9.309  22.007  0.00  0.00    +0.000 A 
ATOM     27  C   UNL     1       1.323   8.239  21.546  0.00  0.00    +0.000 A 
ATOM     28  C   UNL     1       1.681   8.169  20.203  0.00  0.00    +0.000 A 
ATOM     29  C   UNL     1       1.213   9.158  19.326  0.00  0.00    +0.000 A 
ATOM     30  C   UNL     1       0.456  10.250  19.778  0.00  0.00    +0.000 A 
BRANCH  25  32
ATOM     31  C   UNL     1      -1.220  11.243  22.828  0.00  0.00    +0.000 C 
ATOM     32  O   UNL     1      -0.460  11.466  21.637  0.00  0.00    +0.000 OA
ENDBRANCH  25  32
BRANCH  30  33
ATOM     33  O   UNL     1       0.124  11.090  18.751  0.00  0.00    +0.000 OA
ATOM     34  C   UNL     1      -1.200  11.092  18.248  0.00  0.00    +0.000 C 
ENDBRANCH  30  33
ENDBRANCH  24  28
ENDBRANCH  23  24
ENDBRANCH   1  23
TORSDOF 10
ENDMDL
MODEL 8
REMARK VINA RESULT:      -7.0      4.455      6.062
REMARK  Name = 
REMARK  13 active torsions:
REMARK  status: ('A' for Active; 'I' for Inactive)
REMARK    1  A    between atoms: C_1  and  O_2
REMARK    2  A    between atoms: O_2  and  C_3
REMARK    3  A    between atoms: C_6  and  C_7
REMARK    4  A    between atoms: C_7  and  C_8
REMARK    5  A    between atoms: C_8  and  N_9
REMARK    6  A    between atoms: C_11  and  C_12
REMARK    7  A    between atoms: C_12  and  O_14
REMARK    8  A    between atoms: O_14  and  C_15
REMARK    9  A    between atoms: C_15  and  C_16
REMARK   10  A    between atoms: C_15  and  C_17
REMARK   11  A    between atoms: N_19  and  C_20
REMARK   12  A    between atoms: C_31  and  O_32
REMARK   13  A    between atoms: O_32  and  C_33
REMARK                            x       y       z     vdW  Elec       q    Type
REMARK                         _______ _______ _______ _____ _____    ______ ____
ROOT
ATOM      1  N   UNL     1       6.129   7.038  17.142  0.00  0.00    +0.000 N 
ATOM      2  C   UNL     1       4.763   6.829  17.555  0.00  0.00    +0.000 C 
ATOM      3  C   UNL     1       4.640   5.320  17.612  0.00  0.00    +0.000 C 
ATOM      4  C   UNL     1       5.612   4.827  16.545  0.00  0.00    +0.000 C 
ATOM      5  C   UNL     1       6.650   5.926  16.494  0.00  0.00    +0.000 C 
ATOM      6  O   UNL     1       7.727   5.839  15.927  0.00  0.00    +0.000 OA
ENDROOT
BRANCH   3   7
ATOM      7  C   UNL     1       5.069   4.806  18.971  0.00  0.00    +0.000 C 
ATOM      8  O   UNL     1       6.052   4.109  19.176  0.00  0.00    +0.000 OA
BRANCH   7   9
ATOM      9  O   UNL     1       4.203   5.215  19.938  0.00  0.00    +0.000 OA
BRANCH   9  10
ATOM     10  C   UNL     1       2.903   4.601  19.883  0.00  0.00    +0.000 C 
ATOM     11  C   UNL     1       2.833   3.435  20.871  0.00  0.00    +0.000 C 
BRANCH  10  12
ATOM     12  C   UNL     1       1.863   5.667  20.260  0.00  0.00    +0.000 C 
ATOM     13  O   UNL     1       0.724   5.346  20.601  0.00  0.00    +0.000 OA
ATOM     14  N   UNL     1       2.320   6.971  20.133  0.00  0.00    +0.000 N 
ATOM     15  H   UNL     1       3.192   7.115  19.637  0.00  0.00    +0.000 HD
BRANCH  14  16
ATOM     16  C   UNL     1       1.595   8.130  20.502  0.00  0.00    +0.000 A 
ATOM     17  C   UNL     1       1.279   8.420  21.837  0.00  0.00    +0.000 A 
ATOM     18  C   UNL     1       0.539   9.555  22.172  0.00  0.00    +0.000 A 
ATOM     19  C   UNL     1       0.108  10.421  21.172  0.00  0.00    +0.000 A 
ATOM     20  C   UNL     1       0.438  10.151  19.847  0.00  0.00    +0.000 A 
ATOM     21 CL   UNL     1      -0.098  11.226  18.611  0.00  0.00    +0.000 Cl
ATOM     22  C   UNL     1       1.191   9.021  19.508  0.00  0.00    +0.000 A 
ENDBRANCH  14  16
ENDBRANCH  10  12
ENDBRANCH   9  10
ENDBRANCH   7   9
ENDBRANCH   3   7
BRANCH   1  23
ATOM     23  C   UNL     1       6.774   8.345  17.158  0.00  0.00    +0.000 C 
BRANCH  23  24
ATOM     24  C   UNL     1       7.999   8.391  18.080  0.00  0.00    +0.000 C 
BRANCH  24  28
ATOM     25  C   UNL     1       9.410  12.429  18.673  0.00  0.00    +0.000 A 
ATOM     26  C   UNL     1       8.444  12.142  17.691  0.00  0.00    +0.000 A 
ATOM     27  C   UNL     1       7.993  10.839  17.482  0.00  0.00    +0.000 A 
ATOM     28  C   UNL     1       8.540   9.789  18.214  0.00  0.00    +0.000 A 
ATOM     29  C   UNL     1       9.577  10.062  19.116  0.00  0.00    +0.000 A 
ATOM     30  C   UNL     1      10.028  11.370  19.351  0.00  0.00    +0.000 A 
BRANCH  25  32
ATOM     31  C   UNL     1      10.161  14.501  17.836  0.00  0.00    +0.000 C 
ATOM     32  O   UNL     1       9.748  13.724  18.963  0.00  0.00    +0.000 OA
ENDBRANCH  25  32
BRANCH  30  33
ATOM     33  O   UNL     1      11.034  11.395  20.278  0.00  0.00    +0.000 OA
ATOM     34  C   UNL     1      12.333  11.808  19.891  0.00  0.00    +0.000 C 
ENDBRANCH  30  33
ENDBRANCH  24  28
ENDBRANCH  23  24
ENDBRANCH   1  23
TORSDOF 10
ENDMDL
MODEL 9
REMARK VINA RESULT:      -7.0      3.092      7.514
REMARK  Name = 
REMARK  13 active torsions:
REMARK  status: ('A' for Active; 'I' for Inactive)
REMARK    1  A    between atoms: C_1  and  O_2
REMARK    2  A    between atoms: O_2  and  C_3
REMARK    3  A    between atoms: C_6  and  C_7
REMARK    4  A    between atoms: C_7  and  C_8
REMARK    5  A    between atoms: C_8  and  N_9
REMARK    6  A    between atoms: C_11  and  C_12
REMARK    7  A    between atoms: C_12  and  O_14
REMARK    8  A    between atoms: O_14  and  C_15
REMARK    9  A    between atoms: C_15  and  C_16
REMARK   10  A    between atoms: C_15  and  C_17
REMARK   11  A    between atoms: N_19  and  C_20
REMARK   12  A    between atoms: C_31  and  O_32
REMARK   13  A    between atoms: O_32  and  C_33
REMARK                            x       y       z     vdW  Elec       q    Type
REMARK                         _______ _______ _______ _____ _____    ______ ____
ROOT
ATOM      1  N   UNL     1       1.508   4.840  19.056  0.00  0.00    +0.000 N 
ATOM      2  C   UNL     1       0.883   4.703  20.349  0.00  0.00    +0.000 C 
ATOM      3  C   UNL     1       0.837   3.203  20.560  0.00  0.00    +0.000 C 
ATOM      4  C   UNL     1       0.712   2.633  19.151  0.00  0.00    +0.000 C 
ATOM      5  C   UNL     1       1.382   3.685  18.295  0.00  0.00    +0.000 C 
ATOM      6  O   UNL     1       1.696   3.534  17.126  0.00  0.00    +0.000 OA
ENDROOT
BRANCH   3   7
ATOM      7  C   UNL     1       2.125   2.719  21.194  0.00  0.00    +0.000 C 
ATOM      8  O   UNL     1       2.430   2.882  22.367  0.00  0.00    +0.000 OA
BRANCH   7   9
ATOM      9  O   UNL     1       2.907   2.084  20.279  0.00  0.00    +0.000 OA
BRANCH   9  10
ATOM     10  C   UNL     1       4.322   2.270  20.462  0.00  0.00    +0.000 C 
ATOM     11  C   UNL     1       5.032   0.915  20.463  0.00  0.00    +0.000 C 
BRANCH  10  12
ATOM     12  C   UNL     1       4.838   3.129  19.297  0.00  0.00    +0.000 C 
ATOM     13  O   UNL     1       4.592   2.824  18.130  0.00  0.00    +0.000 OA
ATOM     14  N   UNL     1       5.612   4.211  19.693  0.00  0.00    +0.000 N 
ATOM     15  H   UNL     1       5.927   4.233  20.656  0.00  0.00    +0.000 HD
BRANCH  14  16
ATOM     16  C   UNL     1       6.130   5.204  18.828  0.00  0.00    +0.000 A 
ATOM     17  C   UNL     1       7.333   5.872  19.092  0.00  0.00    +0.000 A 
ATOM     18  C   UNL     1       7.809   6.867  18.236  0.00  0.00    +0.000 A 
ATOM     19  C   UNL     1       7.085   7.206  17.098  0.00  0.00    +0.000 A 
ATOM     20  C   UNL     1       5.900   6.530  16.817  0.00  0.00    +0.000 A 
ATOM     21 CL   UNL     1       5.006   6.952  15.406  0.00  0.00    +0.000 Cl
ATOM     22  C   UNL     1       5.427   5.522  17.665  0.00  0.00    +0.000 A 
ENDBRANCH  14  16
ENDBRANCH  10  12
ENDBRANCH   9  10
ENDBRANCH   7   9
ENDBRANCH   3   7
BRANCH   1  23
ATOM     23  C   UNL     1       1.961   6.118  18.523  0.00  0.00    +0.000 C 
BRANCH  23  24
ATOM     24  C   UNL     1       2.653   6.990  19.579  0.00  0.00    +0.000 C 
BRANCH  24  28
ATOM     25  C   UNL     1       0.341  10.375  20.934  0.00  0.00    +0.000 A 
ATOM     26  C   UNL     1       0.281   9.146  21.615  0.00  0.00    +0.000 A 
ATOM     27  C   UNL     1       1.012   8.042  21.177  0.00  0.00    +0.000 A 
ATOM     28  C   UNL     1       1.776   8.132  20.016  0.00  0.00    +0.000 A 
ATOM     29  C   UNL     1       1.750   9.324  19.280  0.00  0.00    +0.000 A 
ATOM     30  C   UNL     1       1.034  10.449  19.719  0.00  0.00    +0.000 A 
BRANCH  25  32
ATOM     31  C   UNL     1      -1.554  11.778  20.880  0.00  0.00    +0.000 C 
ATOM     32  O   UNL     1      -0.273  11.488  21.446  0.00  0.00    +0.000 OA
ENDBRANCH  25  32
BRANCH  30  33
ATOM     33  O   UNL     1       1.165  11.497  18.850  0.00  0.00    +0.000 OA
ATOM     34  C   UNL     1       2.309  11.579  18.019  0.00  0.00    +0.000 C 
ENDBRANCH  30  33
ENDBRANCH  24  28
ENDBRANCH  23  24
ENDBRANCH   1  23
TORSDOF 10
ENDMDL
