MODEL 1
REMARK VINA RESULT:      -6.6      0.000      0.000
REMARK  Name = 
REMARK  15 active torsions:
REMARK  status: ('A' for Active; 'I' for Inactive)
REMARK    1  A    between atoms: C_1  and  N_2
REMARK    2  A    between atoms: C_4  and  N_5
REMARK    3  A    between atoms: C_6  and  C_8
REMARK    4  A    between atoms: C_10  and  N_11
REMARK    5  A    between atoms: N_15  and  C_16
REMARK    6  A    between atoms: C_18  and  C_19
REMARK    7  A    between atoms: N_21  and  C_22
REMARK    8  A    between atoms: C_22  and  C_23
REMARK    9  A    between atoms: C_23  and  C_24
REMARK   10  A    between atoms: C_24  and  N_25
REMARK   11  A    between atoms: N_25  and  C_26
REMARK   12  A    between atoms: C_26  and  C_27
REMARK   13  A    between atoms: C_27  and  C_28
REMARK   14  A    between atoms: C_28  and  C_29
REMARK   15  A    between atoms: C_29  and  N_30
REMARK                            x       y       z     vdW  Elec       q    Type
REMARK                         _______ _______ _______ _____ _____    ______ ____
ROOT
ATOM      1  C   UNL     1       3.591   6.989  17.607  0.00  0.00    +0.000 C 
ATOM      2  N   UNL     1       2.712   7.210  18.737  0.00  0.00    +0.000 N 
ATOM      3  C   UNL     1       2.111   8.420  18.962  0.00  0.00    +0.000 A 
ATOM      4  C   UNL     1       1.352   8.331  20.095  0.00  0.00    +0.000 A 
ATOM      5  C   UNL     1       1.499   7.006  20.577  0.00  0.00    +0.000 A 
ATOM      6  C   UNL     1       2.354   6.304  19.725  0.00  0.00    +0.000 A 
ENDROOT
BRANCH   4   7
ATOM      7  N   UNL     1       0.579   9.328  20.664  0.00  0.00    +0.000 N 
ATOM      8  C   UNL     1       0.788   9.890  21.915  0.00  0.00    +0.000 C 
ATOM      9  O   UNL     1       1.667   9.545  22.700  0.00  0.00    +0.000 OA
ATOM     10  H   UNL     1      -0.179   9.666  20.093  0.00  0.00    +0.000 HD
BRANCH   8  11
ATOM     11  C   UNL     1      -0.135  10.974  22.248  0.00  0.00    +0.000 A 
ATOM     12  C   UNL     1      -1.246  10.962  23.083  0.00  0.00    +0.000 A 
ATOM     13  C   UNL     1      -1.856  12.244  23.048  0.00  0.00    +0.000 A 
ATOM     14  C   UNL     1      -1.085  13.034  22.224  0.00  0.00    +0.000 A 
ATOM     15  N   UNL     1      -0.057  12.265  21.736  0.00  0.00    +0.000 N 
ATOM     16  C   UNL     1       0.909  12.748  20.765  0.00  0.00    +0.000 C 
BRANCH  13  17
ATOM     17  N   UNL     1      -3.062  12.637  23.732  0.00  0.00    +0.000 N 
ATOM     18  O   UNL     1      -3.113  13.802  24.135  0.00  0.00    +0.000 OA
ATOM     19  O   UNL     1      -3.942  11.777  23.868  0.00  0.00    +0.000 OA
ENDBRANCH  13  17
ENDBRANCH   8  11
ENDBRANCH   4   7
BRANCH   6  20
ATOM     20  C   UNL     1       2.812   4.920  19.790  0.00  0.00    +0.000 C 
ATOM     21  O   UNL     1       3.838   4.581  20.373  0.00  0.00    +0.000 OA
ATOM     22  N   UNL     1       2.014   4.002  19.132  0.00  0.00    +0.000 N 
ATOM     23  H   UNL     1       1.166   4.316  18.687  0.00  0.00    +0.000 HD
BRANCH  22  24
ATOM     24  C   UNL     1       2.315   2.582  19.071  0.00  0.00    +0.000 C 
BRANCH  24  25
ATOM     25  C   UNL     1       3.068   2.199  17.795  0.00  0.00    +0.000 C 
BRANCH  25  26
ATOM     26  C   UNL     1       3.610   3.430  17.070  0.00  0.00    +0.000 C 
BRANCH  26  27
ATOM     27  N   UNL     1       5.015   3.652  17.420  0.00  0.00    +0.000 NA
ATOM     28  H   UNL     1       5.426   2.786  17.770  0.00  0.00    +0.000 HD
BRANCH  27  29
ATOM     29  C   UNL     1       5.758   4.101  16.242  0.00  0.00    +0.000 C 
BRANCH  29  30
ATOM     30  C   UNL     1       7.175   4.504  16.643  0.00  0.00    +0.000 C 
BRANCH  30  31
ATOM     31  C   UNL     1       7.160   5.842  17.383  0.00  0.00    +0.000 C 
BRANCH  31  32
ATOM     32  C   UNL     1       7.711   5.700  18.797  0.00  0.00    +0.000 C 
BRANCH  32  33
ATOM     33  N   UNL     1       6.635   5.330  19.709  0.00  0.00    +0.000 NA
ATOM     34  H   UNL     1       5.801   5.876  19.495  0.00  0.00    +0.000 HD
ATOM     35  H   UNL     1       6.900   5.570  20.662  0.00  0.00    +0.000 HD
ENDBRANCH  32  33
ENDBRANCH  31  32
ENDBRANCH  30  31
ENDBRANCH  29  30
ENDBRANCH  27  29
ENDBRANCH  26  27
ENDBRANCH  25  26
ENDBRANCH  24  25
ENDBRANCH  22  24
ENDBRANCH   6  20
TORSDOF 13
ENDMDL
MODEL 2
REMARK VINA RESULT:      -6.0      1.606      2.050
REMARK  Name = 
REMARK  15 active torsions:
REMARK  status: ('A' for Active; 'I' for Inactive)
REMARK    1  A    between atoms: C_1  and  N_2
REMARK    2  A    between atoms: C_4  and  N_5
REMARK    3  A    between atoms: C_6  and  C_8
REMARK    4  A    between atoms: C_10  and  N_11
REMARK    5  A    between atoms: N_15  and  C_16
REMARK    6  A    between atoms: C_18  and  C_19
REMARK    7  A    between atoms: N_21  and  C_22
REMARK    8  A    between atoms: C_22  and  C_23
REMARK    9  A    between atoms: C_23  and  C_24
REMARK   10  A    between atoms: C_24  and  N_25
REMARK   11  A    between atoms: N_25  and  C_26
REMARK   12  A    between atoms: C_26  and  C_27
REMARK   13  A    between atoms: C_27  and  C_28
REMARK   14  A    between atoms: C_28  and  C_29
REMARK   15  A    between atoms: C_29  and  N_30
REMARK                            x       y       z     vdW  Elec       q    Type
REMARK                         _______ _______ _______ _____ _____    ______ ____
ROOT
ATOM      1  C   UNL     1       3.124   7.852  17.656  0.00  0.00    +0.000 C 
ATOM      2  N   UNL     1       2.297   7.962  18.840  0.00  0.00    +0.000 N 
ATOM      3  C   UNL     1       1.467   9.032  19.046  0.00  0.00    +0.000 A 
ATOM      4  C   UNL     1       0.823   8.867  20.240  0.00  0.00    +0.000 A 
ATOM      5  C   UNL     1       1.284   7.640  20.782  0.00  0.00    +0.000 A 
ATOM      6  C   UNL     1       2.211   7.075  19.902  0.00  0.00    +0.000 A 
ENDROOT
BRANCH   4   7
ATOM      7  N   UNL     1      -0.106   9.716  20.815  0.00  0.00    +0.000 N 
ATOM      8  C   UNL     1       0.173  10.965  21.352  0.00  0.00    +0.000 C 
ATOM      9  O   UNL     1       1.292  11.462  21.424  0.00  0.00    +0.000 OA
ATOM     10  H   UNL     1      -1.056   9.383  20.812  0.00  0.00    +0.000 HD
BRANCH   8  11
ATOM     11  C   UNL     1      -1.004  11.686  21.835  0.00  0.00    +0.000 A 
ATOM     12  C   UNL     1      -1.562  11.714  23.108  0.00  0.00    +0.000 A 
ATOM     13  C   UNL     1      -2.732  12.517  23.076  0.00  0.00    +0.000 A 
ATOM     14  C   UNL     1      -2.850  13.003  21.793  0.00  0.00    +0.000 A 
ATOM     15  N   UNL     1      -1.816  12.493  21.046  0.00  0.00    +0.000 N 
ATOM     16  C   UNL     1      -1.672  12.726  19.620  0.00  0.00    +0.000 C 
BRANCH  13  17
ATOM     17  N   UNL     1      -3.631  12.763  24.174  0.00  0.00    +0.000 N 
ATOM     18  O   UNL     1      -4.487  11.902  24.390  0.00  0.00    +0.000 OA
ATOM     19  O   UNL     1      -3.480  13.818  24.806  0.00  0.00    +0.000 OA
ENDBRANCH  13  17
ENDBRANCH   8  11
ENDBRANCH   4   7
BRANCH   6  20
ATOM     20  C   UNL     1       2.959   5.826  20.006  0.00  0.00    +0.000 C 
ATOM     21  O   UNL     1       4.156   5.739  19.745  0.00  0.00    +0.000 OA
ATOM     22  N   UNL     1       2.223   4.728  20.410  0.00  0.00    +0.000 N 
ATOM     23  H   UNL     1       1.249   4.845  20.640  0.00  0.00    +0.000 HD
BRANCH  22  24
ATOM     24  C   UNL     1       2.788   3.397  20.555  0.00  0.00    +0.000 C 
BRANCH  24  25
ATOM     25  C   UNL     1       2.486   2.500  19.353  0.00  0.00    +0.000 C 
BRANCH  25  26
ATOM     26  C   UNL     1       1.541   3.182  18.364  0.00  0.00    +0.000 C 
BRANCH  26  27
ATOM     27  N   UNL     1       2.281   4.115  17.511  0.00  0.00    +0.000 NA
ATOM     28  H   UNL     1       2.627   4.895  18.069  0.00  0.00    +0.000 HD
BRANCH  27  29
ATOM     29  C   UNL     1       3.411   3.428  16.883  0.00  0.00    +0.000 C 
BRANCH  29  30
ATOM     30  C   UNL     1       4.577   4.398  16.709  0.00  0.00    +0.000 C 
BRANCH  30  31
ATOM     31  C   UNL     1       5.723   3.724  15.954  0.00  0.00    +0.000 C 
BRANCH  31  32
ATOM     32  C   UNL     1       6.888   4.685  15.742  0.00  0.00    +0.000 C 
BRANCH  32  33
ATOM     33  N   UNL     1       6.714   5.396  14.482  0.00  0.00    +0.000 NA
ATOM     34  H   UNL     1       5.963   4.965  13.945  0.00  0.00    +0.000 HD
ATOM     35  H   UNL     1       7.559   5.303  13.921  0.00  0.00    +0.000 HD
ENDBRANCH  32  33
ENDBRANCH  31  32
ENDBRANCH  30  31
ENDBRANCH  29  30
ENDBRANCH  27  29
ENDBRANCH  26  27
ENDBRANCH  25  26
ENDBRANCH  24  25
ENDBRANCH  22  24
ENDBRANCH   6  20
TORSDOF 13
ENDMDL
MODEL 3
REMARK VINA RESULT:      -6.0      1.330      1.633
REMARK  Name = 
REMARK  15 active torsions:
REMARK  status: ('A' for Active; 'I' for Inactive)
REMARK    1  A    between atoms: C_1  and  N_2
REMARK    2  A    between atoms: C_4  and  N_5
REMARK    3  A    between atoms: C_6  and  C_8
REMARK    4  A    between atoms: C_10  and  N_11
REMARK    5  A    between atoms: N_15  and  C_16
REMARK    6  A    between atoms: C_18  and  C_19
REMARK    7  A    between atoms: N_21  and  C_22
REMARK    8  A    between atoms: C_22  and  C_23
REMARK    9  A    between atoms: C_23  and  C_24
REMARK   10  A    between atoms: C_24  and  N_25
REMARK   11  A    between atoms: N_25  and  C_26
REMARK   12  A    between atoms: C_26  and  C_27
REMARK   13  A    between atoms: C_27  and  C_28
REMARK   14  A    between atoms: C_28  and  C_29
REMARK   15  A    between atoms: C_29  and  N_30
REMARK                            x       y       z     vdW  Elec       q    Type
REMARK                         _______ _______ _______ _____ _____    ______ ____
ROOT
ATOM      1  C   UNL     1       3.128   6.924  18.566  0.00  0.00    +0.000 C 
ATOM      2  N   UNL     1       2.145   7.296  19.563  0.00  0.00    +0.000 N 
ATOM      3  C   UNL     1       1.666   8.576  19.665  0.00  0.00    +0.000 A 
ATOM      4  C   UNL     1       0.765   8.628  20.691  0.00  0.00    +0.000 A 
ATOM      5  C   UNL     1       0.694   7.319  21.234  0.00  0.00    +0.000 A 
ATOM      6  C   UNL     1       1.562   6.486  20.525  0.00  0.00    +0.000 A 
ENDROOT
BRANCH   4   7
ATOM      7  N   UNL     1       0.047   9.730  21.120  0.00  0.00    +0.000 N 
ATOM      8  C   UNL     1       0.075  10.257  22.403  0.00  0.00    +0.000 C 
ATOM      9  O   UNL     1       0.713   9.785  23.340  0.00  0.00    +0.000 OA
ATOM     10  H   UNL     1      -0.518  10.179  20.417  0.00  0.00    +0.000 HD
BRANCH   8  11
ATOM     11  C   UNL     1      -0.725  11.469  22.572  0.00  0.00    +0.000 A 
ATOM     12  C   UNL     1      -1.950  11.637  23.208  0.00  0.00    +0.000 A 
ATOM     13  C   UNL     1      -2.355  12.990  23.067  0.00  0.00    +0.000 A 
ATOM     14  C   UNL     1      -1.353  13.640  22.382  0.00  0.00    +0.000 A 
ATOM     15  N   UNL     1      -0.379  12.721  22.077  0.00  0.00    +0.000 N 
ATOM     16  C   UNL     1       0.793  13.037  21.280  0.00  0.00    +0.000 C 
BRANCH  13  17
ATOM     17  N   UNL     1      -3.589  13.567  23.538  0.00  0.00    +0.000 N 
ATOM     18  O   UNL     1      -3.577  14.045  24.675  0.00  0.00    +0.000 OA
ATOM     19  O   UNL     1      -4.561  13.530  22.771  0.00  0.00    +0.000 OA
ENDBRANCH  13  17
ENDBRANCH   8  11
ENDBRANCH   4   7
BRANCH   6  20
ATOM     20  C   UNL     1       1.844   5.064  20.697  0.00  0.00    +0.000 C 
ATOM     21  O   UNL     1       2.635   4.634  21.533  0.00  0.00    +0.000 OA
ATOM     22  N   UNL     1       1.164   4.219  19.839  0.00  0.00    +0.000 N 
ATOM     23  H   UNL     1       0.504   4.609  19.185  0.00  0.00    +0.000 HD
BRANCH  22  24
ATOM     24  C   UNL     1       1.326   2.776  19.847  0.00  0.00    +0.000 C 
BRANCH  24  25
ATOM     25  C   UNL     1       1.645   2.216  18.459  0.00  0.00    +0.000 C 
BRANCH  25  26
ATOM     26  C   UNL     1       3.150   2.041  18.255  0.00  0.00    +0.000 C 
BRANCH  26  27
ATOM     27  N   UNL     1       3.890   3.043  19.026  0.00  0.00    +0.000 NA
ATOM     28  H   UNL     1       4.381   2.593  19.799  0.00  0.00    +0.000 HD
BRANCH  27  29
ATOM     29  C   UNL     1       4.860   3.720  18.164  0.00  0.00    +0.000 C 
BRANCH  29  30
ATOM     30  C   UNL     1       4.304   3.836  16.747  0.00  0.00    +0.000 C 
BRANCH  30  31
ATOM     31  C   UNL     1       5.367   4.393  15.800  0.00  0.00    +0.000 C 
BRANCH  31  32
ATOM     32  C   UNL     1       6.701   4.583  16.513  0.00  0.00    +0.000 C 
BRANCH  32  33
ATOM     33  N   UNL     1       7.368   5.773  15.999  0.00  0.00    +0.000 NA
ATOM     34  H   UNL     1       8.229   5.936  16.520  0.00  0.00    +0.000 HD
ATOM     35  H   UNL     1       6.777   6.587  16.155  0.00  0.00    +0.000 HD
ENDBRANCH  32  33
ENDBRANCH  31  32
ENDBRANCH  30  31
ENDBRANCH  29  30
ENDBRANCH  27  29
ENDBRANCH  26  27
ENDBRANCH  25  26
ENDBRANCH  24  25
ENDBRANCH  22  24
ENDBRANCH   6  20
TORSDOF 13
ENDMDL
MODEL 4
REMARK VINA RESULT:      -6.0      1.805      2.185
REMARK  Name = 
REMARK  15 active torsions:
REMARK  status: ('A' for Active; 'I' for Inactive)
REMARK    1  A    between atoms: C_1  and  N_2
REMARK    2  A    between atoms: C_4  and  N_5
REMARK    3  A    between atoms: C_6  and  C_8
REMARK    4  A    between atoms: C_10  and  N_11
REMARK    5  A    between atoms: N_15  and  C_16
REMARK    6  A    between atoms: C_18  and  C_19
REMARK    7  A    between atoms: N_21  and  C_22
REMARK    8  A    between atoms: C_22  and  C_23
REMARK    9  A    between atoms: C_23  and  C_24
REMARK   10  A    between atoms: C_24  and  N_25
REMARK   11  A    between atoms: N_25  and  C_26
REMARK   12  A    between atoms: C_26  and  C_27
REMARK   13  A    between atoms: C_27  and  C_28
REMARK   14  A    between atoms: C_28  and  C_29
REMARK   15  A    between atoms: C_29  and  N_30
REMARK                            x       y       z     vdW  Elec       q    Type
REMARK                         _______ _______ _______ _____ _____    ______ ____
ROOT
ATOM      1  C   UNL     1       3.326   7.316  17.154  0.00  0.00    +0.000 C 
ATOM      2  N   UNL     1       2.607   7.761  18.331  0.00  0.00    +0.000 N 
ATOM      3  C   UNL     1       2.075   9.020  18.420  0.00  0.00    +0.000 A 
ATOM      4  C   UNL     1       1.466   9.155  19.636  0.00  0.00    +0.000 A 
ATOM      5  C   UNL     1       1.637   7.921  20.314  0.00  0.00    +0.000 A 
ATOM      6  C   UNL     1       2.355   7.048  19.493  0.00  0.00    +0.000 A 
ENDROOT
BRANCH   4   7
ATOM      7  N   UNL     1       0.801  10.268  20.121  0.00  0.00    +0.000 N 
ATOM      8  C   UNL     1      -0.488  10.647  19.775  0.00  0.00    +0.000 C 
ATOM      9  O   UNL     1      -1.194  10.062  18.959  0.00  0.00    +0.000 OA
ATOM     10  H   UNL     1       1.312  10.819  20.792  0.00  0.00    +0.000 HD
BRANCH   8  11
ATOM     11  C   UNL     1      -0.977  11.827  20.486  0.00  0.00    +0.000 A 
ATOM     12  C   UNL     1      -1.561  11.922  21.744  0.00  0.00    +0.000 A 
ATOM     13  C   UNL     1      -1.918  13.275  21.981  0.00  0.00    +0.000 A 
ATOM     14  C   UNL     1      -1.511  13.997  20.880  0.00  0.00    +0.000 A 
ATOM     15  N   UNL     1      -0.955  13.122  19.979  0.00  0.00    +0.000 N 
ATOM     16  C   UNL     1      -0.492  13.522  18.662  0.00  0.00    +0.000 C 
BRANCH  13  17
ATOM     17  N   UNL     1      -2.593  13.791  23.144  0.00  0.00    +0.000 N 
ATOM     18  O   UNL     1      -1.877  14.215  24.055  0.00  0.00    +0.000 OA
ATOM     19  O   UNL     1      -3.831  13.761  23.142  0.00  0.00    +0.000 OA
ENDBRANCH  13  17
ENDBRANCH   8  11
ENDBRANCH   4   7
BRANCH   6  20
ATOM     20  C   UNL     1       2.778   5.673  19.733  0.00  0.00    +0.000 C 
ATOM     21  O   UNL     1       3.954   5.350  19.886  0.00  0.00    +0.000 OA
ATOM     22  N   UNL     1       1.760   4.738  19.766  0.00  0.00    +0.000 N 
ATOM     23  H   UNL     1       0.806   5.045  19.663  0.00  0.00    +0.000 HD
BRANCH  22  24
ATOM     24  C   UNL     1       1.986   3.318  19.976  0.00  0.00    +0.000 C 
BRANCH  24  25
ATOM     25  C   UNL     1       1.928   2.519  18.673  0.00  0.00    +0.000 C 
BRANCH  25  26
ATOM     26  C   UNL     1       3.259   1.830  18.374  0.00  0.00    +0.000 C 
BRANCH  26  27
ATOM     27  N   UNL     1       4.331   2.822  18.254  0.00  0.00    +0.000 NA
ATOM     28  H   UNL     1       5.237   2.370  18.373  0.00  0.00    +0.000 HD
BRANCH  27  29
ATOM     29  C   UNL     1       4.276   3.458  16.936  0.00  0.00    +0.000 C 
BRANCH  29  30
ATOM     30  C   UNL     1       5.504   4.342  16.734  0.00  0.00    +0.000 C 
BRANCH  30  31
ATOM     31  C   UNL     1       5.508   4.936  15.325  0.00  0.00    +0.000 C 
BRANCH  31  32
ATOM     32  C   UNL     1       6.684   4.415  14.506  0.00  0.00    +0.000 C 
BRANCH  32  33
ATOM     33  N   UNL     1       7.694   5.459  14.378  0.00  0.00    +0.000 NA
ATOM     34  H   UNL     1       8.500   5.230  14.959  0.00  0.00    +0.000 HD
ATOM     35  H   UNL     1       7.321   6.337  14.734  0.00  0.00    +0.000 HD
ENDBRANCH  32  33
ENDBRANCH  31  32
ENDBRANCH  30  31
ENDBRANCH  29  30
ENDBRANCH  27  29
ENDBRANCH  26  27
ENDBRANCH  25  26
ENDBRANCH  24  25
ENDBRANCH  22  24
ENDBRANCH   6  20
TORSDOF 13
ENDMDL
MODEL 5
REMARK VINA RESULT:      -5.9      2.714     10.720
REMARK  Name = 
REMARK  15 active torsions:
REMARK  status: ('A' for Active; 'I' for Inactive)
REMARK    1  A    between atoms: C_1  and  N_2
REMARK    2  A    between atoms: C_4  and  N_5
REMARK    3  A    between atoms: C_6  and  C_8
REMARK    4  A    between atoms: C_10  and  N_11
REMARK    5  A    between atoms: N_15  and  C_16
REMARK    6  A    between atoms: C_18  and  C_19
REMARK    7  A    between atoms: N_21  and  C_22
REMARK    8  A    between atoms: C_22  and  C_23
REMARK    9  A    between atoms: C_23  and  C_24
REMARK   10  A    between atoms: C_24  and  N_25
REMARK   11  A    between atoms: N_25  and  C_26
REMARK   12  A    between atoms: C_26  and  C_27
REMARK   13  A    between atoms: C_27  and  C_28
REMARK   14  A    between atoms: C_28  and  C_29
REMARK   15  A    between atoms: C_29  and  N_30
REMARK                            x       y       z     vdW  Elec       q    Type
REMARK                         _______ _______ _______ _____ _____    ______ ____
ROOT
ATOM      1  C   UNL     1       0.555   9.421  21.405  0.00  0.00    +0.000 C 
ATOM      2  N   UNL     1       1.036   9.208  20.055  0.00  0.00    +0.000 N 
ATOM      3  C   UNL     1       1.909   8.199  19.748  0.00  0.00    +0.000 A 
ATOM      4  C   UNL     1       2.188   8.248  18.411  0.00  0.00    +0.000 A 
ATOM      5  C   UNL     1       1.447   9.337  17.884  0.00  0.00    +0.000 A 
ATOM      6  C   UNL     1       0.726   9.939  18.918  0.00  0.00    +0.000 A 
ENDROOT
BRANCH   4   7
ATOM      7  N   UNL     1       3.018   7.403  17.697  0.00  0.00    +0.000 N 
ATOM      8  C   UNL     1       3.730   6.338  18.230  0.00  0.00    +0.000 C 
ATOM      9  O   UNL     1       3.747   6.032  19.419  0.00  0.00    +0.000 OA
ATOM     10  H   UNL     1       3.075   7.587  16.708  0.00  0.00    +0.000 HD
BRANCH   8  11
ATOM     11  C   UNL     1       4.478   5.562  17.242  0.00  0.00    +0.000 A 
ATOM     12  C   UNL     1       5.480   5.975  16.371  0.00  0.00    +0.000 A 
ATOM     13  C   UNL     1       5.867   4.871  15.566  0.00  0.00    +0.000 A 
ATOM     14  C   UNL     1       5.125   3.788  15.985  0.00  0.00    +0.000 A 
ATOM     15  N   UNL     1       4.283   4.209  16.985  0.00  0.00    +0.000 N 
ATOM     16  C   UNL     1       3.292   3.350  17.607  0.00  0.00    +0.000 C 
BRANCH  13  17
ATOM     17  N   UNL     1       6.839   4.886  14.502  0.00  0.00    +0.000 N 
ATOM     18  O   UNL     1       7.826   5.607  14.667  0.00  0.00    +0.000 OA
ATOM     19  O   UNL     1       6.605   4.185  13.509  0.00  0.00    +0.000 OA
ENDBRANCH  13  17
ENDBRANCH   8  11
ENDBRANCH   4   7
BRANCH   6  20
ATOM     20  C   UNL     1      -0.177  11.084  18.886  0.00  0.00    +0.000 C 
ATOM     21  O   UNL     1      -1.365  11.010  19.189  0.00  0.00    +0.000 OA
ATOM     22  N   UNL     1       0.392  12.275  18.473  0.00  0.00    +0.000 N 
ATOM     23  H   UNL     1       1.377  12.302  18.258  0.00  0.00    +0.000 HD
BRANCH  22  24
ATOM     24  C   UNL     1      -0.351  13.518  18.360  0.00  0.00    +0.000 C 
BRANCH  24  25
ATOM     25  C   UNL     1       0.189  14.608  19.289  0.00  0.00    +0.000 C 
BRANCH  25  26
ATOM     26  C   UNL     1      -0.768  14.885  20.448  0.00  0.00    +0.000 C 
BRANCH  26  27
ATOM     27  N   UNL     1      -1.317  13.631  20.968  0.00  0.00    +0.000 NA
ATOM     28  H   UNL     1      -1.189  12.886  20.283  0.00  0.00    +0.000 HD
BRANCH  27  29
ATOM     29  C   UNL     1      -0.638  13.267  22.213  0.00  0.00    +0.000 C 
BRANCH  29  30
ATOM     30  C   UNL     1      -1.493  13.676  23.410  0.00  0.00    +0.000 C 
BRANCH  30  31
ATOM     31  C   UNL     1      -2.979  13.591  23.059  0.00  0.00    +0.000 C 
BRANCH  31  32
ATOM     32  C   UNL     1      -3.694  12.557  23.922  0.00  0.00    +0.000 C 
BRANCH  32  33
ATOM     33  N   UNL     1      -4.093  13.164  25.186  0.00  0.00    +0.000 NA
ATOM     34  H   UNL     1      -5.109  13.140  25.272  0.00  0.00    +0.000 HD
ATOM     35  H   UNL     1      -3.827  14.147  25.189  0.00  0.00    +0.000 HD
ENDBRANCH  32  33
ENDBRANCH  31  32
ENDBRANCH  30  31
ENDBRANCH  29  30
ENDBRANCH  27  29
ENDBRANCH  26  27
ENDBRANCH  25  26
ENDBRANCH  24  25
ENDBRANCH  22  24
ENDBRANCH   6  20
TORSDOF 13
ENDMDL
MODEL 6
REMARK VINA RESULT:      -5.9      3.154     10.697
REMARK  Name = 
REMARK  15 active torsions:
REMARK  status: ('A' for Active; 'I' for Inactive)
REMARK    1  A    between atoms: C_1  and  N_2
REMARK    2  A    between atoms: C_4  and  N_5
REMARK    3  A    between atoms: C_6  and  C_8
REMARK    4  A    between atoms: C_10  and  N_11
REMARK    5  A    between atoms: N_15  and  C_16
REMARK    6  A    between atoms: C_18  and  C_19
REMARK    7  A    between atoms: N_21  and  C_22
REMARK    8  A    between atoms: C_22  and  C_23
REMARK    9  A    between atoms: C_23  and  C_24
REMARK   10  A    between atoms: C_24  and  N_25
REMARK   11  A    between atoms: N_25  and  C_26
REMARK   12  A    between atoms: C_26  and  C_27
REMARK   13  A    between atoms: C_27  and  C_28
REMARK   14  A    between atoms: C_28  and  C_29
REMARK   15  A    between atoms: C_29  and  N_30
REMARK                            x       y       z     vdW  Elec       q    Type
REMARK                         _______ _______ _______ _____ _____    ______ ____
ROOT
ATOM      1  C   UNL     1      -0.081   8.979  21.735  0.00  0.00    +0.000 C 
ATOM      2  N   UNL     1       0.689   8.913  20.509  0.00  0.00    +0.000 N 
ATOM      3  C   UNL     1       1.647   7.955  20.306  0.00  0.00    +0.000 A 
ATOM      4  C   UNL     1       2.205   8.145  19.073  0.00  0.00    +0.000 A 
ATOM      5  C   UNL     1       1.554   9.269  18.503  0.00  0.00    +0.000 A 
ATOM      6  C   UNL     1       0.604   9.750  19.406  0.00  0.00    +0.000 A 
ENDROOT
BRANCH   4   7
ATOM      7  N   UNL     1       3.203   7.391  18.481  0.00  0.00    +0.000 N 
ATOM      8  C   UNL     1       3.110   6.044  18.164  0.00  0.00    +0.000 C 
ATOM      9  O   UNL     1       2.139   5.333  18.408  0.00  0.00    +0.000 OA
ATOM     10  H   UNL     1       4.047   7.893  18.254  0.00  0.00    +0.000 HD
BRANCH   8  11
ATOM     11  C   UNL     1       4.285   5.505  17.481  0.00  0.00    +0.000 A 
ATOM     12  C   UNL     1       4.690   5.668  16.161  0.00  0.00    +0.000 A 
ATOM     13  C   UNL     1       5.871   4.910  15.950  0.00  0.00    +0.000 A 
ATOM     14  C   UNL     1       6.196   4.327  17.155  0.00  0.00    +0.000 A 
ATOM     15  N   UNL     1       5.234   4.678  18.071  0.00  0.00    +0.000 N 
ATOM     16  C   UNL     1       5.208   4.174  19.432  0.00  0.00    +0.000 C 
BRANCH  13  17
ATOM     17  N   UNL     1       6.585   4.765  14.706  0.00  0.00    +0.000 N 
ATOM     18  O   UNL     1       7.506   5.560  14.503  0.00  0.00    +0.000 OA
ATOM     19  O   UNL     1       6.214   3.865  13.941  0.00  0.00    +0.000 OA
ENDBRANCH  13  17
ENDBRANCH   8  11
ENDBRANCH   4   7
BRANCH   6  20
ATOM     20  C   UNL     1      -0.316  10.876  19.286  0.00  0.00    +0.000 C 
ATOM     21  O   UNL     1      -0.271  11.860  20.019  0.00  0.00    +0.000 OA
ATOM     22  N   UNL     1      -1.266  10.759  18.288  0.00  0.00    +0.000 N 
ATOM     23  H   UNL     1      -1.254   9.948  17.689  0.00  0.00    +0.000 HD
BRANCH  22  24
ATOM     24  C   UNL     1      -2.277  11.769  18.026  0.00  0.00    +0.000 C 
BRANCH  24  25
ATOM     25  C   UNL     1      -3.690  11.183  17.985  0.00  0.00    +0.000 C 
BRANCH  25  26
ATOM     26  C   UNL     1      -4.619  11.883  18.976  0.00  0.00    +0.000 C 
BRANCH  26  27
ATOM     27  N   UNL     1      -3.876  12.870  19.764  0.00  0.00    +0.000 NA
ATOM     28  H   UNL     1      -4.137  13.812  19.474  0.00  0.00    +0.000 HD
BRANCH  27  29
ATOM     29  C   UNL     1      -4.173  12.699  21.186  0.00  0.00    +0.000 C 
BRANCH  29  30
ATOM     30  C   UNL     1      -3.572  13.852  21.986  0.00  0.00    +0.000 C 
BRANCH  30  31
ATOM     31  C   UNL     1      -3.731  13.603  23.486  0.00  0.00    +0.000 C 
BRANCH  31  32
ATOM     32  C   UNL     1      -4.984  12.785  23.782  0.00  0.00    +0.000 C 
BRANCH  32  33
ATOM     33  N   UNL     1      -4.840  12.115  25.068  0.00  0.00    +0.000 NA
ATOM     34  H   UNL     1      -3.852  11.975  25.274  0.00  0.00    +0.000 HD
ATOM     35  H   UNL     1      -5.257  11.187  25.015  0.00  0.00    +0.000 HD
ENDBRANCH  32  33
ENDBRANCH  31  32
ENDBRANCH  30  31
ENDBRANCH  29  30
ENDBRANCH  27  29
ENDBRANCH  26  27
ENDBRANCH  25  26
ENDBRANCH  24  25
ENDBRANCH  22  24
ENDBRANCH   6  20
TORSDOF 13
ENDMDL
MODEL 7
REMARK VINA RESULT:      -5.9      2.480      3.602
REMARK  Name = 
REMARK  15 active torsions:
REMARK  status: ('A' for Active; 'I' for Inactive)
REMARK    1  A    between atoms: C_1  and  N_2
REMARK    2  A    between atoms: C_4  and  N_5
REMARK    3  A    between atoms: C_6  and  C_8
REMARK    4  A    between atoms: C_10  and  N_11
REMARK    5  A    between atoms: N_15  and  C_16
REMARK    6  A    between atoms: C_18  and  C_19
REMARK    7  A    between atoms: N_21  and  C_22
REMARK    8  A    between atoms: C_22  and  C_23
REMARK    9  A    between atoms: C_23  and  C_24
REMARK   10  A    between atoms: C_24  and  N_25
REMARK   11  A    between atoms: N_25  and  C_26
REMARK   12  A    between atoms: C_26  and  C_27
REMARK   13  A    between atoms: C_27  and  C_28
REMARK   14  A    between atoms: C_28  and  C_29
REMARK   15  A    between atoms: C_29  and  N_30
REMARK                            x       y       z     vdW  Elec       q    Type
REMARK                         _______ _______ _______ _____ _____    ______ ____
ROOT
ATOM      1  C   UNL     1       1.963   3.782  20.401  0.00  0.00    +0.000 C 
ATOM      2  N   UNL     1       2.033   5.224  20.277  0.00  0.00    +0.000 N 
ATOM      3  C   UNL     1       1.082   6.045  20.826  0.00  0.00    +0.000 A 
ATOM      4  C   UNL     1       1.406   7.342  20.543  0.00  0.00    +0.000 A 
ATOM      5  C   UNL     1       2.607   7.305  19.791  0.00  0.00    +0.000 A 
ATOM      6  C   UNL     1       2.998   5.975  19.624  0.00  0.00    +0.000 A 
ENDROOT
BRANCH   4   7
ATOM      7  N   UNL     1       0.712   8.479  20.920  0.00  0.00    +0.000 N 
ATOM      8  C   UNL     1       1.075   9.337  21.948  0.00  0.00    +0.000 C 
ATOM      9  O   UNL     1       2.041   9.174  22.687  0.00  0.00    +0.000 OA
ATOM     10  H   UNL     1      -0.108   8.686  20.373  0.00  0.00    +0.000 HD
BRANCH   8  11
ATOM     11  C   UNL     1       0.204  10.502  22.092  0.00  0.00    +0.000 A 
ATOM     12  C   UNL     1      -0.834  10.723  22.991  0.00  0.00    +0.000 A 
ATOM     13  C   UNL     1      -1.420  11.985  22.709  0.00  0.00    +0.000 A 
ATOM     14  C   UNL     1      -0.705  12.537  21.669  0.00  0.00    +0.000 A 
ATOM     15  N   UNL     1       0.264  11.639  21.293  0.00  0.00    +0.000 N 
ATOM     16  C   UNL     1       1.155  11.851  20.166  0.00  0.00    +0.000 C 
BRANCH  13  17
ATOM     17  N   UNL     1      -2.556  12.569  23.375  0.00  0.00    +0.000 N 
ATOM     18  O   UNL     1      -3.575  11.876  23.438  0.00  0.00    +0.000 OA
ATOM     19  O   UNL     1      -2.424  13.716  23.822  0.00  0.00    +0.000 OA
ENDBRANCH  13  17
ENDBRANCH   8  11
ENDBRANCH   4   7
BRANCH   6  20
ATOM     20  C   UNL     1       4.156   5.419  18.932  0.00  0.00    +0.000 C 
ATOM     21  O   UNL     1       5.293   5.449  19.396  0.00  0.00    +0.000 OA
ATOM     22  N   UNL     1       3.893   4.859  17.695  0.00  0.00    +0.000 N 
ATOM     23  H   UNL     1       2.943   4.830  17.360  0.00  0.00    +0.000 HD
BRANCH  22  24
ATOM     24  C   UNL     1       4.918   4.272  16.850  0.00  0.00    +0.000 C 
BRANCH  24  25
ATOM     25  C   UNL     1       5.155   5.079  15.572  0.00  0.00    +0.000 C 
BRANCH  25  26
ATOM     26  C   UNL     1       6.556   4.844  15.009  0.00  0.00    +0.000 C 
BRANCH  26  27
ATOM     27  N   UNL     1       6.605   3.579  14.272  0.00  0.00    +0.000 NA
ATOM     28  H   UNL     1       6.224   2.828  14.848  0.00  0.00    +0.000 HD
BRANCH  27  29
ATOM     29  C   UNL     1       5.823   3.689  13.039  0.00  0.00    +0.000 C 
BRANCH  29  30
ATOM     30  C   UNL     1       6.753   3.650  11.829  0.00  0.00    +0.000 C 
BRANCH  30  31
ATOM     31  C   UNL     1       7.117   2.206  11.482  0.00  0.00    +0.000 C 
BRANCH  31  32
ATOM     32  C   UNL     1       5.870   1.360  11.248  0.00  0.00    +0.000 C 
BRANCH  32  33
ATOM     33  N   UNL     1       6.192  -0.050  11.426  0.00  0.00    +0.000 NA
ATOM     34  H   UNL     1       6.564  -0.201  12.364  0.00  0.00    +0.000 HD
ATOM     35  H   UNL     1       6.931  -0.314  10.777  0.00  0.00    +0.000 HD
ENDBRANCH  32  33
ENDBRANCH  31  32
ENDBRANCH  30  31
ENDBRANCH  29  30
ENDBRANCH  27  29
ENDBRANCH  26  27
ENDBRANCH  25  26
ENDBRANCH  24  25
ENDBRANCH  22  24
ENDBRANCH   6  20
TORSDOF 13
ENDMDL
MODEL 8
REMARK VINA RESULT:      -5.9      0.810      1.015
REMARK  Name = 
REMARK  15 active torsions:
REMARK  status: ('A' for Active; 'I' for Inactive)
REMARK    1  A    between atoms: C_1  and  N_2
REMARK    2  A    between atoms: C_4  and  N_5
REMARK    3  A    between atoms: C_6  and  C_8
REMARK    4  A    between atoms: C_10  and  N_11
REMARK    5  A    between atoms: N_15  and  C_16
REMARK    6  A    between atoms: C_18  and  C_19
REMARK    7  A    between atoms: N_21  and  C_22
REMARK    8  A    between atoms: C_22  and  C_23
REMARK    9  A    between atoms: C_23  and  C_24
REMARK   10  A    between atoms: C_24  and  N_25
REMARK   11  A    between atoms: N_25  and  C_26
REMARK   12  A    between atoms: C_26  and  C_27
REMARK   13  A    between atoms: C_27  and  C_28
REMARK   14  A    between atoms: C_28  and  C_29
REMARK   15  A    between atoms: C_29  and  N_30
REMARK                            x       y       z     vdW  Elec       q    Type
REMARK                         _______ _______ _______ _____ _____    ______ ____
ROOT
ATOM      1  C   UNL     1       3.047   7.861  17.436  0.00  0.00    +0.000 C 
ATOM      2  N   UNL     1       2.288   8.010  18.662  0.00  0.00    +0.000 N 
ATOM      3  C   UNL     1       1.582   9.151  18.941  0.00  0.00    +0.000 A 
ATOM      4  C   UNL     1       0.977   9.007  20.158  0.00  0.00    +0.000 A 
ATOM      5  C   UNL     1       1.332   7.720  20.637  0.00  0.00    +0.000 A 
ATOM      6  C   UNL     1       2.156   7.097  19.696  0.00  0.00    +0.000 A 
ENDROOT
BRANCH   4   7
ATOM      7  N   UNL     1       0.167   9.924  20.804  0.00  0.00    +0.000 N 
ATOM      8  C   UNL     1       0.303  10.325  22.125  0.00  0.00    +0.000 C 
ATOM      9  O   UNL     1       1.139   9.884  22.908  0.00  0.00    +0.000 OA
ATOM     10  H   UNL     1      -0.560  10.332  20.239  0.00  0.00    +0.000 HD
BRANCH   8  11
ATOM     11  C   UNL     1      -0.645  11.359  22.539  0.00  0.00    +0.000 A 
ATOM     12  C   UNL     1      -1.803  11.242  23.298  0.00  0.00    +0.000 A 
ATOM     13  C   UNL     1      -2.417  12.519  23.392  0.00  0.00    +0.000 A 
ATOM     14  C   UNL     1      -1.603  13.406  22.723  0.00  0.00    +0.000 A 
ATOM     15  N   UNL     1      -0.544  12.705  22.203  0.00  0.00    +0.000 N 
ATOM     16  C   UNL     1       0.475  13.307  21.361  0.00  0.00    +0.000 C 
BRANCH  13  17
ATOM     17  N   UNL     1      -3.664  12.823  24.048  0.00  0.00    +0.000 N 
ATOM     18  O   UNL     1      -4.469  11.895  24.159  0.00  0.00    +0.000 OA
ATOM     19  O   UNL     1      -3.830  13.986  24.439  0.00  0.00    +0.000 OA
ENDBRANCH  13  17
ENDBRANCH   8  11
ENDBRANCH   4   7
BRANCH   6  20
ATOM     20  C   UNL     1       2.776   5.776  19.724  0.00  0.00    +0.000 C 
ATOM     21  O   UNL     1       3.945   5.591  20.049  0.00  0.00    +0.000 OA
ATOM     22  N   UNL     1       1.955   4.730  19.342  0.00  0.00    +0.000 N 
ATOM     23  H   UNL     1       0.993   4.920  19.108  0.00  0.00    +0.000 HD
BRANCH  22  24
ATOM     24  C   UNL     1       2.396   3.347  19.289  0.00  0.00    +0.000 C 
BRANCH  24  25
ATOM     25  C   UNL     1       3.786   3.201  18.667  0.00  0.00    +0.000 C 
BRANCH  25  26
ATOM     26  C   UNL     1       3.757   3.447  17.159  0.00  0.00    +0.000 C 
BRANCH  26  27
ATOM     27  N   UNL     1       5.119   3.469  16.619  0.00  0.00    +0.000 NA
ATOM     28  H   UNL     1       5.244   2.698  15.963  0.00  0.00    +0.000 HD
BRANCH  27  29
ATOM     29  C   UNL     1       5.362   4.737  15.930  0.00  0.00    +0.000 C 
BRANCH  29  30
ATOM     30  C   UNL     1       6.081   5.707  16.864  0.00  0.00    +0.000 C 
BRANCH  30  31
ATOM     31  C   UNL     1       7.350   5.066  17.427  0.00  0.00    +0.000 C 
BRANCH  31  32
ATOM     32  C   UNL     1       7.750   5.700  18.755  0.00  0.00    +0.000 C 
BRANCH  32  33
ATOM     33  N   UNL     1       6.810   5.297  19.794  0.00  0.00    +0.000 NA
ATOM     34  H   UNL     1       7.275   4.674  20.454  0.00  0.00    +0.000 HD
ATOM     35  H   UNL     1       6.052   4.761  19.377  0.00  0.00    +0.000 HD
ENDBRANCH  32  33
ENDBRANCH  31  32
ENDBRANCH  30  31
ENDBRANCH  29  30
ENDBRANCH  27  29
ENDBRANCH  26  27
ENDBRANCH  25  26
ENDBRANCH  24  25
ENDBRANCH  22  24
ENDBRANCH   6  20
TORSDOF 13
ENDMDL
MODEL 9
REMARK VINA RESULT:      -5.9      2.469      3.317
REMARK  Name = 
REMARK  15 active torsions:
REMARK  status: ('A' for Active; 'I' for Inactive)
REMARK    1  A    between atoms: C_1  and  N_2
REMARK    2  A    between atoms: C_4  and  N_5
REMARK    3  A    between atoms: C_6  and  C_8
REMARK    4  A    between atoms: C_10  and  N_11
REMARK    5  A    between atoms: N_15  and  C_16
REMARK    6  A    between atoms: C_18  and  C_19
REMARK    7  A    between atoms: N_21  and  C_22
REMARK    8  A    between atoms: C_22  and  C_23
REMARK    9  A    between atoms: C_23  and  C_24
REMARK   10  A    between atoms: C_24  and  N_25
REMARK   11  A    between atoms: N_25  and  C_26
REMARK   12  A    between atoms: C_26  and  C_27
REMARK   13  A    between atoms: C_27  and  C_28
REMARK   14  A    between atoms: C_28  and  C_29
REMARK   15  A    between atoms: C_29  and  N_30
REMARK                            x       y       z     vdW  Elec       q    Type
REMARK                         _______ _______ _______ _____ _____    ______ ____
ROOT
ATOM      1  C   UNL     1       2.394   3.970  21.021  0.00  0.00    +0.000 C 
ATOM      2  N   UNL     1       2.473   5.203  20.262  0.00  0.00    +0.000 N 
ATOM      3  C   UNL     1       1.830   6.343  20.665  0.00  0.00    +0.000 A 
ATOM      4  C   UNL     1       2.080   7.333  19.757  0.00  0.00    +0.000 A 
ATOM      5  C   UNL     1       2.913   6.767  18.759  0.00  0.00    +0.000 A 
ATOM      6  C   UNL     1       3.158   5.429  19.078  0.00  0.00    +0.000 A 
ENDROOT
BRANCH   4   7
ATOM      7  N   UNL     1       1.624   8.639  19.796  0.00  0.00    +0.000 N 
ATOM      8  C   UNL     1       1.161   9.361  18.705  0.00  0.00    +0.000 C 
ATOM      9  O   UNL     1       1.136   8.945  17.550  0.00  0.00    +0.000 OA
ATOM     10  H   UNL     1       1.620   9.069  20.707  0.00  0.00    +0.000 HD
BRANCH   8  11
ATOM     11  C   UNL     1       0.673  10.700  19.035  0.00  0.00    +0.000 A 
ATOM     12  C   UNL     1      -0.518  11.080  19.643  0.00  0.00    +0.000 A 
ATOM     13  C   UNL     1      -0.565  12.497  19.704  0.00  0.00    +0.000 A 
ATOM     14  C   UNL     1       0.616  12.963  19.170  0.00  0.00    +0.000 A 
ATOM     15  N   UNL     1       1.354  11.880  18.758  0.00  0.00    +0.000 N 
ATOM     16  C   UNL     1       2.625  11.998  18.067  0.00  0.00    +0.000 C 
BRANCH  13  17
ATOM     17  N   UNL     1      -1.652  13.296  20.214  0.00  0.00    +0.000 N 
ATOM     18  O   UNL     1      -1.352  14.388  20.703  0.00  0.00    +0.000 OA
ATOM     19  O   UNL     1      -2.792  12.822  20.128  0.00  0.00    +0.000 OA
ENDBRANCH  13  17
ENDBRANCH   8  11
ENDBRANCH   4   7
BRANCH   6  20
ATOM     20  C   UNL     1       3.952   4.429  18.372  0.00  0.00    +0.000 C 
ATOM     21  O   UNL     1       4.494   3.483  18.937  0.00  0.00    +0.000 OA
ATOM     22  N   UNL     1       4.069   4.623  17.008  0.00  0.00    +0.000 N 
ATOM     23  H   UNL     1       3.588   5.397  16.577  0.00  0.00    +0.000 HD
BRANCH  22  24
ATOM     24  C   UNL     1       4.833   3.743  16.139  0.00  0.00    +0.000 C 
BRANCH  24  25
ATOM     25  C   UNL     1       5.749   4.514  15.187  0.00  0.00    +0.000 C 
BRANCH  25  26
ATOM     26  C   UNL     1       6.691   5.449  15.945  0.00  0.00    +0.000 C 
BRANCH  26  27
ATOM     27  N   UNL     1       7.741   4.681  16.619  0.00  0.00    +0.000 NA
ATOM     28  H   UNL     1       8.657   4.984  16.289  0.00  0.00    +0.000 HD
BRANCH  27  29
ATOM     29  C   UNL     1       7.655   4.880  18.066  0.00  0.00    +0.000 C 
BRANCH  29  30
ATOM     30  C   UNL     1       7.068   6.257  18.367  0.00  0.00    +0.000 C 
BRANCH  30  31
ATOM     31  C   UNL     1       8.183   7.294  18.506  0.00  0.00    +0.000 C 
BRANCH  31  32
ATOM     32  C   UNL     1       7.911   8.520  17.642  0.00  0.00    +0.000 C 
BRANCH  32  33
ATOM     33  N   UNL     1       8.623   9.671  18.184  0.00  0.00    +0.000 NA
ATOM     34  H   UNL     1       7.957  10.400  18.437  0.00  0.00    +0.000 HD
ATOM     35  H   UNL     1       9.224  10.068  17.464  0.00  0.00    +0.000 HD
ENDBRANCH  32  33
ENDBRANCH  31  32
ENDBRANCH  30  31
ENDBRANCH  29  30
ENDBRANCH  27  29
ENDBRANCH  26  27
ENDBRANCH  25  26
ENDBRANCH  24  25
ENDBRANCH  22  24
ENDBRANCH   6  20
TORSDOF 13
ENDMDL
