MODEL 1
REMARK VINA RESULT:      -8.7      0.000      0.000
REMARK  Name = 
REMARK  7 active torsions:
REMARK  status: ('A' for Active; 'I' for Inactive)
REMARK    1  A    between atoms: C_1  and  C_2
REMARK    2  A    between atoms: C_2  and  C_3
REMARK    3  A    between atoms: C_2  and  C_4
REMARK    4  A    between atoms: C_2  and  C_5
REMARK    5  A    between atoms: C_7  and  C_8
REMARK    6  A    between atoms: C_21  and  C_22
REMARK    7  A    between atoms: C_21  and  C_23
REMARK                            x       y       z     vdW  Elec       q    Type
REMARK                         _______ _______ _______ _____ _____    ______ ____
ROOT
ATOM      1  C   UNL     1       5.328   5.734  18.359  0.00  0.00    +0.000 A 
ATOM      2  C   UNL     1       4.509   6.875  18.148  0.00  0.00    +0.000 A 
ATOM      3  C   UNL     1       3.130   6.860  18.454  0.00  0.00    +0.000 A 
ATOM      4  C   UNL     1       2.539   5.704  18.964  0.00  0.00    +0.000 A 
ATOM      5  C   UNL     1       3.325   4.586  19.170  0.00  0.00    +0.000 A 
ATOM      6  C   UNL     1       4.679   4.604  18.876  0.00  0.00    +0.000 A 
ATOM      7  O   UNL     1       5.290   3.413  19.170  0.00  0.00    +0.000 OA
ATOM      8  C   UNL     1       4.260   2.543  19.704  0.00  0.00    +0.000 C 
ATOM      9  C   UNL     1       2.908   3.282  19.749  0.00  0.00    +0.000 C 
ATOM     10  C   UNL     1       2.399   3.453  21.186  0.00  0.00    +0.000 C 
ATOM     11  C   UNL     1       1.847   2.594  18.884  0.00  0.00    +0.000 C 
ENDROOT
BRANCH   3  12
ATOM     12  C   UNL     1       2.252   8.051  18.368  0.00  0.00    +0.000 C 
ATOM     13  O   UNL     1       2.210   8.642  17.292  0.00  0.00    +0.000 OA
ATOM     14  N   UNL     1       1.638   8.464  19.534  0.00  0.00    +0.000 N 
ATOM     15  C   UNL     1       0.875   9.588  19.689  0.00  0.00    +0.000 C 
ATOM     16  N   UNL     1       0.780  10.139  20.852  0.00  0.00    +0.000 NA
ATOM     17  C   UNL     1      -0.063  11.354  20.738  0.00  0.00    +0.000 C 
ATOM     18  C   UNL     1      -0.129  11.831  19.295  0.00  0.00    +0.000 C 
ATOM     19  S   UNL     1       0.000  10.300  18.373  0.00  0.00    +0.000 S 
ATOM     20  H   UNL     1       1.988   8.098  20.407  0.00  0.00    +0.000 HD
ENDBRANCH   3  12
BRANCH   1  22
ATOM     21  C   UNL     1       7.296   4.570  17.162  0.00  0.00    +0.000 C 
ATOM     22  C   UNL     1       6.842   5.740  18.069  0.00  0.00    +0.000 C 
ATOM     23  C   UNL     1       7.636   5.617  19.388  0.00  0.00    +0.000 C 
ATOM     24  C   UNL     1       7.260   7.041  17.346  0.00  0.00    +0.000 C 
ENDBRANCH   1  22
TORSDOF 2
ENDMDL
MODEL 2
REMARK VINA RESULT:      -8.5      1.162      3.766
REMARK  Name = 
REMARK  7 active torsions:
REMARK  status: ('A' for Active; 'I' for Inactive)
REMARK    1  A    between atoms: C_1  and  C_2
REMARK    2  A    between atoms: C_2  and  C_3
REMARK    3  A    between atoms: C_2  and  C_4
REMARK    4  A    between atoms: C_2  and  C_5
REMARK    5  A    between atoms: C_7  and  C_8
REMARK    6  A    between atoms: C_21  and  C_22
REMARK    7  A    between atoms: C_21  and  C_23
REMARK                            x       y       z     vdW  Elec       q    Type
REMARK                         _______ _______ _______ _____ _____    ______ ____
ROOT
ATOM      1  C   UNL     1       2.778   4.815  18.876  0.00  0.00    +0.000 A 
ATOM      2  C   UNL     1       2.138   6.069  19.060  0.00  0.00    +0.000 A 
ATOM      3  C   UNL     1       2.633   7.246  18.458  0.00  0.00    +0.000 A 
ATOM      4  C   UNL     1       3.785   7.199  17.672  0.00  0.00    +0.000 A 
ATOM      5  C   UNL     1       4.419   5.986  17.489  0.00  0.00    +0.000 A 
ATOM      6  C   UNL     1       3.928   4.829  18.073  0.00  0.00    +0.000 A 
ATOM      7  O   UNL     1       4.678   3.727  17.756  0.00  0.00    +0.000 OA
ATOM      8  C   UNL     1       5.745   4.191  16.890  0.00  0.00    +0.000 C 
ATOM      9  C   UNL     1       5.618   5.709  16.653  0.00  0.00    +0.000 C 
ATOM     10  C   UNL     1       5.350   6.035  15.178  0.00  0.00    +0.000 C 
ATOM     11  C   UNL     1       6.845   6.475  17.156  0.00  0.00    +0.000 C 
ENDROOT
BRANCH   3  12
ATOM     12  C   UNL     1       1.944   8.557  18.516  0.00  0.00    +0.000 C 
ATOM     13  O   UNL     1       1.956   9.245  17.499  0.00  0.00    +0.000 OA
ATOM     14  N   UNL     1       1.438   8.946  19.740  0.00  0.00    +0.000 N 
ATOM     15  C   UNL     1       0.859  10.151  20.028  0.00  0.00    +0.000 C 
ATOM     16  N   UNL     1       0.886  10.599  21.238  0.00  0.00    +0.000 NA
ATOM     17  C   UNL     1       0.233  11.930  21.270  0.00  0.00    +0.000 C 
ATOM     18  C   UNL     1       0.193  12.545  19.877  0.00  0.00    +0.000 C 
ATOM     19  S   UNL     1       0.060  11.103  18.821  0.00  0.00    +0.000 S 
ATOM     20  H   UNL     1       1.756   8.453  20.562  0.00  0.00    +0.000 HD
ENDBRANCH   3  12
BRANCH   1  22
ATOM     21  C   UNL     1       3.283   2.744  20.331  0.00  0.00    +0.000 C 
ATOM     22  C   UNL     1       2.233   3.511  19.491  0.00  0.00    +0.000 C 
ATOM     23  C   UNL     1       1.769   2.550  18.373  0.00  0.00    +0.000 C 
ATOM     24  C   UNL     1       1.044   3.801  20.435  0.00  0.00    +0.000 C 
ENDBRANCH   1  22
TORSDOF 2
ENDMDL
MODEL 3
REMARK VINA RESULT:      -8.5      0.798      1.051
REMARK  Name = 
REMARK  7 active torsions:
REMARK  status: ('A' for Active; 'I' for Inactive)
REMARK    1  A    between atoms: C_1  and  C_2
REMARK    2  A    between atoms: C_2  and  C_3
REMARK    3  A    between atoms: C_2  and  C_4
REMARK    4  A    between atoms: C_2  and  C_5
REMARK    5  A    between atoms: C_7  and  C_8
REMARK    6  A    between atoms: C_21  and  C_22
REMARK    7  A    between atoms: C_21  and  C_23
REMARK                            x       y       z     vdW  Elec       q    Type
REMARK                         _______ _______ _______ _____ _____    ______ ____
ROOT
ATOM      1  C   UNL     1       4.897   5.840  17.598  0.00  0.00    +0.000 A 
ATOM      2  C   UNL     1       4.177   7.064  17.612  0.00  0.00    +0.000 A 
ATOM      3  C   UNL     1       2.866   7.143  18.133  0.00  0.00    +0.000 A 
ATOM      4  C   UNL     1       2.244   6.001  18.636  0.00  0.00    +0.000 A 
ATOM      5  C   UNL     1       2.932   4.804  18.623  0.00  0.00    +0.000 A 
ATOM      6  C   UNL     1       4.221   4.728  18.120  0.00  0.00    +0.000 A 
ATOM      7  O   UNL     1       4.744   3.465  18.216  0.00  0.00    +0.000 OA
ATOM      8  C   UNL     1       3.722   2.643  18.837  0.00  0.00    +0.000 C 
ATOM      9  C   UNL     1       2.476   3.493  19.156  0.00  0.00    +0.000 C 
ATOM     10  C   UNL     1       2.210   3.570  20.664  0.00  0.00    +0.000 C 
ATOM     11  C   UNL     1       1.232   2.987  18.419  0.00  0.00    +0.000 C 
ENDROOT
BRANCH   3  12
ATOM     12  C   UNL     1       2.113   8.411  18.283  0.00  0.00    +0.000 C 
ATOM     13  O   UNL     1       2.128   9.190  17.334  0.00  0.00    +0.000 OA
ATOM     14  N   UNL     1       1.547   8.661  19.517  0.00  0.00    +0.000 N 
ATOM     15  C   UNL     1       0.901   9.808  19.890  0.00  0.00    +0.000 C 
ATOM     16  N   UNL     1       0.865  10.143  21.135  0.00  0.00    +0.000 NA
ATOM     17  C   UNL     1       0.148  11.435  21.263  0.00  0.00    +0.000 C 
ATOM     18  C   UNL     1       0.127  12.173  19.932  0.00  0.00    +0.000 C 
ATOM     19  S   UNL     1       0.099  10.831  18.744  0.00  0.00    +0.000 S 
ATOM     20  H   UNL     1       1.860   8.109  20.302  0.00  0.00    +0.000 HD
ENDBRANCH   3  12
BRANCH   1  22
ATOM     21  C   UNL     1       7.218   4.746  17.876  0.00  0.00    +0.000 C 
ATOM     22  C   UNL     1       6.343   5.739  17.072  0.00  0.00    +0.000 C 
ATOM     23  C   UNL     1       7.037   7.116  17.157  0.00  0.00    +0.000 C 
ATOM     24  C   UNL     1       6.364   5.252  15.605  0.00  0.00    +0.000 C 
ENDBRANCH   1  22
TORSDOF 2
ENDMDL
MODEL 4
REMARK VINA RESULT:      -8.2      1.565      1.842
REMARK  Name = 
REMARK  7 active torsions:
REMARK  status: ('A' for Active; 'I' for Inactive)
REMARK    1  A    between atoms: C_1  and  C_2
REMARK    2  A    between atoms: C_2  and  C_3
REMARK    3  A    between atoms: C_2  and  C_4
REMARK    4  A    between atoms: C_2  and  C_5
REMARK    5  A    between atoms: C_7  and  C_8
REMARK    6  A    between atoms: C_21  and  C_22
REMARK    7  A    between atoms: C_21  and  C_23
REMARK                            x       y       z     vdW  Elec       q    Type
REMARK                         _______ _______ _______ _____ _____    ______ ____
ROOT
ATOM      1  C   UNL     1       4.203   5.504  18.245  0.00  0.00    +0.000 A 
ATOM      2  C   UNL     1       3.549   6.702  18.640  0.00  0.00    +0.000 A 
ATOM      3  C   UNL     1       2.418   6.680  19.486  0.00  0.00    +0.000 A 
ATOM      4  C   UNL     1       1.908   5.464  19.942  0.00  0.00    +0.000 A 
ATOM      5  C   UNL     1       2.533   4.293  19.560  0.00  0.00    +0.000 A 
ATOM      6  C   UNL     1       3.648   4.315  18.737  0.00  0.00    +0.000 A 
ATOM      7  O   UNL     1       4.138   3.059  18.492  0.00  0.00    +0.000 OA
ATOM      8  C   UNL     1       3.283   2.135  19.214  0.00  0.00    +0.000 C 
ATOM      9  C   UNL     1       2.186   2.907  19.974  0.00  0.00    +0.000 C 
ATOM     10  C   UNL     1       2.318   2.734  21.493  0.00  0.00    +0.000 C 
ATOM     11  C   UNL     1       0.780   2.515  19.510  0.00  0.00    +0.000 C 
ENDROOT
BRANCH   3  12
ATOM     12  C   UNL     1       1.768   7.897  20.026  0.00  0.00    +0.000 C 
ATOM     13  O   UNL     1       1.452   7.887  21.213  0.00  0.00    +0.000 OA
ATOM     14  N   UNL     1       1.470   8.901  19.127  0.00  0.00    +0.000 N 
ATOM     15  C   UNL     1       0.787  10.054  19.402  0.00  0.00    +0.000 C 
ATOM     16  N   UNL     1       0.140  10.652  18.460  0.00  0.00    +0.000 NA
ATOM     17  C   UNL     1      -0.542  11.841  19.027  0.00  0.00    +0.000 C 
ATOM     18  C   UNL     1      -0.682  11.713  20.537  0.00  0.00    +0.000 C 
ATOM     19  S   UNL     1       0.772  10.765  20.982  0.00  0.00    +0.000 S 
ATOM     20  H   UNL     1       1.487   8.676  18.143  0.00  0.00    +0.000 HD
ENDBRANCH   3  12
BRANCH   1  22
ATOM     21  C   UNL     1       6.667   4.778  18.000  0.00  0.00    +0.000 C 
ATOM     22  C   UNL     1       5.462   5.507  17.356  0.00  0.00    +0.000 C 
ATOM     23  C   UNL     1       5.914   6.957  17.078  0.00  0.00    +0.000 C 
ATOM     24  C   UNL     1       5.190   4.795  16.011  0.00  0.00    +0.000 C 
ENDBRANCH   1  22
TORSDOF 2
ENDMDL
MODEL 5
REMARK VINA RESULT:      -8.2      1.367      1.643
REMARK  Name = 
REMARK  7 active torsions:
REMARK  status: ('A' for Active; 'I' for Inactive)
REMARK    1  A    between atoms: C_1  and  C_2
REMARK    2  A    between atoms: C_2  and  C_3
REMARK    3  A    between atoms: C_2  and  C_4
REMARK    4  A    between atoms: C_2  and  C_5
REMARK    5  A    between atoms: C_7  and  C_8
REMARK    6  A    between atoms: C_21  and  C_22
REMARK    7  A    between atoms: C_21  and  C_23
REMARK                            x       y       z     vdW  Elec       q    Type
REMARK                         _______ _______ _______ _____ _____    ______ ____
ROOT
ATOM      1  C   UNL     1       4.412   5.583  18.105  0.00  0.00    +0.000 A 
ATOM      2  C   UNL     1       3.674   6.767  18.370  0.00  0.00    +0.000 A 
ATOM      3  C   UNL     1       2.493   6.742  19.145  0.00  0.00    +0.000 A 
ATOM      4  C   UNL     1       2.019   5.536  19.659  0.00  0.00    +0.000 A 
ATOM      5  C   UNL     1       2.726   4.376  19.404  0.00  0.00    +0.000 A 
ATOM      6  C   UNL     1       3.888   4.402  18.650  0.00  0.00    +0.000 A 
ATOM      7  O   UNL     1       4.457   3.161  18.529  0.00  0.00    +0.000 OA
ATOM      8  C   UNL     1       3.606   2.245  19.265  0.00  0.00    +0.000 C 
ATOM      9  C   UNL     1       2.425   3.007  19.899  0.00  0.00    +0.000 C 
ATOM     10  C   UNL     1       2.468   2.950  21.431  0.00  0.00    +0.000 C 
ATOM     11  C   UNL     1       1.073   2.505  19.382  0.00  0.00    +0.000 C 
ENDROOT
BRANCH   3  12
ATOM     12  C   UNL     1       1.748   7.957  19.554  0.00  0.00    +0.000 C 
ATOM     13  O   UNL     1       1.853   8.949  18.837  0.00  0.00    +0.000 OA
ATOM     14  N   UNL     1       1.087   7.909  20.764  0.00  0.00    +0.000 N 
ATOM     15  C   UNL     1       0.429   8.947  21.365  0.00  0.00    +0.000 C 
ATOM     16  N   UNL     1       0.296   8.960  22.648  0.00  0.00    +0.000 NA
ATOM     17  C   UNL     1      -0.410  10.203  23.044  0.00  0.00    +0.000 C 
ATOM     18  C   UNL     1      -0.311  11.252  21.945  0.00  0.00    +0.000 C 
ATOM     19  S   UNL     1      -0.261  10.253  20.458  0.00  0.00    +0.000 S 
ATOM     20  H   UNL     1       1.326   7.167  21.405  0.00  0.00    +0.000 HD
ENDBRANCH   3  12
BRANCH   1  22
ATOM     21  C   UNL     1       6.851   4.756  17.949  0.00  0.00    +0.000 C 
ATOM     22  C   UNL     1       5.724   5.592  17.295  0.00  0.00    +0.000 C 
ATOM     23  C   UNL     1       6.257   7.036  17.165  0.00  0.00    +0.000 C 
ATOM     24  C   UNL     1       5.505   5.003  15.883  0.00  0.00    +0.000 C 
ENDBRANCH   1  22
TORSDOF 2
ENDMDL
MODEL 6
REMARK VINA RESULT:      -8.2      1.382      3.821
REMARK  Name = 
REMARK  7 active torsions:
REMARK  status: ('A' for Active; 'I' for Inactive)
REMARK    1  A    between atoms: C_1  and  C_2
REMARK    2  A    between atoms: C_2  and  C_3
REMARK    3  A    between atoms: C_2  and  C_4
REMARK    4  A    between atoms: C_2  and  C_5
REMARK    5  A    between atoms: C_7  and  C_8
REMARK    6  A    between atoms: C_21  and  C_22
REMARK    7  A    between atoms: C_21  and  C_23
REMARK                            x       y       z     vdW  Elec       q    Type
REMARK                         _______ _______ _______ _____ _____    ______ ____
ROOT
ATOM      1  C   UNL     1       3.095   4.434  19.214  0.00  0.00    +0.000 A 
ATOM      2  C   UNL     1       2.333   5.546  19.661  0.00  0.00    +0.000 A 
ATOM      3  C   UNL     1       2.609   6.857  19.214  0.00  0.00    +0.000 A 
ATOM      4  C   UNL     1       3.658   7.086  18.323  0.00  0.00    +0.000 A 
ATOM      5  C   UNL     1       4.409   6.013  17.885  0.00  0.00    +0.000 A 
ATOM      6  C   UNL     1       4.133   4.726  18.318  0.00  0.00    +0.000 A 
ATOM      7  O   UNL     1       4.969   3.797  17.755  0.00  0.00    +0.000 OA
ATOM      8  C   UNL     1       5.864   4.528  16.877  0.00  0.00    +0.000 C 
ATOM      9  C   UNL     1       5.526   6.032  16.904  0.00  0.00    +0.000 C 
ATOM     10  C   UNL     1       5.051   6.533  15.534  0.00  0.00    +0.000 C 
ATOM     11  C   UNL     1       6.702   6.876  17.405  0.00  0.00    +0.000 C 
ENDROOT
BRANCH   3  12
ATOM     12  C   UNL     1       1.777   8.037  19.550  0.00  0.00    +0.000 C 
ATOM     13  O   UNL     1       1.785   8.976  18.759  0.00  0.00    +0.000 OA
ATOM     14  N   UNL     1       1.147   8.030  20.778  0.00  0.00    +0.000 N 
ATOM     15  C   UNL     1       0.420   9.055  21.318  0.00  0.00    +0.000 C 
ATOM     16  N   UNL     1       0.313   9.156  22.600  0.00  0.00    +0.000 NA
ATOM     17  C   UNL     1      -0.482  10.366  22.920  0.00  0.00    +0.000 C 
ATOM     18  C   UNL     1      -0.492  11.332  21.744  0.00  0.00    +0.000 C 
ATOM     19  S   UNL     1      -0.392  10.229  20.335  0.00  0.00    +0.000 S 
ATOM     20  H   UNL     1       1.459   7.360  21.467  0.00  0.00    +0.000 HD
ENDBRANCH   3  12
BRANCH   1  22
ATOM     21  C   UNL     1       1.717   2.909  20.775  0.00  0.00    +0.000 C 
ATOM     22  C   UNL     1       2.787   2.990  19.658  0.00  0.00    +0.000 C 
ATOM     23  C   UNL     1       4.063   2.321  20.213  0.00  0.00    +0.000 C 
ATOM     24  C   UNL     1       2.248   2.152  18.476  0.00  0.00    +0.000 C 
ENDBRANCH   1  22
TORSDOF 2
ENDMDL
MODEL 7
REMARK VINA RESULT:      -8.0      1.514      1.652
REMARK  Name = 
REMARK  7 active torsions:
REMARK  status: ('A' for Active; 'I' for Inactive)
REMARK    1  A    between atoms: C_1  and  C_2
REMARK    2  A    between atoms: C_2  and  C_3
REMARK    3  A    between atoms: C_2  and  C_4
REMARK    4  A    between atoms: C_2  and  C_5
REMARK    5  A    between atoms: C_7  and  C_8
REMARK    6  A    between atoms: C_21  and  C_22
REMARK    7  A    between atoms: C_21  and  C_23
REMARK                            x       y       z     vdW  Elec       q    Type
REMARK                         _______ _______ _______ _____ _____    ______ ____
ROOT
ATOM      1  C   UNL     1       4.379   5.586  17.881  0.00  0.00    +0.000 A 
ATOM      2  C   UNL     1       3.690   6.754  18.302  0.00  0.00    +0.000 A 
ATOM      3  C   UNL     1       2.550   6.679  19.134  0.00  0.00    +0.000 A 
ATOM      4  C   UNL     1       2.069   5.438  19.551  0.00  0.00    +0.000 A 
ATOM      5  C   UNL     1       2.728   4.295  19.143  0.00  0.00    +0.000 A 
ATOM      6  C   UNL     1       3.850   4.369  18.333  0.00  0.00    +0.000 A 
ATOM      7  O   UNL     1       4.375   3.133  18.058  0.00  0.00    +0.000 OA
ATOM      8  C   UNL     1       3.537   2.168  18.744  0.00  0.00    +0.000 C 
ATOM      9  C   UNL     1       2.413   2.889  19.514  0.00  0.00    +0.000 C 
ATOM     10  C   UNL     1       2.533   2.677  21.028  0.00  0.00    +0.000 C 
ATOM     11  C   UNL     1       1.023   2.474  19.024  0.00  0.00    +0.000 C 
ENDROOT
BRANCH   3  12
ATOM     12  C   UNL     1       1.863   7.863  19.701  0.00  0.00    +0.000 C 
ATOM     13  O   UNL     1       1.623   7.852  20.906  0.00  0.00    +0.000 OA
ATOM     14  N   UNL     1       1.451   8.835  18.812  0.00  0.00    +0.000 N 
ATOM     15  C   UNL     1       0.718   9.949  19.117  0.00  0.00    +0.000 C 
ATOM     16  N   UNL     1      -0.020  10.495  18.210  0.00  0.00    +0.000 NA
ATOM     17  C   UNL     1      -0.736  11.649  18.806  0.00  0.00    +0.000 C 
ATOM     18  C   UNL     1      -0.775  11.534  20.324  0.00  0.00    +0.000 C 
ATOM     19  S   UNL     1       0.758  10.680  20.687  0.00  0.00    +0.000 S 
ATOM     20  H   UNL     1       1.421   8.597  17.832  0.00  0.00    +0.000 HD
ENDBRANCH   3  12
BRANCH   1  22
ATOM     21  C   UNL     1       5.394   5.238  15.534  0.00  0.00    +0.000 C 
ATOM     22  C   UNL     1       5.646   5.646  17.006  0.00  0.00    +0.000 C 
ATOM     23  C   UNL     1       6.719   4.682  17.558  0.00  0.00    +0.000 C 
ATOM     24  C   UNL     1       6.225   7.079  16.969  0.00  0.00    +0.000 C 
ENDBRANCH   1  22
TORSDOF 2
ENDMDL
MODEL 8
REMARK VINA RESULT:      -7.8      1.589      3.896
REMARK  Name = 
REMARK  7 active torsions:
REMARK  status: ('A' for Active; 'I' for Inactive)
REMARK    1  A    between atoms: C_1  and  C_2
REMARK    2  A    between atoms: C_2  and  C_3
REMARK    3  A    between atoms: C_2  and  C_4
REMARK    4  A    between atoms: C_2  and  C_5
REMARK    5  A    between atoms: C_7  and  C_8
REMARK    6  A    between atoms: C_21  and  C_22
REMARK    7  A    between atoms: C_21  and  C_23
REMARK                            x       y       z     vdW  Elec       q    Type
REMARK                         _______ _______ _______ _____ _____    ______ ____
ROOT
ATOM      1  C   UNL     1       3.100   4.295  18.999  0.00  0.00    +0.000 A 
ATOM      2  C   UNL     1       2.385   5.363  19.603  0.00  0.00    +0.000 A 
ATOM      3  C   UNL     1       2.674   6.712  19.297  0.00  0.00    +0.000 A 
ATOM      4  C   UNL     1       3.690   7.021  18.393  0.00  0.00    +0.000 A 
ATOM      5  C   UNL     1       4.395   5.991  17.802  0.00  0.00    +0.000 A 
ATOM      6  C   UNL     1       4.106   4.668  18.097  0.00  0.00    +0.000 A 
ATOM      7  O   UNL     1       4.895   3.794  17.395  0.00  0.00    +0.000 OA
ATOM      8  C   UNL     1       5.769   4.603  16.567  0.00  0.00    +0.000 C 
ATOM      9  C   UNL     1       5.470   6.101  16.780  0.00  0.00    +0.000 C 
ATOM     10  C   UNL     1       4.951   6.765  15.500  0.00  0.00    +0.000 C 
ATOM     11  C   UNL     1       6.687   6.858  17.321  0.00  0.00    +0.000 C 
ENDROOT
BRANCH   3  12
ATOM     12  C   UNL     1       1.886   7.860  19.803  0.00  0.00    +0.000 C 
ATOM     13  O   UNL     1       1.558   7.840  20.987  0.00  0.00    +0.000 OA
ATOM     14  N   UNL     1       1.491   8.806  18.878  0.00  0.00    +0.000 N 
ATOM     15  C   UNL     1       0.681   9.881  19.120  0.00  0.00    +0.000 C 
ATOM     16  N   UNL     1      -0.016  10.384  18.157  0.00  0.00    +0.000 NA
ATOM     17  C   UNL     1      -0.832  11.502  18.690  0.00  0.00    +0.000 C 
ATOM     18  C   UNL     1      -0.977  11.391  20.201  0.00  0.00    +0.000 C 
ATOM     19  S   UNL     1       0.567  10.619  20.683  0.00  0.00    +0.000 S 
ATOM     20  H   UNL     1       1.546   8.563  17.900  0.00  0.00    +0.000 HD
ENDBRANCH   3  12
BRANCH   1  22
ATOM     21  C   UNL     1       1.623   2.632  20.307  0.00  0.00    +0.000 C 
ATOM     22  C   UNL     1       2.775   2.817  19.289  0.00  0.00    +0.000 C 
ATOM     23  C   UNL     1       4.012   2.107  19.881  0.00  0.00    +0.000 C 
ATOM     24  C   UNL     1       2.339   2.084  17.999  0.00  0.00    +0.000 C 
ENDBRANCH   1  22
TORSDOF 2
ENDMDL
