MODEL 1
REMARK VINA RESULT:      -7.2      0.000      0.000
REMARK  Name = 
REMARK  4 active torsions:
REMARK  status: ('A' for Active; 'I' for Inactive)
REMARK    1  A    between atoms: C_4  and  O_5
REMARK    2  A    between atoms: O_5  and  C_6
REMARK    3  A    between atoms: C_6  and  C_7
REMARK    4  A    between atoms: C_10  and  C_11
REMARK                            x       y       z     vdW  Elec       q    Type
REMARK                         _______ _______ _______ _____ _____    ______ ____
ROOT
ATOM      1  O   UNL     1       7.765   5.345  19.663  0.00  0.00    +0.000 OA
ATOM      2  C   UNL     1       7.002   4.893  18.820  0.00  0.00    +0.000 C 
ATOM      3  C   UNL     1       7.427   4.769  17.416  0.00  0.00    +0.000 C 
ATOM      4  C   UNL     1       6.557   4.497  16.437  0.00  0.00    +0.000 C 
ATOM      5  C   UNL     1       5.121   4.204  16.757  0.00  0.00    +0.000 C 
ATOM      6  C   UNL     1       5.028   3.670  18.189  0.00  0.00    +0.000 C 
ATOM      7  O   UNL     1       5.733   4.526  19.110  0.00  0.00    +0.000 OA
ENDROOT
BRANCH   6   8
ATOM      8  C   UNL     1       3.583   3.541  18.635  0.00  0.00    +0.000 A 
ATOM      9  C   UNL     1       2.520   3.798  17.754  0.00  0.00    +0.000 A 
ATOM     10  C   UNL     1       1.195   3.672  18.175  0.00  0.00    +0.000 A 
ATOM     11  C   UNL     1       0.911   3.281  19.483  0.00  0.00    +0.000 A 
ATOM     12  C   UNL     1       1.959   3.013  20.362  0.00  0.00    +0.000 A 
ATOM     13 CL   UNL     1       1.612   2.528  21.976  0.00  0.00    +0.000 Cl
ATOM     14  C   UNL     1       3.285   3.138  19.947  0.00  0.00    +0.000 A 
ENDBRANCH   6   8
BRANCH   4  15
ATOM     15  O   UNL     1       7.018   4.389  15.136  0.00  0.00    +0.000 OA
BRANCH  15  16
ATOM     16  C   UNL     1       6.016   4.173  14.134  0.00  0.00    +0.000 C 
BRANCH  16  17
ATOM     17  C   UNL     1       6.723   3.911  12.810  0.00  0.00    +0.000 C 
ATOM     18 CL   UNL     1       7.803   5.258  12.392  0.00  0.00    +0.000 Cl
ENDBRANCH  16  17
ENDBRANCH  15  16
ENDBRANCH   4  15
TORSDOF 4
ENDMDL
MODEL 2
REMARK VINA RESULT:      -7.1      1.968      2.048
REMARK  Name = 
REMARK  4 active torsions:
REMARK  status: ('A' for Active; 'I' for Inactive)
REMARK    1  A    between atoms: C_4  and  O_5
REMARK    2  A    between atoms: O_5  and  C_6
REMARK    3  A    between atoms: C_6  and  C_7
REMARK    4  A    between atoms: C_10  and  C_11
REMARK                            x       y       z     vdW  Elec       q    Type
REMARK                         _______ _______ _______ _____ _____    ______ ____
ROOT
ATOM      1  O   UNL     1       7.576   7.298  17.036  0.00  0.00    +0.000 OA
ATOM      2  C   UNL     1       6.805   6.349  16.988  0.00  0.00    +0.000 C 
ATOM      3  C   UNL     1       6.899   5.362  15.901  0.00  0.00    +0.000 C 
ATOM      4  C   UNL     1       5.943   4.451  15.689  0.00  0.00    +0.000 C 
ATOM      5  C   UNL     1       4.779   4.340  16.630  0.00  0.00    +0.000 C 
ATOM      6  C   UNL     1       5.195   4.877  18.002  0.00  0.00    +0.000 C 
ATOM      7  O   UNL     1       5.810   6.175  17.888  0.00  0.00    +0.000 OA
ENDROOT
BRANCH   6   8
ATOM      8  C   UNL     1       4.003   4.971  18.938  0.00  0.00    +0.000 A 
ATOM      9  C   UNL     1       3.228   6.138  19.022  0.00  0.00    +0.000 A 
ATOM     10  C   UNL     1       2.132   6.209  19.883  0.00  0.00    +0.000 A 
ATOM     11  C   UNL     1       1.790   5.112  20.672  0.00  0.00    +0.000 A 
ATOM     12  C   UNL     1       2.546   3.944  20.589  0.00  0.00    +0.000 A 
ATOM     13 CL   UNL     1       2.125   2.587  21.559  0.00  0.00    +0.000 Cl
ATOM     14  C   UNL     1       3.643   3.867  19.729  0.00  0.00    +0.000 A 
ENDBRANCH   6   8
BRANCH   4  15
ATOM     15  O   UNL     1       6.091   3.546  14.653  0.00  0.00    +0.000 OA
BRANCH  15  16
ATOM     16  C   UNL     1       6.078   4.101  13.331  0.00  0.00    +0.000 C 
BRANCH  16  17
ATOM     17  C   UNL     1       5.844   2.964  12.345  0.00  0.00    +0.000 C 
ATOM     18 CL   UNL     1       4.342   3.219  11.429  0.00  0.00    +0.000 Cl
ENDBRANCH  16  17
ENDBRANCH  15  16
ENDBRANCH   4  15
TORSDOF 4
ENDMDL
MODEL 3
REMARK VINA RESULT:      -7.0      1.382      1.456
REMARK  Name = 
REMARK  4 active torsions:
REMARK  status: ('A' for Active; 'I' for Inactive)
REMARK    1  A    between atoms: C_4  and  O_5
REMARK    2  A    between atoms: O_5  and  C_6
REMARK    3  A    between atoms: C_6  and  C_7
REMARK    4  A    between atoms: C_10  and  C_11
REMARK                            x       y       z     vdW  Elec       q    Type
REMARK                         _______ _______ _______ _____ _____    ______ ____
ROOT
ATOM      1  O   UNL     1       8.467   4.388  18.278  0.00  0.00    +0.000 OA
ATOM      2  C   UNL     1       7.356   4.501  17.777  0.00  0.00    +0.000 C 
ATOM      3  C   UNL     1       7.198   4.593  16.317  0.00  0.00    +0.000 C 
ATOM      4  C   UNL     1       6.037   4.942  15.753  0.00  0.00    +0.000 C 
ATOM      5  C   UNL     1       4.815   5.152  16.599  0.00  0.00    +0.000 C 
ATOM      6  C   UNL     1       4.958   4.342  17.890  0.00  0.00    +0.000 C 
ATOM      7  O   UNL     1       6.229   4.589  18.521  0.00  0.00    +0.000 OA
ENDROOT
BRANCH   6   8
ATOM      8  C   UNL     1       3.844   4.669  18.868  0.00  0.00    +0.000 A 
ATOM      9  C   UNL     1       3.304   5.962  18.958  0.00  0.00    +0.000 A 
ATOM     10  C   UNL     1       2.276   6.247  19.858  0.00  0.00    +0.000 A 
ATOM     11  C   UNL     1       1.768   5.244  20.681  0.00  0.00    +0.000 A 
ATOM     12  C   UNL     1       2.290   3.954  20.593  0.00  0.00    +0.000 A 
ATOM     13 CL   UNL     1       1.663   2.711  21.605  0.00  0.00    +0.000 Cl
ATOM     14  C   UNL     1       3.317   3.662  19.694  0.00  0.00    +0.000 A 
ENDBRANCH   6   8
BRANCH   4  15
ATOM     15  O   UNL     1       5.949   5.007  14.373  0.00  0.00    +0.000 OA
BRANCH  15  16
ATOM     16  C   UNL     1       5.898   3.749  13.689  0.00  0.00    +0.000 C 
BRANCH  16  17
ATOM     17  C   UNL     1       6.645   3.900  12.370  0.00  0.00    +0.000 C 
ATOM     18 CL   UNL     1       7.802   5.246  12.447  0.00  0.00    +0.000 Cl
ENDBRANCH  16  17
ENDBRANCH  15  16
ENDBRANCH   4  15
TORSDOF 4
ENDMDL
MODEL 4
REMARK VINA RESULT:      -7.0      1.718      1.859
REMARK  Name = 
REMARK  4 active torsions:
REMARK  status: ('A' for Active; 'I' for Inactive)
REMARK    1  A    between atoms: C_4  and  O_5
REMARK    2  A    between atoms: O_5  and  C_6
REMARK    3  A    between atoms: C_6  and  C_7
REMARK    4  A    between atoms: C_10  and  C_11
REMARK                            x       y       z     vdW  Elec       q    Type
REMARK                         _______ _______ _______ _____ _____    ______ ____
ROOT
ATOM      1  O   UNL     1       7.955   6.648  18.747  0.00  0.00    +0.000 OA
ATOM      2  C   UNL     1       7.059   6.098  18.120  0.00  0.00    +0.000 C 
ATOM      3  C   UNL     1       7.195   5.855  16.676  0.00  0.00    +0.000 C 
ATOM      4  C   UNL     1       6.158   5.469  15.924  0.00  0.00    +0.000 C 
ATOM      5  C   UNL     1       4.832   5.168  16.558  0.00  0.00    +0.000 C 
ATOM      6  C   UNL     1       5.057   4.768  18.018  0.00  0.00    +0.000 C 
ATOM      7  O   UNL     1       5.894   5.725  18.697  0.00  0.00    +0.000 OA
ENDROOT
BRANCH   6   8
ATOM      8  C   UNL     1       3.740   4.641  18.762  0.00  0.00    +0.000 A 
ATOM      9  C   UNL     1       3.377   5.551  19.768  0.00  0.00    +0.000 A 
ATOM     10  C   UNL     1       2.160   5.426  20.441  0.00  0.00    +0.000 A 
ATOM     11  C   UNL     1       1.284   4.392  20.115  0.00  0.00    +0.000 A 
ATOM     12  C   UNL     1       1.629   3.490  19.110  0.00  0.00    +0.000 A 
ATOM     13 CL   UNL     1       0.549   2.214  18.703  0.00  0.00    +0.000 Cl
ATOM     14  C   UNL     1       2.844   3.610  18.434  0.00  0.00    +0.000 A 
ENDBRANCH   6   8
BRANCH   4  15
ATOM     15  O   UNL     1       6.350   5.252  14.570  0.00  0.00    +0.000 OA
BRANCH  15  16
ATOM     16  C   UNL     1       5.920   3.979  14.073  0.00  0.00    +0.000 C 
BRANCH  16  17
ATOM     17  C   UNL     1       6.525   3.784  12.689  0.00  0.00    +0.000 C 
ATOM     18 CL   UNL     1       5.609   2.576  11.762  0.00  0.00    +0.000 Cl
ENDBRANCH  16  17
ENDBRANCH  15  16
ENDBRANCH   4  15
TORSDOF 4
ENDMDL
MODEL 5
REMARK VINA RESULT:      -7.0      1.709      6.516
REMARK  Name = 
REMARK  4 active torsions:
REMARK  status: ('A' for Active; 'I' for Inactive)
REMARK    1  A    between atoms: C_4  and  O_5
REMARK    2  A    between atoms: O_5  and  C_6
REMARK    3  A    between atoms: C_6  and  C_7
REMARK    4  A    between atoms: C_10  and  C_11
REMARK                            x       y       z     vdW  Elec       q    Type
REMARK                         _______ _______ _______ _____ _____    ______ ____
ROOT
ATOM      1  O   UNL     1       8.127   5.085  18.905  0.00  0.00    +0.000 OA
ATOM      2  C   UNL     1       7.184   4.869  18.155  0.00  0.00    +0.000 C 
ATOM      3  C   UNL     1       5.844   4.594  18.696  0.00  0.00    +0.000 C 
ATOM      4  C   UNL     1       4.852   4.135  17.926  0.00  0.00    +0.000 C 
ATOM      5  C   UNL     1       5.049   3.981  16.446  0.00  0.00    +0.000 C 
ATOM      6  C   UNL     1       6.144   4.947  15.987  0.00  0.00    +0.000 C 
ATOM      7  O   UNL     1       7.321   4.828  16.809  0.00  0.00    +0.000 OA
ENDROOT
BRANCH   6   8
ATOM      8  C   UNL     1       6.522   4.698  14.537  0.00  0.00    +0.000 A 
ATOM      9  C   UNL     1       7.545   5.428  13.912  0.00  0.00    +0.000 A 
ATOM     10  C   UNL     1       7.886   5.186  12.580  0.00  0.00    +0.000 A 
ATOM     11  C   UNL     1       7.212   4.207  11.853  0.00  0.00    +0.000 A 
ATOM     12  C   UNL     1       6.201   3.469  12.467  0.00  0.00    +0.000 A 
ATOM     13 CL   UNL     1       5.369   2.257  11.573  0.00  0.00    +0.000 Cl
ATOM     14  C   UNL     1       5.857   3.706  13.798  0.00  0.00    +0.000 A 
ENDBRANCH   6   8
BRANCH   4  15
ATOM     15  O   UNL     1       3.611   3.899  18.492  0.00  0.00    +0.000 OA
BRANCH  15  16
ATOM     16  C   UNL     1       3.562   2.862  19.481  0.00  0.00    +0.000 C 
BRANCH  16  17
ATOM     17  C   UNL     1       2.609   3.307  20.583  0.00  0.00    +0.000 C 
ATOM     18 CL   UNL     1       0.976   3.580  19.936  0.00  0.00    +0.000 Cl
ENDBRANCH  16  17
ENDBRANCH  15  16
ENDBRANCH   4  15
TORSDOF 4
ENDMDL
MODEL 6
REMARK VINA RESULT:      -7.0      1.836      6.273
REMARK  Name = 
REMARK  4 active torsions:
REMARK  status: ('A' for Active; 'I' for Inactive)
REMARK    1  A    between atoms: C_4  and  O_5
REMARK    2  A    between atoms: O_5  and  C_6
REMARK    3  A    between atoms: C_6  and  C_7
REMARK    4  A    between atoms: C_10  and  C_11
REMARK                            x       y       z     vdW  Elec       q    Type
REMARK                         _______ _______ _______ _____ _____    ______ ____
ROOT
ATOM      1  O   UNL     1       8.213   4.662  18.788  0.00  0.00    +0.000 OA
ATOM      2  C   UNL     1       7.267   4.751  18.017  0.00  0.00    +0.000 C 
ATOM      3  C   UNL     1       5.895   4.897  18.529  0.00  0.00    +0.000 C 
ATOM      4  C   UNL     1       4.827   4.770  17.733  0.00  0.00    +0.000 C 
ATOM      5  C   UNL     1       5.001   4.575  16.255  0.00  0.00    +0.000 C 
ATOM      6  C   UNL     1       6.349   5.162  15.831  0.00  0.00    +0.000 C 
ATOM      7  O   UNL     1       7.414   4.682  16.674  0.00  0.00    +0.000 OA
ENDROOT
BRANCH   6   8
ATOM      8  C   UNL     1       6.665   4.822  14.386  0.00  0.00    +0.000 A 
ATOM      9  C   UNL     1       7.662   5.507  13.673  0.00  0.00    +0.000 A 
ATOM     10  C   UNL     1       7.946   5.180  12.346  0.00  0.00    +0.000 A 
ATOM     11  C   UNL     1       7.241   4.160  11.711  0.00  0.00    +0.000 A 
ATOM     12  C   UNL     1       6.256   3.466  12.412  0.00  0.00    +0.000 A 
ATOM     13 CL   UNL     1       5.385   2.203  11.632  0.00  0.00    +0.000 Cl
ATOM     14  C   UNL     1       5.968   3.787  13.739  0.00  0.00    +0.000 A 
ENDBRANCH   6   8
BRANCH   4  15
ATOM     15  O   UNL     1       3.562   4.921  18.273  0.00  0.00    +0.000 OA
BRANCH  15  16
ATOM     16  C   UNL     1       2.626   3.876  17.978  0.00  0.00    +0.000 C 
BRANCH  16  17
ATOM     17  C   UNL     1       2.806   2.775  19.015  0.00  0.00    +0.000 C 
ATOM     18 CL   UNL     1       3.603   1.356  18.300  0.00  0.00    +0.000 Cl
ENDBRANCH  16  17
ENDBRANCH  15  16
ENDBRANCH   4  15
TORSDOF 4
ENDMDL
MODEL 7
REMARK VINA RESULT:      -6.9      1.084      1.127
REMARK  Name = 
REMARK  4 active torsions:
REMARK  status: ('A' for Active; 'I' for Inactive)
REMARK    1  A    between atoms: C_4  and  O_5
REMARK    2  A    between atoms: O_5  and  C_6
REMARK    3  A    between atoms: C_6  and  C_7
REMARK    4  A    between atoms: C_10  and  C_11
REMARK                            x       y       z     vdW  Elec       q    Type
REMARK                         _______ _______ _______ _____ _____    ______ ____
ROOT
ATOM      1  O   UNL     1       7.952   4.764  18.532  0.00  0.00    +0.000 OA
ATOM      2  C   UNL     1       6.966   4.596  17.828  0.00  0.00    +0.000 C 
ATOM      3  C   UNL     1       7.036   4.822  16.376  0.00  0.00    +0.000 C 
ATOM      4  C   UNL     1       5.937   4.869  15.615  0.00  0.00    +0.000 C 
ATOM      5  C   UNL     1       4.588   4.586  16.211  0.00  0.00    +0.000 C 
ATOM      6  C   UNL     1       4.766   3.700  17.446  0.00  0.00    +0.000 C 
ATOM      7  O   UNL     1       5.763   4.240  18.335  0.00  0.00    +0.000 OA
ENDROOT
BRANCH   6   8
ATOM      8  C   UNL     1       3.458   3.543  18.201  0.00  0.00    +0.000 A 
ATOM      9  C   UNL     1       2.219   3.719  17.564  0.00  0.00    +0.000 A 
ATOM     10  C   UNL     1       1.024   3.567  18.269  0.00  0.00    +0.000 A 
ATOM     11  C   UNL     1       1.047   3.232  19.621  0.00  0.00    +0.000 A 
ATOM     12  C   UNL     1       2.271   3.045  20.262  0.00  0.00    +0.000 A 
ATOM     13 CL   UNL     1       2.304   2.629  21.931  0.00  0.00    +0.000 Cl
ATOM     14  C   UNL     1       3.470   3.195  19.562  0.00  0.00    +0.000 A 
ENDBRANCH   6   8
BRANCH   4  15
ATOM     15  O   UNL     1       6.066   5.081  14.253  0.00  0.00    +0.000 OA
BRANCH  15  16
ATOM     16  C   UNL     1       7.275   4.593  13.656  0.00  0.00    +0.000 C 
BRANCH  16  17
ATOM     17  C   UNL     1       6.931   4.046  12.277  0.00  0.00    +0.000 C 
ATOM     18 CL   UNL     1       5.296   3.349  12.261  0.00  0.00    +0.000 Cl
ENDBRANCH  16  17
ENDBRANCH  15  16
ENDBRANCH   4  15
TORSDOF 4
ENDMDL
MODEL 8
REMARK VINA RESULT:      -6.9      2.907      3.887
REMARK  Name = 
REMARK  4 active torsions:
REMARK  status: ('A' for Active; 'I' for Inactive)
REMARK    1  A    between atoms: C_4  and  O_5
REMARK    2  A    between atoms: O_5  and  C_6
REMARK    3  A    between atoms: C_6  and  C_7
REMARK    4  A    between atoms: C_10  and  C_11
REMARK                            x       y       z     vdW  Elec       q    Type
REMARK                         _______ _______ _______ _____ _____    ______ ____
ROOT
ATOM      1  O   UNL     1       5.879   3.424  14.545  0.00  0.00    +0.000 OA
ATOM      2  C   UNL     1       5.762   4.256  15.434  0.00  0.00    +0.000 C 
ATOM      3  C   UNL     1       6.770   5.314  15.607  0.00  0.00    +0.000 C 
ATOM      4  C   UNL     1       6.797   6.094  16.693  0.00  0.00    +0.000 C 
ATOM      5  C   UNL     1       5.723   5.980  17.736  0.00  0.00    +0.000 C 
ATOM      6  C   UNL     1       4.456   5.420  17.086  0.00  0.00    +0.000 C 
ATOM      7  O   UNL     1       4.743   4.231  16.323  0.00  0.00    +0.000 OA
ENDROOT
BRANCH   6   8
ATOM      8  C   UNL     1       3.400   5.100  18.129  0.00  0.00    +0.000 A 
ATOM      9  C   UNL     1       3.212   5.916  19.255  0.00  0.00    +0.000 A 
ATOM     10  C   UNL     1       2.235   5.613  20.204  0.00  0.00    +0.000 A 
ATOM     11  C   UNL     1       1.425   4.491  20.040  0.00  0.00    +0.000 A 
ATOM     12  C   UNL     1       1.595   3.679  18.920  0.00  0.00    +0.000 A 
ATOM     13 CL   UNL     1       0.595   2.295  18.712  0.00  0.00    +0.000 Cl
ATOM     14  C   UNL     1       2.570   3.977  17.968  0.00  0.00    +0.000 A 
ENDBRANCH   6   8
BRANCH   4  15
ATOM     15  O   UNL     1       7.767   7.075  16.797  0.00  0.00    +0.000 OA
BRANCH  15  16
ATOM     16  C   UNL     1       7.397   8.247  17.534  0.00  0.00    +0.000 C 
BRANCH  16  17
ATOM     17  C   UNL     1       8.540   8.588  18.482  0.00  0.00    +0.000 C 
ATOM     18 CL   UNL     1       8.994  10.300  18.335  0.00  0.00    +0.000 Cl
ENDBRANCH  16  17
ENDBRANCH  15  16
ENDBRANCH   4  15
TORSDOF 4
ENDMDL
MODEL 9
REMARK VINA RESULT:      -6.9      1.857      1.997
REMARK  Name = 
REMARK  4 active torsions:
REMARK  status: ('A' for Active; 'I' for Inactive)
REMARK    1  A    between atoms: C_4  and  O_5
REMARK    2  A    between atoms: O_5  and  C_6
REMARK    3  A    between atoms: C_6  and  C_7
REMARK    4  A    between atoms: C_10  and  C_11
REMARK                            x       y       z     vdW  Elec       q    Type
REMARK                         _______ _______ _______ _____ _____    ______ ____
ROOT
ATOM      1  O   UNL     1       7.861   6.661  18.525  0.00  0.00    +0.000 OA
ATOM      2  C   UNL     1       7.023   5.870  18.114  0.00  0.00    +0.000 C 
ATOM      3  C   UNL     1       7.201   5.197  16.817  0.00  0.00    +0.000 C 
ATOM      4  C   UNL     1       6.211   4.509  16.238  0.00  0.00    +0.000 C 
ATOM      5  C   UNL     1       4.904   4.313  16.950  0.00  0.00    +0.000 C 
ATOM      6  C   UNL     1       5.140   4.412  18.459  0.00  0.00    +0.000 C 
ATOM      7  O   UNL     1       5.884   5.600  18.792  0.00  0.00    +0.000 OA
ENDROOT
BRANCH   6   8
ATOM      8  C   UNL     1       3.827   4.417  19.220  0.00  0.00    +0.000 A 
ATOM      9  C   UNL     1       3.147   3.224  19.515  0.00  0.00    +0.000 A 
ATOM     10  C   UNL     1       1.943   3.242  20.220  0.00  0.00    +0.000 A 
ATOM     11  C   UNL     1       1.399   4.452  20.646  0.00  0.00    +0.000 A 
ATOM     12  C   UNL     1       2.071   5.642  20.368  0.00  0.00    +0.000 A 
ATOM     13 CL   UNL     1       1.405   7.138  20.895  0.00  0.00    +0.000 Cl
ATOM     14  C   UNL     1       3.276   5.630  19.664  0.00  0.00    +0.000 A 
ENDBRANCH   6   8
BRANCH   4  15
ATOM     15  O   UNL     1       6.440   3.895  15.019  0.00  0.00    +0.000 OA
BRANCH  15  16
ATOM     16  C   UNL     1       5.473   4.158  13.994  0.00  0.00    +0.000 C 
BRANCH  16  17
ATOM     17  C   UNL     1       5.965   3.514  12.705  0.00  0.00    +0.000 C 
ATOM     18 CL   UNL     1       4.641   3.358  11.529  0.00  0.00    +0.000 Cl
ENDBRANCH  16  17
ENDBRANCH  15  16
ENDBRANCH   4  15
TORSDOF 4
ENDMDL
