MODEL 1
REMARK VINA RESULT:      -6.6      0.000      0.000
REMARK  Name = 
REMARK  9 active torsions:
REMARK  status: ('A' for Active; 'I' for Inactive)
REMARK    1  A    between atoms: C_1  and  C_2
REMARK    2  A    between atoms: C_2  and  C_3
REMARK    3  A    between atoms: C_2  and  N_11
REMARK    4  A    between atoms: N_14  and  S_15
REMARK    5  A    between atoms: S_15  and  C_18
REMARK    6  A    between atoms: C_21  and  C_22
REMARK    7  A    between atoms: C_22  and  C_23
REMARK    8  A    between atoms: C_22  and  C_24
REMARK    9  A    between atoms: C_22  and  C_25
REMARK                            x       y       z     vdW  Elec       q    Type
REMARK                         _______ _______ _______ _____ _____    ______ ____
ROOT
ATOM      1  N   UNL     1      -0.456  13.869  20.338  0.00  0.00    +0.000 NA
ATOM      2  C   UNL     1      -0.145  13.349  18.977  0.00  0.00    +0.000 C 
ATOM      3  C   UNL     1       1.128  12.477  18.865  0.00  0.00    +0.000 C 
ATOM      4  N   UNL     1       1.145  11.382  19.881  0.00  0.00    +0.000 NA
ATOM      5  C   UNL     1       0.944  11.954  21.245  0.00  0.00    +0.000 C 
ATOM      6  C   UNL     1      -0.368  12.759  21.315  0.00  0.00    +0.000 C 
ENDROOT
BRANCH   4   7
ATOM      7  S   UNL     1       0.169  10.017  19.533  0.00  0.00    +0.000 S 
ATOM      8  O   UNL     1      -0.438   9.583  20.776  0.00  0.00    +0.000 OA
ATOM      9  O   UNL     1      -0.640  10.286  18.367  0.00  0.00    +0.000 OA
BRANCH   7  10
ATOM     10  C   UNL     1       1.376   8.798  19.095  0.00  0.00    +0.000 A 
ATOM     11  C   UNL     1       2.009   8.908  17.861  0.00  0.00    +0.000 A 
ATOM     12  C   UNL     1       2.970   7.966  17.497  0.00  0.00    +0.000 A 
ATOM     13  C   UNL     1       3.331   6.908  18.354  0.00  0.00    +0.000 A 
ATOM     14  C   UNL     1       2.673   6.827  19.598  0.00  0.00    +0.000 A 
ATOM     15  C   UNL     1       1.700   7.762  19.970  0.00  0.00    +0.000 A 
BRANCH  13  16
ATOM     16  C   UNL     1       4.423   5.890  17.974  0.00  0.00    +0.000 C 
ATOM     17  C   UNL     1       5.233   5.403  19.197  0.00  0.00    +0.000 C 
ATOM     18  C   UNL     1       3.778   4.651  17.316  0.00  0.00    +0.000 C 
ATOM     19  C   UNL     1       5.431   6.506  16.981  0.00  0.00    +0.000 C 
ENDBRANCH  13  16
ENDBRANCH   7  10
ENDBRANCH   4   7
BRANCH   1  21
ATOM     20  C   UNL     1       0.096  15.651  22.064  0.00  0.00    +0.000 C 
ATOM     21  C   UNL     1       0.389  15.040  20.685  0.00  0.00    +0.000 C 
BRANCH  21  22
ATOM     22  C   UNL     1       0.174  16.220  19.695  0.00  0.00    +0.000 C 
ATOM     23  O   UNL     1      -0.946  16.698  19.482  0.00  0.00    +0.000 OA
ATOM     24  N   UNL     1       1.313  16.779  19.129  0.00  0.00    +0.000 N 
ATOM     25  C   UNL     1       1.195  18.055  18.431  0.00  0.00    +0.000 C 
ATOM     26  C   UNL     1       1.520  17.890  16.951  0.00  0.00    +0.000 C 
ATOM     27  C   UNL     1       2.883  17.220  16.763  0.00  0.00    +0.000 C 
ATOM     28  C   UNL     1       2.970  15.912  17.547  0.00  0.00    +0.000 C 
ATOM     29  C   UNL     1       2.627  16.141  19.018  0.00  0.00    +0.000 C 
ENDBRANCH  21  22
ENDBRANCH   1  21
TORSDOF 5
ENDMDL
MODEL 2
REMARK VINA RESULT:      -6.5      0.679      1.455
REMARK  Name = 
REMARK  9 active torsions:
REMARK  status: ('A' for Active; 'I' for Inactive)
REMARK    1  A    between atoms: C_1  and  C_2
REMARK    2  A    between atoms: C_2  and  C_3
REMARK    3  A    between atoms: C_2  and  N_11
REMARK    4  A    between atoms: N_14  and  S_15
REMARK    5  A    between atoms: S_15  and  C_18
REMARK    6  A    between atoms: C_21  and  C_22
REMARK    7  A    between atoms: C_22  and  C_23
REMARK    8  A    between atoms: C_22  and  C_24
REMARK    9  A    between atoms: C_22  and  C_25
REMARK                            x       y       z     vdW  Elec       q    Type
REMARK                         _______ _______ _______ _____ _____    ______ ____
ROOT
ATOM      1  N   UNL     1      -0.531  13.590  20.178  0.00  0.00    +0.000 NA
ATOM      2  C   UNL     1       0.077  12.981  18.960  0.00  0.00    +0.000 C 
ATOM      3  C   UNL     1       1.316  12.088  19.203  0.00  0.00    +0.000 C 
ATOM      4  N   UNL     1       1.064  11.059  20.255  0.00  0.00    +0.000 NA
ATOM      5  C   UNL     1       0.565  11.717  21.498  0.00  0.00    +0.000 C 
ATOM      6  C   UNL     1      -0.705  12.542  21.210  0.00  0.00    +0.000 C 
ENDROOT
BRANCH   4   7
ATOM      7  S   UNL     1       0.160   9.687  19.766  0.00  0.00    +0.000 S 
ATOM      8  O   UNL     1      -0.426   9.100  20.955  0.00  0.00    +0.000 OA
ATOM      9  O   UNL     1      -0.660  10.030  18.627  0.00  0.00    +0.000 OA
BRANCH   7  10
ATOM     10  C   UNL     1       1.429   8.581  19.217  0.00  0.00    +0.000 A 
ATOM     11  C   UNL     1       1.832   7.561  20.073  0.00  0.00    +0.000 A 
ATOM     12  C   UNL     1       2.822   6.671  19.661  0.00  0.00    +0.000 A 
ATOM     13  C   UNL     1       3.420   6.767  18.389  0.00  0.00    +0.000 A 
ATOM     14  C   UNL     1       2.988   7.810  17.546  0.00  0.00    +0.000 A 
ATOM     15  C   UNL     1       2.001   8.714  17.952  0.00  0.00    +0.000 A 
BRANCH  13  16
ATOM     16  C   UNL     1       4.485   5.760  17.913  0.00  0.00    +0.000 C 
ATOM     17  C   UNL     1       5.498   6.387  16.929  0.00  0.00    +0.000 C 
ATOM     18  C   UNL     1       5.278   5.224  19.124  0.00  0.00    +0.000 C 
ATOM     19  C   UNL     1       3.830   4.566  17.188  0.00  0.00    +0.000 C 
ENDBRANCH  13  16
ENDBRANCH   7  10
ENDBRANCH   4   7
BRANCH   1  21
ATOM     20  C   UNL     1      -0.495  15.646  21.670  0.00  0.00    +0.000 C 
ATOM     21  C   UNL     1       0.241  14.769  20.646  0.00  0.00    +0.000 C 
BRANCH  21  22
ATOM     22  C   UNL     1       0.569  15.744  19.480  0.00  0.00    +0.000 C 
ATOM     23  O   UNL     1      -0.320  16.296  18.820  0.00  0.00    +0.000 OA
ATOM     24  N   UNL     1       1.909  16.043  19.271  0.00  0.00    +0.000 N 
ATOM     25  C   UNL     1       2.250  17.159  18.394  0.00  0.00    +0.000 C 
ATOM     26  C   UNL     1       3.001  16.665  17.163  0.00  0.00    +0.000 C 
ATOM     27  C   UNL     1       4.210  15.818  17.565  0.00  0.00    +0.000 C 
ATOM     28  C   UNL     1       3.807  14.692  18.515  0.00  0.00    +0.000 C 
ATOM     29  C   UNL     1       3.054  15.248  19.722  0.00  0.00    +0.000 C 
ENDBRANCH  21  22
ENDBRANCH   1  21
TORSDOF 5
ENDMDL
MODEL 3
REMARK VINA RESULT:      -6.4      4.590      6.882
REMARK  Name = 
REMARK  9 active torsions:
REMARK  status: ('A' for Active; 'I' for Inactive)
REMARK    1  A    between atoms: C_1  and  C_2
REMARK    2  A    between atoms: C_2  and  C_3
REMARK    3  A    between atoms: C_2  and  N_11
REMARK    4  A    between atoms: N_14  and  S_15
REMARK    5  A    between atoms: S_15  and  C_18
REMARK    6  A    between atoms: C_21  and  C_22
REMARK    7  A    between atoms: C_22  and  C_23
REMARK    8  A    between atoms: C_22  and  C_24
REMARK    9  A    between atoms: C_22  and  C_25
REMARK                            x       y       z     vdW  Elec       q    Type
REMARK                         _______ _______ _______ _____ _____    ______ ____
ROOT
ATOM      1  N   UNL     1       1.700  16.178  19.800  0.00  0.00    +0.000 NA
ATOM      2  C   UNL     1       2.616  15.128  20.330  0.00  0.00    +0.000 C 
ATOM      3  C   UNL     1       3.582  14.497  19.300  0.00  0.00    +0.000 C 
ATOM      4  N   UNL     1       4.333  15.533  18.532  0.00  0.00    +0.000 NA
ATOM      5  C   UNL     1       3.377  16.503  17.920  0.00  0.00    +0.000 C 
ATOM      6  C   UNL     1       2.484  17.147  18.998  0.00  0.00    +0.000 C 
ENDROOT
BRANCH   4   7
ATOM      7  S   UNL     1       5.658  16.259  19.342  0.00  0.00    +0.000 S 
ATOM      8  O   UNL     1       6.078  17.405  18.559  0.00  0.00    +0.000 OA
ATOM      9  O   UNL     1       5.349  16.393  20.747  0.00  0.00    +0.000 OA
BRANCH   7  10
ATOM     10  C   UNL     1       6.919  15.027  19.171  0.00  0.00    +0.000 A 
ATOM     11  C   UNL     1       7.631  14.649  20.305  0.00  0.00    +0.000 A 
ATOM     12  C   UNL     1       8.621  13.675  20.199  0.00  0.00    +0.000 A 
ATOM     13  C   UNL     1       8.915  13.048  18.971  0.00  0.00    +0.000 A 
ATOM     14  C   UNL     1       8.173  13.453  17.843  0.00  0.00    +0.000 A 
ATOM     15  C   UNL     1       7.182  14.436  17.936  0.00  0.00    +0.000 A 
BRANCH  13  16
ATOM     16  C   UNL     1       9.980  11.941  18.858  0.00  0.00    +0.000 C 
ATOM     17  C   UNL     1      10.892  12.117  17.622  0.00  0.00    +0.000 C 
ATOM     18  C   UNL     1      10.882  11.951  20.110  0.00  0.00    +0.000 C 
ATOM     19  C   UNL     1       9.321  10.551  18.738  0.00  0.00    +0.000 C 
ENDBRANCH  13  16
ENDBRANCH   7  10
ENDBRANCH   4   7
BRANCH   1  21
ATOM     20  C   UNL     1      -0.434  16.615  18.492  0.00  0.00    +0.000 C 
ATOM     21  C   UNL     1       0.551  15.587  19.068  0.00  0.00    +0.000 C 
BRANCH  21  22
ATOM     22  C   UNL     1      -0.328  14.700  19.996  0.00  0.00    +0.000 C 
ATOM     23  O   UNL     1      -0.896  15.160  20.994  0.00  0.00    +0.000 OA
ATOM     24  N   UNL     1      -0.526  13.383  19.600  0.00  0.00    +0.000 N 
ATOM     25  C   UNL     1      -1.562  12.600  20.266  0.00  0.00    +0.000 C 
ATOM     26  C   UNL     1      -0.946  11.430  21.026  0.00  0.00    +0.000 C 
ATOM     27  C   UNL     1      -0.048  10.596  20.110  0.00  0.00    +0.000 C 
ATOM     28  C   UNL     1       0.989  11.469  19.406  0.00  0.00    +0.000 C 
ATOM     29  C   UNL     1       0.313  12.624  18.670  0.00  0.00    +0.000 C 
ENDBRANCH  21  22
ENDBRANCH   1  21
TORSDOF 5
ENDMDL
MODEL 4
REMARK VINA RESULT:      -6.2      4.265      7.292
REMARK  Name = 
REMARK  9 active torsions:
REMARK  status: ('A' for Active; 'I' for Inactive)
REMARK    1  A    between atoms: C_1  and  C_2
REMARK    2  A    between atoms: C_2  and  C_3
REMARK    3  A    between atoms: C_2  and  N_11
REMARK    4  A    between atoms: N_14  and  S_15
REMARK    5  A    between atoms: S_15  and  C_18
REMARK    6  A    between atoms: C_21  and  C_22
REMARK    7  A    between atoms: C_22  and  C_23
REMARK    8  A    between atoms: C_22  and  C_24
REMARK    9  A    between atoms: C_22  and  C_25
REMARK                            x       y       z     vdW  Elec       q    Type
REMARK                         _______ _______ _______ _____ _____    ______ ____
ROOT
ATOM      1  N   UNL     1       0.637  14.905  21.113  0.00  0.00    +0.000 NA
ATOM      2  C   UNL     1       2.007  14.391  21.401  0.00  0.00    +0.000 C 
ATOM      3  C   UNL     1       2.817  13.915  20.172  0.00  0.00    +0.000 C 
ATOM      4  N   UNL     1       2.840  14.941  19.088  0.00  0.00    +0.000 NA
ATOM      5  C   UNL     1       1.445  15.349  18.746  0.00  0.00    +0.000 C 
ATOM      6  C   UNL     1       0.706  15.873  19.994  0.00  0.00    +0.000 C 
ENDROOT
BRANCH   4   7
ATOM      7  S   UNL     1       3.927  16.247  19.309  0.00  0.00    +0.000 S 
ATOM      8  O   UNL     1       3.782  17.137  18.173  0.00  0.00    +0.000 OA
ATOM      9  O   UNL     1       3.815  16.745  20.661  0.00  0.00    +0.000 OA
BRANCH   7  10
ATOM     10  C   UNL     1       5.502  15.453  19.144  0.00  0.00    +0.000 A 
ATOM     11  C   UNL     1       6.321  15.372  20.265  0.00  0.00    +0.000 A 
ATOM     12  C   UNL     1       7.561  14.744  20.164  0.00  0.00    +0.000 A 
ATOM     13  C   UNL     1       8.004  14.173  18.955  0.00  0.00    +0.000 A 
ATOM     14  C   UNL     1       7.149  14.270  17.839  0.00  0.00    +0.000 A 
ATOM     15  C   UNL     1       5.906  14.906  17.927  0.00  0.00    +0.000 A 
BRANCH  13  16
ATOM     16  C   UNL     1       9.356  13.440  18.849  0.00  0.00    +0.000 C 
ATOM     17  C   UNL     1       9.469  12.585  17.566  0.00  0.00    +0.000 C 
ATOM     18  C   UNL     1      10.509  14.466  18.831  0.00  0.00    +0.000 C 
ATOM     19  C   UNL     1       9.563  12.488  20.046  0.00  0.00    +0.000 C 
ENDBRANCH  13  16
ENDBRANCH   7  10
ENDBRANCH   4   7
BRANCH   1  21
ATOM     20  C   UNL     1      -1.771  14.259  20.625  0.00  0.00    +0.000 C 
ATOM     21  C   UNL     1      -0.329  13.800  20.891  0.00  0.00    +0.000 C 
BRANCH  21  22
ATOM     22  C   UNL     1      -0.450  12.879  22.138  0.00  0.00    +0.000 C 
ATOM     23  O   UNL     1      -0.406  13.329  23.290  0.00  0.00    +0.000 OA
ATOM     24  N   UNL     1      -0.704  11.534  21.902  0.00  0.00    +0.000 N 
ATOM     25  C   UNL     1      -1.110  10.691  23.022  0.00  0.00    +0.000 C 
ATOM     26  C   UNL     1      -0.064   9.615  23.292  0.00  0.00    +0.000 C 
ATOM     27  C   UNL     1       0.247   8.825  22.019  0.00  0.00    +0.000 C 
ATOM     28  C   UNL     1       0.624   9.756  20.867  0.00  0.00    +0.000 C 
ATOM     29  C   UNL     1      -0.457  10.813  20.652  0.00  0.00    +0.000 C 
ENDBRANCH  21  22
ENDBRANCH   1  21
TORSDOF 5
ENDMDL
MODEL 5
REMARK VINA RESULT:      -6.2      3.695      7.193
REMARK  Name = 
REMARK  9 active torsions:
REMARK  status: ('A' for Active; 'I' for Inactive)
REMARK    1  A    between atoms: C_1  and  C_2
REMARK    2  A    between atoms: C_2  and  C_3
REMARK    3  A    between atoms: C_2  and  N_11
REMARK    4  A    between atoms: N_14  and  S_15
REMARK    5  A    between atoms: S_15  and  C_18
REMARK    6  A    between atoms: C_21  and  C_22
REMARK    7  A    between atoms: C_22  and  C_23
REMARK    8  A    between atoms: C_22  and  C_24
REMARK    9  A    between atoms: C_22  and  C_25
REMARK                            x       y       z     vdW  Elec       q    Type
REMARK                         _______ _______ _______ _____ _____    ______ ____
ROOT
ATOM      1  N   UNL     1       0.949  13.449  20.924  0.00  0.00    +0.000 NA
ATOM      2  C   UNL     1       2.366  13.195  20.538  0.00  0.00    +0.000 C 
ATOM      3  C   UNL     1       2.732  13.518  19.071  0.00  0.00    +0.000 C 
ATOM      4  N   UNL     1       2.302  14.893  18.678  0.00  0.00    +0.000 NA
ATOM      5  C   UNL     1       0.849  15.073  18.974  0.00  0.00    +0.000 C 
ATOM      6  C   UNL     1       0.554  14.799  20.461  0.00  0.00    +0.000 C 
ENDROOT
BRANCH   4   7
ATOM      7  S   UNL     1       3.300  16.177  19.219  0.00  0.00    +0.000 S 
ATOM      8  O   UNL     1       3.178  17.261  18.263  0.00  0.00    +0.000 OA
ATOM      9  O   UNL     1       3.077  16.402  20.628  0.00  0.00    +0.000 OA
BRANCH   7  10
ATOM     10  C   UNL     1       4.923  15.496  19.020  0.00  0.00    +0.000 A 
ATOM     11  C   UNL     1       5.756  15.441  20.132  0.00  0.00    +0.000 A 
ATOM     12  C   UNL     1       7.034  14.900  20.005  0.00  0.00    +0.000 A 
ATOM     13  C   UNL     1       7.504  14.393  18.778  0.00  0.00    +0.000 A 
ATOM     14  C   UNL     1       6.633  14.461  17.671  0.00  0.00    +0.000 A 
ATOM     15  C   UNL     1       5.351  15.009  17.786  0.00  0.00    +0.000 A 
BRANCH  13  16
ATOM     16  C   UNL     1       8.900  13.756  18.642  0.00  0.00    +0.000 C 
ATOM     17  C   UNL     1       9.520  13.387  20.009  0.00  0.00    +0.000 C 
ATOM     18  C   UNL     1       8.807  12.461  17.807  0.00  0.00    +0.000 C 
ATOM     19  C   UNL     1       9.883  14.720  17.946  0.00  0.00    +0.000 C 
ENDBRANCH  13  16
ENDBRANCH   7  10
ENDBRANCH   4   7
BRANCH   1  21
ATOM     20  C   UNL     1      -1.400  12.480  20.950  0.00  0.00    +0.000 C 
ATOM     21  C   UNL     1       0.049  12.367  20.450  0.00  0.00    +0.000 C 
BRANCH  21  22
ATOM     22  C   UNL     1       0.513  10.969  20.951  0.00  0.00    +0.000 C 
ATOM     23  O   UNL     1       0.770  10.754  22.141  0.00  0.00    +0.000 OA
ATOM     24  N   UNL     1       0.536   9.944  20.014  0.00  0.00    +0.000 N 
ATOM     25  C   UNL     1       0.681   8.569  20.484  0.00  0.00    +0.000 C 
ATOM     26  C   UNL     1       1.989   7.966  19.984  0.00  0.00    +0.000 C 
ATOM     27  C   UNL     1       2.109   8.105  18.465  0.00  0.00    +0.000 C 
ATOM     28  C   UNL     1       1.907   9.553  18.023  0.00  0.00    +0.000 C 
ATOM     29  C   UNL     1       0.587  10.102  18.559  0.00  0.00    +0.000 C 
ENDBRANCH  21  22
ENDBRANCH   1  21
TORSDOF 5
ENDMDL
MODEL 6
REMARK VINA RESULT:      -6.2      3.745      5.635
REMARK  Name = 
REMARK  9 active torsions:
REMARK  status: ('A' for Active; 'I' for Inactive)
REMARK    1  A    between atoms: C_1  and  C_2
REMARK    2  A    between atoms: C_2  and  C_3
REMARK    3  A    between atoms: C_2  and  N_11
REMARK    4  A    between atoms: N_14  and  S_15
REMARK    5  A    between atoms: S_15  and  C_18
REMARK    6  A    between atoms: C_21  and  C_22
REMARK    7  A    between atoms: C_22  and  C_23
REMARK    8  A    between atoms: C_22  and  C_24
REMARK    9  A    between atoms: C_22  and  C_25
REMARK                            x       y       z     vdW  Elec       q    Type
REMARK                         _______ _______ _______ _____ _____    ______ ____
ROOT
ATOM      1  N   UNL     1      -2.347  13.510  21.084  0.00  0.00    +0.000 NA
ATOM      2  C   UNL     1      -2.020  12.068  21.274  0.00  0.00    +0.000 C 
ATOM      3  C   UNL     1      -1.539  11.316  20.010  0.00  0.00    +0.000 C 
ATOM      4  N   UNL     1      -0.429  12.038  19.320  0.00  0.00    +0.000 NA
ATOM      5  C   UNL     1      -0.836  13.448  19.044  0.00  0.00    +0.000 C 
ATOM      6  C   UNL     1      -1.244  14.166  20.345  0.00  0.00    +0.000 C 
ENDROOT
BRANCH   4   7
ATOM      7  S   UNL     1       1.126  11.872  20.021  0.00  0.00    +0.000 S 
ATOM      8  O   UNL     1       2.072  12.554  19.158  0.00  0.00    +0.000 OA
ATOM      9  O   UNL     1       1.056  12.177  21.431  0.00  0.00    +0.000 OA
BRANCH   7  10
ATOM     10  C   UNL     1       1.429  10.136  19.848  0.00  0.00    +0.000 A 
ATOM     11  C   UNL     1       1.862   9.660  18.615  0.00  0.00    +0.000 A 
ATOM     12  C   UNL     1       2.117   8.300  18.456  0.00  0.00    +0.000 A 
ATOM     13  C   UNL     1       1.961   7.389  19.519  0.00  0.00    +0.000 A 
ATOM     14  C   UNL     1       1.524   7.903  20.755  0.00  0.00    +0.000 A 
ATOM     15  C   UNL     1       1.257   9.266  20.924  0.00  0.00    +0.000 A 
BRANCH  13  16
ATOM     16  C   UNL     1       2.283   5.890  19.359  0.00  0.00    +0.000 C 
ATOM     17  C   UNL     1       3.794   5.590  19.484  0.00  0.00    +0.000 C 
ATOM     18  C   UNL     1       1.553   5.078  20.450  0.00  0.00    +0.000 C 
ATOM     19  C   UNL     1       1.833   5.373  17.977  0.00  0.00    +0.000 C 
ENDBRANCH  13  16
ENDBRANCH   7  10
ENDBRANCH   4   7
BRANCH   1  21
ATOM     20  C   UNL     1      -4.282  15.095  20.635  0.00  0.00    +0.000 C 
ATOM     21  C   UNL     1      -3.680  13.693  20.456  0.00  0.00    +0.000 C 
BRANCH  21  22
ATOM     22  C   UNL     1      -4.745  12.743  21.075  0.00  0.00    +0.000 C 
ATOM     23  O   UNL     1      -4.728  12.433  22.272  0.00  0.00    +0.000 OA
ATOM     24  N   UNL     1      -5.776  12.329  20.240  0.00  0.00    +0.000 N 
ATOM     25  C   UNL     1      -6.942  11.684  20.836  0.00  0.00    +0.000 C 
ATOM     26  C   UNL     1      -7.060  10.241  20.357  0.00  0.00    +0.000 C 
ATOM     27  C   UNL     1      -7.040  10.169  18.829  0.00  0.00    +0.000 C 
ATOM     28  C   UNL     1      -5.825  10.895  18.256  0.00  0.00    +0.000 C 
ATOM     29  C   UNL     1      -5.758  12.330  18.776  0.00  0.00    +0.000 C 
ENDBRANCH  21  22
ENDBRANCH   1  21
TORSDOF 5
ENDMDL
MODEL 7
REMARK VINA RESULT:      -6.2      3.968      7.233
REMARK  Name = 
REMARK  9 active torsions:
REMARK  status: ('A' for Active; 'I' for Inactive)
REMARK    1  A    between atoms: C_1  and  C_2
REMARK    2  A    between atoms: C_2  and  C_3
REMARK    3  A    between atoms: C_2  and  N_11
REMARK    4  A    between atoms: N_14  and  S_15
REMARK    5  A    between atoms: S_15  and  C_18
REMARK    6  A    between atoms: C_21  and  C_22
REMARK    7  A    between atoms: C_22  and  C_23
REMARK    8  A    between atoms: C_22  and  C_24
REMARK    9  A    between atoms: C_22  and  C_25
REMARK                            x       y       z     vdW  Elec       q    Type
REMARK                         _______ _______ _______ _____ _____    ______ ____
ROOT
ATOM      1  N   UNL     1       0.257  14.923  21.281  0.00  0.00    +0.000 NA
ATOM      2  C   UNL     1       1.663  14.437  21.375  0.00  0.00    +0.000 C 
ATOM      3  C   UNL     1       2.337  14.066  20.034  0.00  0.00    +0.000 C 
ATOM      4  N   UNL     1       2.207  15.157  19.023  0.00  0.00    +0.000 NA
ATOM      5  C   UNL     1       0.771  15.539  18.872  0.00  0.00    +0.000 C 
ATOM      6  C   UNL     1       0.171  15.960  20.227  0.00  0.00    +0.000 C 
ENDROOT
BRANCH   4   7
ATOM      7  S   UNL     1       3.279  16.482  19.204  0.00  0.00    +0.000 S 
ATOM      8  O   UNL     1       3.126  17.333  18.040  0.00  0.00    +0.000 OA
ATOM      9  O   UNL     1       3.159  17.021  20.538  0.00  0.00    +0.000 OA
BRANCH   7  10
ATOM     10  C   UNL     1       4.863  15.701  19.067  0.00  0.00    +0.000 A 
ATOM     11  C   UNL     1       5.183  15.061  17.874  0.00  0.00    +0.000 A 
ATOM     12  C   UNL     1       6.426  14.447  17.737  0.00  0.00    +0.000 A 
ATOM     13  C   UNL     1       7.380  14.469  18.774  0.00  0.00    +0.000 A 
ATOM     14  C   UNL     1       7.025  15.128  19.968  0.00  0.00    +0.000 A 
ATOM     15  C   UNL     1       5.776  15.740  20.119  0.00  0.00    +0.000 A 
BRANCH  13  16
ATOM     16  C   UNL     1       8.772  13.829  18.611  0.00  0.00    +0.000 C 
ATOM     17  C   UNL     1       8.769  12.645  17.617  0.00  0.00    +0.000 C 
ATOM     18  C   UNL     1       9.774  14.879  18.085  0.00  0.00    +0.000 C 
ATOM     19  C   UNL     1       9.291  13.285  19.959  0.00  0.00    +0.000 C 
ENDBRANCH  13  16
ENDBRANCH   7  10
ENDBRANCH   4   7
BRANCH   1  21
ATOM     20  C   UNL     1      -2.173  14.231  21.013  0.00  0.00    +0.000 C 
ATOM     21  C   UNL     1      -0.700  13.803  21.099  0.00  0.00    +0.000 C 
BRANCH  21  22
ATOM     22  C   UNL     1      -0.665  12.813  22.298  0.00  0.00    +0.000 C 
ATOM     23  O   UNL     1      -0.581  13.205  23.468  0.00  0.00    +0.000 OA
ATOM     24  N   UNL     1      -0.826  11.465  22.003  0.00  0.00    +0.000 N 
ATOM     25  C   UNL     1      -1.089  10.535  23.097  0.00  0.00    +0.000 C 
ATOM     26  C   UNL     1       0.055   9.537  23.240  0.00  0.00    +0.000 C 
ATOM     27  C   UNL     1       0.343   8.842  21.908  0.00  0.00    +0.000 C 
ATOM     28  C   UNL     1       0.567   9.858  20.790  0.00  0.00    +0.000 C 
ATOM     29  C   UNL     1      -0.606  10.831  20.701  0.00  0.00    +0.000 C 
ENDBRANCH  21  22
ENDBRANCH   1  21
TORSDOF 5
ENDMDL
MODEL 8
REMARK VINA RESULT:      -6.1      3.497      4.924
REMARK  Name = 
REMARK  9 active torsions:
REMARK  status: ('A' for Active; 'I' for Inactive)
REMARK    1  A    between atoms: C_1  and  C_2
REMARK    2  A    between atoms: C_2  and  C_3
REMARK    3  A    between atoms: C_2  and  N_11
REMARK    4  A    between atoms: N_14  and  S_15
REMARK    5  A    between atoms: S_15  and  C_18
REMARK    6  A    between atoms: C_21  and  C_22
REMARK    7  A    between atoms: C_22  and  C_23
REMARK    8  A    between atoms: C_22  and  C_24
REMARK    9  A    between atoms: C_22  and  C_25
REMARK                            x       y       z     vdW  Elec       q    Type
REMARK                         _______ _______ _______ _____ _____    ______ ____
ROOT
ATOM      1  N   UNL     1      -2.227  13.365  21.677  0.00  0.00    +0.000 NA
ATOM      2  C   UNL     1      -1.211  12.561  22.414  0.00  0.00    +0.000 C 
ATOM      3  C   UNL     1      -1.051  11.094  21.951  0.00  0.00    +0.000 C 
ATOM      4  N   UNL     1      -0.854  10.993  20.475  0.00  0.00    +0.000 NA
ATOM      5  C   UNL     1      -1.954  11.714  19.767  0.00  0.00    +0.000 C 
ATOM      6  C   UNL     1      -2.027  13.185  20.221  0.00  0.00    +0.000 C 
ENDROOT
BRANCH   4   7
ATOM      7  S   UNL     1       0.718  11.356  19.898  0.00  0.00    +0.000 S 
ATOM      8  O   UNL     1       0.573  12.078  18.648  0.00  0.00    +0.000 OA
ATOM      9  O   UNL     1       1.516  11.894  20.976  0.00  0.00    +0.000 OA
BRANCH   7  10
ATOM     10  C   UNL     1       1.348   9.751  19.495  0.00  0.00    +0.000 A 
ATOM     11  C   UNL     1       1.782   9.519  18.194  0.00  0.00    +0.000 A 
ATOM     12  C   UNL     1       2.290   8.267  17.855  0.00  0.00    +0.000 A 
ATOM     13  C   UNL     1       2.390   7.227  18.800  0.00  0.00    +0.000 A 
ATOM     14  C   UNL     1       1.944   7.496  20.110  0.00  0.00    +0.000 A 
ATOM     15  C   UNL     1       1.424   8.747  20.460  0.00  0.00    +0.000 A 
BRANCH  13  16
ATOM     16  C   UNL     1       2.991   5.855  18.440  0.00  0.00    +0.000 C 
ATOM     17  C   UNL     1       1.932   4.865  17.903  0.00  0.00    +0.000 C 
ATOM     18  C   UNL     1       4.068   6.025  17.346  0.00  0.00    +0.000 C 
ATOM     19  C   UNL     1       3.642   5.195  19.673  0.00  0.00    +0.000 C 
ENDBRANCH  13  16
ENDBRANCH   7  10
ENDBRANCH   4   7
BRANCH   1  21
ATOM     20  C   UNL     1      -4.714  13.543  21.185  0.00  0.00    +0.000 C 
ATOM     21  C   UNL     1      -3.607  13.059  22.134  0.00  0.00    +0.000 C 
BRANCH  21  22
ATOM     22  C   UNL     1      -3.935  13.755  23.485  0.00  0.00    +0.000 C 
ATOM     23  O   UNL     1      -4.448  13.142  24.429  0.00  0.00    +0.000 OA
ATOM     24  N   UNL     1      -3.539  15.080  23.620  0.00  0.00    +0.000 N 
ATOM     25  C   UNL     1      -3.560  15.686  24.948  0.00  0.00    +0.000 C 
ATOM     26  C   UNL     1      -4.571  16.826  25.003  0.00  0.00    +0.000 C 
ATOM     27  C   UNL     1      -4.319  17.834  23.879  0.00  0.00    +0.000 C 
ATOM     28  C   UNL     1      -4.264  17.144  22.518  0.00  0.00    +0.000 C 
ATOM     29  C   UNL     1      -3.241  16.010  22.528  0.00  0.00    +0.000 C 
ENDBRANCH  21  22
ENDBRANCH   1  21
TORSDOF 5
ENDMDL
MODEL 9
REMARK VINA RESULT:      -6.1      2.167      2.664
REMARK  Name = 
REMARK  9 active torsions:
REMARK  status: ('A' for Active; 'I' for Inactive)
REMARK    1  A    between atoms: C_1  and  C_2
REMARK    2  A    between atoms: C_2  and  C_3
REMARK    3  A    between atoms: C_2  and  N_11
REMARK    4  A    between atoms: N_14  and  S_15
REMARK    5  A    between atoms: S_15  and  C_18
REMARK    6  A    between atoms: C_21  and  C_22
REMARK    7  A    between atoms: C_22  and  C_23
REMARK    8  A    between atoms: C_22  and  C_24
REMARK    9  A    between atoms: C_22  and  C_25
REMARK                            x       y       z     vdW  Elec       q    Type
REMARK                         _______ _______ _______ _____ _____    ______ ____
ROOT
ATOM      1  N   UNL     1       1.053  15.271  20.221  0.00  0.00    +0.000 NA
ATOM      2  C   UNL     1       1.785  14.371  19.284  0.00  0.00    +0.000 C 
ATOM      3  C   UNL     1       2.270  13.030  19.883  0.00  0.00    +0.000 C 
ATOM      4  N   UNL     1       1.173  12.304  20.587  0.00  0.00    +0.000 NA
ATOM      5  C   UNL     1       0.538  13.201  21.598  0.00  0.00    +0.000 C 
ATOM      6  C   UNL     1       0.017  14.491  20.935  0.00  0.00    +0.000 C 
ENDROOT
BRANCH   4   7
ATOM      7  S   UNL     1       0.063  11.464  19.587  0.00  0.00    +0.000 S 
ATOM      8  O   UNL     1      -1.102  11.147  20.392  0.00  0.00    +0.000 OA
ATOM      9  O   UNL     1      -0.073  12.158  18.328  0.00  0.00    +0.000 OA
BRANCH   7  10
ATOM     10  C   UNL     1       0.912   9.939  19.286  0.00  0.00    +0.000 A 
ATOM     11  C   UNL     1       1.401   9.697  18.007  0.00  0.00    +0.000 A 
ATOM     12  C   UNL     1       2.081   8.509  17.747  0.00  0.00    +0.000 A 
ATOM     13  C   UNL     1       2.301   7.547  18.752  0.00  0.00    +0.000 A 
ATOM     14  C   UNL     1       1.795   7.825  20.037  0.00  0.00    +0.000 A 
ATOM     15  C   UNL     1       1.103   9.010  20.308  0.00  0.00    +0.000 A 
BRANCH  13  16
ATOM     16  C   UNL     1       3.090   6.251  18.479  0.00  0.00    +0.000 C 
ATOM     17  C   UNL     1       4.253   6.463  17.483  0.00  0.00    +0.000 C 
ATOM     18  C   UNL     1       3.693   5.718  19.796  0.00  0.00    +0.000 C 
ATOM     19  C   UNL     1       2.174   5.163  17.881  0.00  0.00    +0.000 C 
ENDBRANCH  13  16
ENDBRANCH   7  10
ENDBRANCH   4   7
BRANCH   1  21
ATOM     20  C   UNL     1       1.298  16.977  22.088  0.00  0.00    +0.000 C 
ATOM     21  C   UNL     1       1.983  15.999  21.122  0.00  0.00    +0.000 C 
BRANCH  21  22
ATOM     22  C   UNL     1       2.979  16.890  20.326  0.00  0.00    +0.000 C 
ATOM     23  O   UNL     1       2.591  17.765  19.543  0.00  0.00    +0.000 OA
ATOM     24  N   UNL     1       4.330  16.722  20.604  0.00  0.00    +0.000 N 
ATOM     25  C   UNL     1       5.275  17.717  20.109  0.00  0.00    +0.000 C 
ATOM     26  C   UNL     1       6.233  17.093  19.100  0.00  0.00    +0.000 C 
ATOM     27  C   UNL     1       6.909  15.851  19.684  0.00  0.00    +0.000 C 
ATOM     28  C   UNL     1       5.878  14.863  20.227  0.00  0.00    +0.000 C 
ATOM     29  C   UNL     1       4.946  15.548  21.225  0.00  0.00    +0.000 C 
ENDBRANCH  21  22
ENDBRANCH   1  21
TORSDOF 5
ENDMDL
