MODEL 1
REMARK VINA RESULT:      -8.6      0.000      0.000
REMARK  Name = 
REMARK  7 active torsions:
REMARK  status: ('A' for Active; 'I' for Inactive)
REMARK    1  A    between atoms: C_1  and  C_2
REMARK    2  A    between atoms: C_2  and  O_4
REMARK    3  A    between atoms: O_4  and  C_5
REMARK    4  A    between atoms: C_5  and  C_6
REMARK    5  A    between atoms: C_5  and  C_17
REMARK    6  A    between atoms: N_8  and  C_9
REMARK    7  A    between atoms: C_9  and  C_10
REMARK                            x       y       z     vdW  Elec       q    Type
REMARK                         _______ _______ _______ _____ _____    ______ ____
ROOT
ATOM      1  C   UNL     1       5.103   6.015  16.449  0.00  0.00    +0.000 C 
ATOM      2  O   UNL     1       4.616   6.960  15.823  0.00  0.00    +0.000 OA
ATOM      3  N   UNL     1       4.398   5.371  17.447  0.00  0.00    +0.000 N 
ATOM      4  H   UNL     1       4.822   4.571  17.912  0.00  0.00    +0.000 HD
ENDROOT
BRANCH   1   5
ATOM      5  C   UNL     1       6.539   5.501  16.175  0.00  0.00    +0.000 C 
BRANCH   5   6
ATOM      6  C   UNL     1       6.683   5.026  14.735  0.00  0.00    +0.000 A 
ATOM      7  C   UNL     1       5.812   4.072  14.210  0.00  0.00    +0.000 A 
ATOM      8  C   UNL     1       6.001   3.620  12.911  0.00  0.00    +0.000 A 
ATOM      9  C   UNL     1       7.059   4.119  12.165  0.00  0.00    +0.000 A 
ATOM     10  C   UNL     1       7.893   5.052  12.753  0.00  0.00    +0.000 A 
ATOM     11  N   UNL     1       7.743   5.504  14.020  0.00  0.00    +0.000 NA
ENDBRANCH   5   6
BRANCH   5  12
ATOM     12  O   UNL     1       7.514   6.539  16.381  0.00  0.00    +0.000 OA
BRANCH  12  14
ATOM     13  C   UNL     1       7.840   8.440  17.689  0.00  0.00    +0.000 C 
ATOM     14  C   UNL     1       7.714   6.946  17.657  0.00  0.00    +0.000 C 
ATOM     15  O   UNL     1       7.849   6.214  18.627  0.00  0.00    +0.000 OA
ENDBRANCH  12  14
ENDBRANCH   5  12
ENDBRANCH   1   5
BRANCH   3  16
ATOM     16  C   UNL     1       3.048   5.741  17.800  0.00  0.00    +0.000 C 
BRANCH  16  17
ATOM     17  C   UNL     1       2.467   4.870  18.888  0.00  0.00    +0.000 A 
ATOM     18  C   UNL     1       2.858   5.027  20.226  0.00  0.00    +0.000 A 
ATOM     19  C   UNL     1       2.277   4.246  21.230  0.00  0.00    +0.000 A 
ATOM     20  C   UNL     1       1.316   3.299  20.895  0.00  0.00    +0.000 A 
ATOM     21  F   UNL     1       0.751   2.561  21.860  0.00  0.00    +0.000 F 
ATOM     22  C   UNL     1       0.931   3.110  19.574  0.00  0.00    +0.000 A 
ATOM     23  C   UNL     1       1.509   3.890  18.571  0.00  0.00    +0.000 A 
ENDBRANCH  16  17
ENDBRANCH   3  16
TORSDOF 6
ENDMDL
MODEL 2
REMARK VINA RESULT:      -8.2      1.185      1.245
REMARK  Name = 
REMARK  7 active torsions:
REMARK  status: ('A' for Active; 'I' for Inactive)
REMARK    1  A    between atoms: C_1  and  C_2
REMARK    2  A    between atoms: C_2  and  O_4
REMARK    3  A    between atoms: O_4  and  C_5
REMARK    4  A    between atoms: C_5  and  C_6
REMARK    5  A    between atoms: C_5  and  C_17
REMARK    6  A    between atoms: N_8  and  C_9
REMARK    7  A    between atoms: C_9  and  C_10
REMARK                            x       y       z     vdW  Elec       q    Type
REMARK                         _______ _______ _______ _____ _____    ______ ____
ROOT
ATOM      1  C   UNL     1       5.047   4.910  16.427  0.00  0.00    +0.000 C 
ATOM      2  O   UNL     1       4.581   6.052  16.443  0.00  0.00    +0.000 OA
ATOM      3  N   UNL     1       4.263   3.807  16.705  0.00  0.00    +0.000 N 
ATOM      4  H   UNL     1       4.677   2.879  16.643  0.00  0.00    +0.000 HD
ENDROOT
BRANCH   1   5
ATOM      5  C   UNL     1       6.540   4.636  16.117  0.00  0.00    +0.000 C 
BRANCH   5   6
ATOM      6  C   UNL     1       6.786   4.589  14.615  0.00  0.00    +0.000 A 
ATOM      7  C   UNL     1       6.088   3.692  13.807  0.00  0.00    +0.000 A 
ATOM      8  C   UNL     1       6.372   3.636  12.449  0.00  0.00    +0.000 A 
ATOM      9  C   UNL     1       7.352   4.467  11.925  0.00  0.00    +0.000 A 
ATOM     10  C   UNL     1       8.015   5.322  12.785  0.00  0.00    +0.000 A 
ATOM     11  N   UNL     1       7.770   5.392  14.115  0.00  0.00    +0.000 NA
ENDBRANCH   5   6
BRANCH   5  12
ATOM     12  O   UNL     1       7.385   5.670  16.656  0.00  0.00    +0.000 OA
BRANCH  12  14
ATOM     13  C   UNL     1       7.988   6.980  18.486  0.00  0.00    +0.000 C 
ATOM     14  C   UNL     1       7.661   5.606  17.979  0.00  0.00    +0.000 C 
ATOM     15  O   UNL     1       7.714   4.585  18.649  0.00  0.00    +0.000 OA
ENDBRANCH  12  14
ENDBRANCH   5  12
ENDBRANCH   1   5
BRANCH   3  16
ATOM     16  C   UNL     1       2.854   3.917  17.001  0.00  0.00    +0.000 C 
BRANCH  16  17
ATOM     17  C   UNL     1       2.520   3.506  18.416  0.00  0.00    +0.000 A 
ATOM     18  C   UNL     1       3.480   2.899  19.239  0.00  0.00    +0.000 A 
ATOM     19  C   UNL     1       3.171   2.568  20.561  0.00  0.00    +0.000 A 
ATOM     20  C   UNL     1       1.899   2.831  21.057  0.00  0.00    +0.000 A 
ATOM     21  F   UNL     1       1.609   2.525  22.329  0.00  0.00    +0.000 F 
ATOM     22  C   UNL     1       0.926   3.410  20.253  0.00  0.00    +0.000 A 
ATOM     23  C   UNL     1       1.234   3.742  18.933  0.00  0.00    +0.000 A 
ENDBRANCH  16  17
ENDBRANCH   3  16
TORSDOF 6
ENDMDL
MODEL 3
REMARK VINA RESULT:      -8.0      0.603      1.025
REMARK  Name = 
REMARK  7 active torsions:
REMARK  status: ('A' for Active; 'I' for Inactive)
REMARK    1  A    between atoms: C_1  and  C_2
REMARK    2  A    between atoms: C_2  and  O_4
REMARK    3  A    between atoms: O_4  and  C_5
REMARK    4  A    between atoms: C_5  and  C_6
REMARK    5  A    between atoms: C_5  and  C_17
REMARK    6  A    between atoms: N_8  and  C_9
REMARK    7  A    between atoms: C_9  and  C_10
REMARK                            x       y       z     vdW  Elec       q    Type
REMARK                         _______ _______ _______ _____ _____    ______ ____
ROOT
ATOM      1  C   UNL     1       5.183   5.914  16.495  0.00  0.00    +0.000 C 
ATOM      2  O   UNL     1       4.740   6.905  15.909  0.00  0.00    +0.000 OA
ATOM      3  N   UNL     1       4.433   5.236  17.435  0.00  0.00    +0.000 N 
ATOM      4  H   UNL     1       4.821   4.400  17.867  0.00  0.00    +0.000 HD
ENDROOT
BRANCH   1   5
ATOM      5  C   UNL     1       6.613   5.376  16.232  0.00  0.00    +0.000 C 
BRANCH   5   6
ATOM      6  C   UNL     1       6.759   4.892  14.796  0.00  0.00    +0.000 A 
ATOM      7  C   UNL     1       7.676   5.490  13.933  0.00  0.00    +0.000 A 
ATOM      8  C   UNL     1       7.749   5.062  12.614  0.00  0.00    +0.000 A 
ATOM      9  C   UNL     1       6.902   4.054  12.179  0.00  0.00    +0.000 A 
ATOM     10  C   UNL     1       6.006   3.515  13.084  0.00  0.00    +0.000 A 
ATOM     11  N   UNL     1       5.902   3.918  14.372  0.00  0.00    +0.000 NA
ENDBRANCH   5   6
BRANCH   5  12
ATOM     12  O   UNL     1       7.603   6.399  16.442  0.00  0.00    +0.000 OA
BRANCH  12  14
ATOM     13  C   UNL     1       7.727   8.400  17.628  0.00  0.00    +0.000 C 
ATOM     14  C   UNL     1       7.708   6.901  17.694  0.00  0.00    +0.000 C 
ATOM     15  O   UNL     1       7.843   6.247  18.717  0.00  0.00    +0.000 OA
ENDBRANCH  12  14
ENDBRANCH   5  12
ENDBRANCH   1   5
BRANCH   3  16
ATOM     16  C   UNL     1       3.082   5.624  17.770  0.00  0.00    +0.000 C 
BRANCH  16  17
ATOM     17  C   UNL     1       2.491   4.787  18.879  0.00  0.00    +0.000 A 
ATOM     18  C   UNL     1       2.843   5.011  20.219  0.00  0.00    +0.000 A 
ATOM     19  C   UNL     1       2.251   4.260  21.240  0.00  0.00    +0.000 A 
ATOM     20  C   UNL     1       1.318   3.280  20.921  0.00  0.00    +0.000 A 
ATOM     21  F   UNL     1       0.743   2.572  21.903  0.00  0.00    +0.000 F 
ATOM     22  C   UNL     1       0.973   3.026  19.600  0.00  0.00    +0.000 A 
ATOM     23  C   UNL     1       1.562   3.775  18.581  0.00  0.00    +0.000 A 
ENDBRANCH  16  17
ENDBRANCH   3  16
TORSDOF 6
ENDMDL
MODEL 4
REMARK VINA RESULT:      -7.9      1.127      1.554
REMARK  Name = 
REMARK  7 active torsions:
REMARK  status: ('A' for Active; 'I' for Inactive)
REMARK    1  A    between atoms: C_1  and  C_2
REMARK    2  A    between atoms: C_2  and  O_4
REMARK    3  A    between atoms: O_4  and  C_5
REMARK    4  A    between atoms: C_5  and  C_6
REMARK    5  A    between atoms: C_5  and  C_17
REMARK    6  A    between atoms: N_8  and  C_9
REMARK    7  A    between atoms: C_9  and  C_10
REMARK                            x       y       z     vdW  Elec       q    Type
REMARK                         _______ _______ _______ _____ _____    ______ ____
ROOT
ATOM      1  C   UNL     1       5.342   6.269  17.401  0.00  0.00    +0.000 C 
ATOM      2  O   UNL     1       4.589   7.002  16.755  0.00  0.00    +0.000 OA
ATOM      3  N   UNL     1       4.987   5.788  18.645  0.00  0.00    +0.000 N 
ATOM      4  H   UNL     1       5.620   5.155  19.129  0.00  0.00    +0.000 HD
ENDROOT
BRANCH   1   5
ATOM      5  C   UNL     1       6.740   5.856  16.873  0.00  0.00    +0.000 C 
BRANCH   5   6
ATOM      6  C   UNL     1       6.636   5.225  15.491  0.00  0.00    +0.000 A 
ATOM      7  C   UNL     1       5.604   4.339  15.188  0.00  0.00    +0.000 A 
ATOM      8  C   UNL     1       5.567   3.739  13.937  0.00  0.00    +0.000 A 
ATOM      9  C   UNL     1       6.563   4.027  13.015  0.00  0.00    +0.000 A 
ATOM     10  C   UNL     1       7.565   4.904  13.387  0.00  0.00    +0.000 A 
ATOM     11  N   UNL     1       7.636   5.496  14.603  0.00  0.00    +0.000 NA
ENDBRANCH   5   6
BRANCH   5  12
ATOM     12  O   UNL     1       7.613   6.995  16.759  0.00  0.00    +0.000 OA
BRANCH  12  14
ATOM     13  C   UNL     1       8.015   9.071  17.737  0.00  0.00    +0.000 C 
ATOM     14  C   UNL     1       8.007   7.581  17.914  0.00  0.00    +0.000 C 
ATOM     15  O   UNL     1       8.374   6.997  18.922  0.00  0.00    +0.000 OA
ENDBRANCH  12  14
ENDBRANCH   5  12
ENDBRANCH   1   5
BRANCH   3  16
ATOM     16  C   UNL     1       3.712   6.087  19.253  0.00  0.00    +0.000 C 
BRANCH  16  17
ATOM     17  C   UNL     1       2.713   4.964  19.102  0.00  0.00    +0.000 A 
ATOM     18  C   UNL     1       2.490   4.358  17.856  0.00  0.00    +0.000 A 
ATOM     19  C   UNL     1       1.597   3.288  17.740  0.00  0.00    +0.000 A 
ATOM     20  C   UNL     1       0.919   2.833  18.864  0.00  0.00    +0.000 A 
ATOM     21  F   UNL     1       0.074   1.799  18.753  0.00  0.00    +0.000 F 
ATOM     22  C   UNL     1       1.106   3.434  20.102  0.00  0.00    +0.000 A 
ATOM     23  C   UNL     1       1.998   4.501  20.220  0.00  0.00    +0.000 A 
ENDBRANCH  16  17
ENDBRANCH   3  16
TORSDOF 6
ENDMDL
MODEL 5
REMARK VINA RESULT:      -7.9      0.627      1.462
REMARK  Name = 
REMARK  7 active torsions:
REMARK  status: ('A' for Active; 'I' for Inactive)
REMARK    1  A    between atoms: C_1  and  C_2
REMARK    2  A    between atoms: C_2  and  O_4
REMARK    3  A    between atoms: O_4  and  C_5
REMARK    4  A    between atoms: C_5  and  C_6
REMARK    5  A    between atoms: C_5  and  C_17
REMARK    6  A    between atoms: N_8  and  C_9
REMARK    7  A    between atoms: C_9  and  C_10
REMARK                            x       y       z     vdW  Elec       q    Type
REMARK                         _______ _______ _______ _____ _____    ______ ____
ROOT
ATOM      1  C   UNL     1       5.215   5.858  16.324  0.00  0.00    +0.000 C 
ATOM      2  O   UNL     1       4.765   6.760  15.613  0.00  0.00    +0.000 OA
ATOM      3  N   UNL     1       4.488   5.337  17.376  0.00  0.00    +0.000 N 
ATOM      4  H   UNL     1       4.881   4.567  17.914  0.00  0.00    +0.000 HD
ENDROOT
BRANCH   1   5
ATOM      5  C   UNL     1       6.629   5.263  16.099  0.00  0.00    +0.000 C 
BRANCH   5   6
ATOM      6  C   UNL     1       6.822   4.846  14.647  0.00  0.00    +0.000 A 
ATOM      7  C   UNL     1       7.707   5.536  13.820  0.00  0.00    +0.000 A 
ATOM      8  C   UNL     1       7.821   5.165  12.487  0.00  0.00    +0.000 A 
ATOM      9  C   UNL     1       7.046   4.122  12.003  0.00  0.00    +0.000 A 
ATOM     10  C   UNL     1       6.178   3.491  12.874  0.00  0.00    +0.000 A 
ATOM     11  N   UNL     1       6.035   3.836  14.176  0.00  0.00    +0.000 NA
ENDBRANCH   5   6
BRANCH   5  12
ATOM     12  O   UNL     1       7.655   6.224  16.408  0.00  0.00    +0.000 OA
BRANCH  12  14
ATOM     13  C   UNL     1       7.886   8.211  17.602  0.00  0.00    +0.000 C 
ATOM     14  C   UNL     1       7.663   6.729  17.664  0.00  0.00    +0.000 C 
ATOM     15  O   UNL     1       7.579   6.079  18.695  0.00  0.00    +0.000 OA
ENDBRANCH  12  14
ENDBRANCH   5  12
ENDBRANCH   1   5
BRANCH   3  16
ATOM     16  C   UNL     1       3.155   5.792  17.692  0.00  0.00    +0.000 C 
BRANCH  16  17
ATOM     17  C   UNL     1       2.488   4.956  18.759  0.00  0.00    +0.000 A 
ATOM     18  C   UNL     1       1.635   3.895  18.418  0.00  0.00    +0.000 A 
ATOM     19  C   UNL     1       1.062   3.100  19.415  0.00  0.00    +0.000 A 
ATOM     20  C   UNL     1       1.332   3.373  20.752  0.00  0.00    +0.000 A 
ATOM     21  F   UNL     1       0.792   2.601  21.705  0.00  0.00    +0.000 F 
ATOM     22  C   UNL     1       2.153   4.433  21.112  0.00  0.00    +0.000 A 
ATOM     23  C   UNL     1       2.727   5.226  20.118  0.00  0.00    +0.000 A 
ENDBRANCH  16  17
ENDBRANCH   3  16
TORSDOF 6
ENDMDL
MODEL 6
REMARK VINA RESULT:      -7.5      1.209      1.540
REMARK  Name = 
REMARK  7 active torsions:
REMARK  status: ('A' for Active; 'I' for Inactive)
REMARK    1  A    between atoms: C_1  and  C_2
REMARK    2  A    between atoms: C_2  and  O_4
REMARK    3  A    between atoms: O_4  and  C_5
REMARK    4  A    between atoms: C_5  and  C_6
REMARK    5  A    between atoms: C_5  and  C_17
REMARK    6  A    between atoms: N_8  and  C_9
REMARK    7  A    between atoms: C_9  and  C_10
REMARK                            x       y       z     vdW  Elec       q    Type
REMARK                         _______ _______ _______ _____ _____    ______ ____
ROOT
ATOM      1  C   UNL     1       5.190   5.043  16.330  0.00  0.00    +0.000 C 
ATOM      2  O   UNL     1       4.884   6.166  15.922  0.00  0.00    +0.000 OA
ATOM      3  N   UNL     1       4.333   4.304  17.120  0.00  0.00    +0.000 N 
ATOM      4  H   UNL     1       4.607   3.366  17.403  0.00  0.00    +0.000 HD
ENDROOT
BRANCH   1   5
ATOM      5  C   UNL     1       6.559   4.394  16.001  0.00  0.00    +0.000 C 
BRANCH   5   6
ATOM      6  C   UNL     1       6.812   4.384  14.499  0.00  0.00    +0.000 A 
ATOM      7  C   UNL     1       7.681   5.306  13.918  0.00  0.00    +0.000 A 
ATOM      8  C   UNL     1       7.851   5.306  12.540  0.00  0.00    +0.000 A 
ATOM      9  C   UNL     1       7.144   4.395  11.768  0.00  0.00    +0.000 A 
ATOM     10  C   UNL     1       6.287   3.520  12.409  0.00  0.00    +0.000 A 
ATOM     11  N   UNL     1       6.091   3.502  13.748  0.00  0.00    +0.000 NA
ENDBRANCH   5   6
BRANCH   5  12
ATOM     12  O   UNL     1       7.641   5.120  16.612  0.00  0.00    +0.000 OA
BRANCH  12  14
ATOM     13  C   UNL     1       7.809   6.841  18.173  0.00  0.00    +0.000 C 
ATOM     14  C   UNL     1       7.530   5.387  17.934  0.00  0.00    +0.000 C 
ATOM     15  O   UNL     1       7.312   4.565  18.812  0.00  0.00    +0.000 OA
ENDBRANCH  12  14
ENDBRANCH   5  12
ENDBRANCH   1   5
BRANCH   3  16
ATOM     16  C   UNL     1       3.023   4.783  17.495  0.00  0.00    +0.000 C 
BRANCH  16  17
ATOM     17  C   UNL     1       2.523   4.175  18.784  0.00  0.00    +0.000 A 
ATOM     18  C   UNL     1       1.543   4.818  19.555  0.00  0.00    +0.000 A 
ATOM     19  C   UNL     1       1.055   4.221  20.721  0.00  0.00    +0.000 A 
ATOM     20  C   UNL     1       1.556   2.988  21.124  0.00  0.00    +0.000 A 
ATOM     21  F   UNL     1       1.077   2.411  22.234  0.00  0.00    +0.000 F 
ATOM     22  C   UNL     1       2.543   2.345  20.389  0.00  0.00    +0.000 A 
ATOM     23  C   UNL     1       3.030   2.939  19.224  0.00  0.00    +0.000 A 
ENDBRANCH  16  17
ENDBRANCH   3  16
TORSDOF 6
ENDMDL
MODEL 7
REMARK VINA RESULT:      -7.5      1.702      2.202
REMARK  Name = 
REMARK  7 active torsions:
REMARK  status: ('A' for Active; 'I' for Inactive)
REMARK    1  A    between atoms: C_1  and  C_2
REMARK    2  A    between atoms: C_2  and  O_4
REMARK    3  A    between atoms: O_4  and  C_5
REMARK    4  A    between atoms: C_5  and  C_6
REMARK    5  A    between atoms: C_5  and  C_17
REMARK    6  A    between atoms: N_8  and  C_9
REMARK    7  A    between atoms: C_9  and  C_10
REMARK                            x       y       z     vdW  Elec       q    Type
REMARK                         _______ _______ _______ _____ _____    ______ ____
ROOT
ATOM      1  C   UNL     1       5.795   4.621  17.378  0.00  0.00    +0.000 C 
ATOM      2  O   UNL     1       5.914   3.927  18.391  0.00  0.00    +0.000 OA
ATOM      3  N   UNL     1       4.555   4.917  16.848  0.00  0.00    +0.000 N 
ATOM      4  H   UNL     1       4.498   5.525  16.034  0.00  0.00    +0.000 HD
ENDROOT
BRANCH   1   5
ATOM      5  C   UNL     1       7.023   5.188  16.622  0.00  0.00    +0.000 C 
BRANCH   5   6
ATOM      6  C   UNL     1       6.949   4.861  15.136  0.00  0.00    +0.000 A 
ATOM      7  C   UNL     1       6.087   3.871  14.668  0.00  0.00    +0.000 A 
ATOM      8  C   UNL     1       6.080   3.560  13.315  0.00  0.00    +0.000 A 
ATOM      9  C   UNL     1       6.938   4.233  12.458  0.00  0.00    +0.000 A 
ATOM     10  C   UNL     1       7.777   5.193  12.992  0.00  0.00    +0.000 A 
ATOM     11  N   UNL     1       7.816   5.512  14.307  0.00  0.00    +0.000 NA
ENDBRANCH   5   6
BRANCH   5  12
ATOM     12  O   UNL     1       7.094   6.621  16.741  0.00  0.00    +0.000 OA
BRANCH  12  14
ATOM     13  C   UNL     1       7.936   8.583  17.675  0.00  0.00    +0.000 C 
ATOM     14  C   UNL     1       7.691   7.113  17.852  0.00  0.00    +0.000 C 
ATOM     15  O   UNL     1       8.048   6.459  18.820  0.00  0.00    +0.000 OA
ENDBRANCH  12  14
ENDBRANCH   5  12
ENDBRANCH   1   5
BRANCH   3  16
ATOM     16  C   UNL     1       3.327   4.460  17.456  0.00  0.00    +0.000 C 
BRANCH  16  17
ATOM     17  C   UNL     1       2.791   5.423  18.488  0.00  0.00    +0.000 A 
ATOM     18  C   UNL     1       2.801   6.807  18.259  0.00  0.00    +0.000 A 
ATOM     19  C   UNL     1       2.258   7.684  19.203  0.00  0.00    +0.000 A 
ATOM     20  C   UNL     1       1.716   7.179  20.380  0.00  0.00    +0.000 A 
ATOM     21  F   UNL     1       1.184   8.020  21.277  0.00  0.00    +0.000 F 
ATOM     22  C   UNL     1       1.717   5.814  20.637  0.00  0.00    +0.000 A 
ATOM     23  C   UNL     1       2.258   4.938  19.695  0.00  0.00    +0.000 A 
ENDBRANCH  16  17
ENDBRANCH   3  16
TORSDOF 6
ENDMDL
MODEL 8
REMARK VINA RESULT:      -7.5      1.191      1.392
REMARK  Name = 
REMARK  7 active torsions:
REMARK  status: ('A' for Active; 'I' for Inactive)
REMARK    1  A    between atoms: C_1  and  C_2
REMARK    2  A    between atoms: C_2  and  O_4
REMARK    3  A    between atoms: O_4  and  C_5
REMARK    4  A    between atoms: C_5  and  C_6
REMARK    5  A    between atoms: C_5  and  C_17
REMARK    6  A    between atoms: N_8  and  C_9
REMARK    7  A    between atoms: C_9  and  C_10
REMARK                            x       y       z     vdW  Elec       q    Type
REMARK                         _______ _______ _______ _____ _____    ______ ____
ROOT
ATOM      1  C   UNL     1       4.945   5.198  16.532  0.00  0.00    +0.000 C 
ATOM      2  O   UNL     1       4.299   6.231  16.728  0.00  0.00    +0.000 OA
ATOM      3  N   UNL     1       4.361   3.952  16.636  0.00  0.00    +0.000 N 
ATOM      4  H   UNL     1       4.919   3.126  16.429  0.00  0.00    +0.000 HD
ENDROOT
BRANCH   1   5
ATOM      5  C   UNL     1       6.453   5.228  16.179  0.00  0.00    +0.000 C 
BRANCH   5   6
ATOM      6  C   UNL     1       6.677   4.887  14.711  0.00  0.00    +0.000 A 
ATOM      7  C   UNL     1       5.897   3.919  14.079  0.00  0.00    +0.000 A 
ATOM      8  C   UNL     1       6.160   3.593  12.755  0.00  0.00    +0.000 A 
ATOM      9  C   UNL     1       7.199   4.229  12.092  0.00  0.00    +0.000 A 
ATOM     10  C   UNL     1       7.942   5.167  12.784  0.00  0.00    +0.000 A 
ATOM     11  N   UNL     1       7.719   5.499  14.077  0.00  0.00    +0.000 NA
ENDBRANCH   5   6
BRANCH   5  12
ATOM     12  O   UNL     1       7.018   6.532  16.405  0.00  0.00    +0.000 OA
BRANCH  12  14
ATOM     13  C   UNL     1       7.635   5.458  18.378  0.00  0.00    +0.000 C 
ATOM     14  C   UNL     1       7.608   6.743  17.605  0.00  0.00    +0.000 C 
ATOM     15  O   UNL     1       7.990   7.822  18.033  0.00  0.00    +0.000 OA
ENDBRANCH  12  14
ENDBRANCH   5  12
ENDBRANCH   1   5
BRANCH   3  16
ATOM     16  C   UNL     1       2.962   3.779  16.950  0.00  0.00    +0.000 C 
BRANCH  16  17
ATOM     17  C   UNL     1       2.702   3.679  18.435  0.00  0.00    +0.000 A 
ATOM     18  C   UNL     1       1.759   4.508  19.061  0.00  0.00    +0.000 A 
ATOM     19  C   UNL     1       1.495   4.372  20.427  0.00  0.00    +0.000 A 
ATOM     20  C   UNL     1       2.182   3.418  21.169  0.00  0.00    +0.000 A 
ATOM     21  F   UNL     1       1.917   3.281  22.475  0.00  0.00    +0.000 F 
ATOM     22  C   UNL     1       3.136   2.603  20.574  0.00  0.00    +0.000 A 
ATOM     23  C   UNL     1       3.400   2.737  19.211  0.00  0.00    +0.000 A 
ENDBRANCH  16  17
ENDBRANCH   3  16
TORSDOF 6
ENDMDL
MODEL 9
REMARK VINA RESULT:      -7.5      1.565      1.834
REMARK  Name = 
REMARK  7 active torsions:
REMARK  status: ('A' for Active; 'I' for Inactive)
REMARK    1  A    between atoms: C_1  and  C_2
REMARK    2  A    between atoms: C_2  and  O_4
REMARK    3  A    between atoms: O_4  and  C_5
REMARK    4  A    between atoms: C_5  and  C_6
REMARK    5  A    between atoms: C_5  and  C_17
REMARK    6  A    between atoms: N_8  and  C_9
REMARK    7  A    between atoms: C_9  and  C_10
REMARK                            x       y       z     vdW  Elec       q    Type
REMARK                         _______ _______ _______ _____ _____    ______ ____
ROOT
ATOM      1  C   UNL     1       5.486   4.270  16.686  0.00  0.00    +0.000 C 
ATOM      2  O   UNL     1       4.486   4.179  15.969  0.00  0.00    +0.000 OA
ATOM      3  N   UNL     1       5.471   3.850  18.001  0.00  0.00    +0.000 N 
ATOM      4  H   UNL     1       6.329   3.908  18.547  0.00  0.00    +0.000 HD
ENDROOT
BRANCH   1   5
ATOM      5  C   UNL     1       6.814   4.880  16.170  0.00  0.00    +0.000 C 
BRANCH   5   6
ATOM      6  C   UNL     1       6.934   4.726  14.659  0.00  0.00    +0.000 A 
ATOM      7  C   UNL     1       6.200   3.753  13.982  0.00  0.00    +0.000 A 
ATOM      8  C   UNL     1       6.371   3.602  12.613  0.00  0.00    +0.000 A 
ATOM      9  C   UNL     1       7.275   4.417  11.947  0.00  0.00    +0.000 A 
ATOM     10  C   UNL     1       7.980   5.351  12.682  0.00  0.00    +0.000 A 
ATOM     11  N   UNL     1       7.846   5.514  14.020  0.00  0.00    +0.000 NA
ENDBRANCH   5   6
BRANCH   5  12
ATOM     12  O   UNL     1       6.893   6.287  16.463  0.00  0.00    +0.000 OA
BRANCH  12  14
ATOM     13  C   UNL     1       7.791   8.104  17.612  0.00  0.00    +0.000 C 
ATOM     14  C   UNL     1       7.484   6.635  17.630  0.00  0.00    +0.000 C 
ATOM     15  O   UNL     1       7.793   5.869  18.531  0.00  0.00    +0.000 OA
ENDBRANCH  12  14
ENDBRANCH   5  12
ENDBRANCH   1   5
BRANCH   3  16
ATOM     16  C   UNL     1       4.304   3.256  18.609  0.00  0.00    +0.000 C 
BRANCH  16  17
ATOM     17  C   UNL     1       3.422   4.269  19.299  0.00  0.00    +0.000 A 
ATOM     18  C   UNL     1       3.568   5.642  19.051  0.00  0.00    +0.000 A 
ATOM     19  C   UNL     1       2.714   6.566  19.661  0.00  0.00    +0.000 A 
ATOM     20  C   UNL     1       1.723   6.119  20.528  0.00  0.00    +0.000 A 
ATOM     21  F   UNL     1       0.897   7.005  21.100  0.00  0.00    +0.000 F 
ATOM     22  C   UNL     1       1.577   4.766  20.806  0.00  0.00    +0.000 A 
ATOM     23  C   UNL     1       2.428   3.843  20.197  0.00  0.00    +0.000 A 
ENDBRANCH  16  17
ENDBRANCH   3  16
TORSDOF 6
ENDMDL
