MODEL 1
REMARK VINA RESULT:      -8.5      0.000      0.000
REMARK  Name = 
REMARK  2 active torsions:
REMARK  status: ('A' for Active; 'I' for Inactive)
REMARK    1  A    between atoms: O_1  and  C_2
REMARK    2  A    between atoms: C_2  and  C_3
REMARK                            x       y       z     vdW  Elec       q    Type
REMARK                         _______ _______ _______ _____ _____    ______ ____
ROOT
ATOM      1  C   UNL     1       4.097   3.398  18.482  0.00  0.00    +0.000 C 
ATOM      2  C   UNL     1       4.718   4.103  17.281  0.00  0.00    +0.000 A 
ATOM      3  C   UNL     1       5.579   3.562  16.330  0.00  0.00    +0.000 A 
ATOM      4  C   UNL     1       6.017   4.383  15.293  0.00  0.00    +0.000 A 
ATOM      5  C   UNL     1       5.605   5.721  15.225  0.00  0.00    +0.000 A 
ATOM      6  C   UNL     1       4.750   6.260  16.192  0.00  0.00    +0.000 A 
ATOM      7  C   UNL     1       4.301   5.453  17.227  0.00  0.00    +0.000 A 
ATOM      8  C   UNL     1       3.425   5.728  18.362  0.00  0.00    +0.000 A 
ATOM      9  C   UNL     1       2.752   6.870  18.790  0.00  0.00    +0.000 A 
ATOM     10 CL   UNL     1       2.801   8.374  17.955  0.00  0.00    +0.000 Cl
ATOM     11  C   UNL     1       1.979   6.809  19.961  0.00  0.00    +0.000 A 
ATOM     12  C   UNL     1       1.886   5.628  20.709  0.00  0.00    +0.000 A 
ATOM     13  C   UNL     1       2.559   4.482  20.297  0.00  0.00    +0.000 A 
ATOM     14  C   UNL     1       3.307   4.537  19.125  0.00  0.00    +0.000 A 
ENDROOT
BRANCH   1  15
ATOM     15  C   UNL     1       3.213   2.168  18.098  0.00  0.00    +0.000 C 
ATOM     16  F   UNL     1       2.370   2.504  17.082  0.00  0.00    +0.000 F 
ATOM     17  F   UNL     1       3.921   1.096  17.676  0.00  0.00    +0.000 F 
ATOM     18  F   UNL     1       2.421   1.740  19.112  0.00  0.00    +0.000 F 
ENDBRANCH   1  15
BRANCH   1  19
ATOM     19  O   UNL     1       5.169   3.079  19.390  0.00  0.00    +0.000 OA
ATOM     20  H   UNL     1       4.795   2.497  20.075  0.00  0.00    +0.000 HD
ENDBRANCH   1  19
TORSDOF 2
ENDMDL
MODEL 2
REMARK VINA RESULT:      -7.8      0.427      1.018
REMARK  Name = 
REMARK  2 active torsions:
REMARK  status: ('A' for Active; 'I' for Inactive)
REMARK    1  A    between atoms: O_1  and  C_2
REMARK    2  A    between atoms: C_2  and  C_3
REMARK                            x       y       z     vdW  Elec       q    Type
REMARK                         _______ _______ _______ _____ _____    ______ ____
ROOT
ATOM      1  C   UNL     1       4.281   3.694  18.305  0.00  0.00    +0.000 C 
ATOM      2  C   UNL     1       4.850   4.401  17.079  0.00  0.00    +0.000 A 
ATOM      3  C   UNL     1       5.725   3.883  16.128  0.00  0.00    +0.000 A 
ATOM      4  C   UNL     1       6.108   4.700  15.067  0.00  0.00    +0.000 A 
ATOM      5  C   UNL     1       5.626   6.012  14.974  0.00  0.00    +0.000 A 
ATOM      6  C   UNL     1       4.757   6.530  15.940  0.00  0.00    +0.000 A 
ATOM      7  C   UNL     1       4.363   5.727  16.999  0.00  0.00    +0.000 A 
ATOM      8  C   UNL     1       3.489   5.983  18.139  0.00  0.00    +0.000 A 
ATOM      9  C   UNL     1       2.763   7.099  18.551  0.00  0.00    +0.000 A 
ATOM     10 CL   UNL     1       2.724   8.583  17.681  0.00  0.00    +0.000 Cl
ATOM     11  C   UNL     1       2.009   7.026  19.733  0.00  0.00    +0.000 A 
ATOM     12  C   UNL     1       1.986   5.860  20.509  0.00  0.00    +0.000 A 
ATOM     13  C   UNL     1       2.712   4.741  20.115  0.00  0.00    +0.000 A 
ATOM     14  C   UNL     1       3.442   4.806  18.932  0.00  0.00    +0.000 A 
ENDROOT
BRANCH   1  15
ATOM     15  C   UNL     1       3.456   2.411  17.961  0.00  0.00    +0.000 C 
ATOM     16  F   UNL     1       3.194   1.711  19.099  0.00  0.00    +0.000 F 
ATOM     17  F   UNL     1       2.262   2.669  17.380  0.00  0.00    +0.000 F 
ATOM     18  F   UNL     1       4.114   1.556  17.140  0.00  0.00    +0.000 F 
ENDBRANCH   1  15
BRANCH   1  19
ATOM     19  O   UNL     1       5.379   3.451  19.204  0.00  0.00    +0.000 OA
ATOM     20  H   UNL     1       6.179   3.800  18.773  0.00  0.00    +0.000 HD
ENDBRANCH   1  19
TORSDOF 2
ENDMDL
MODEL 3
REMARK VINA RESULT:      -7.2      2.573      4.250
REMARK  Name = 
REMARK  2 active torsions:
REMARK  status: ('A' for Active; 'I' for Inactive)
REMARK    1  A    between atoms: O_1  and  C_2
REMARK    2  A    between atoms: C_2  and  C_3
REMARK                            x       y       z     vdW  Elec       q    Type
REMARK                         _______ _______ _______ _____ _____    ______ ____
ROOT
ATOM      1  C   UNL     1       4.135   5.091  18.232  0.00  0.00    +0.000 C 
ATOM      2  C   UNL     1       3.568   4.301  19.407  0.00  0.00    +0.000 A 
ATOM      3  C   UNL     1       3.864   2.990  19.772  0.00  0.00    +0.000 A 
ATOM      4  C   UNL     1       3.243   2.463  20.903  0.00  0.00    +0.000 A 
ATOM      5  C   UNL     1       2.338   3.237  21.640  0.00  0.00    +0.000 A 
ATOM      6  C   UNL     1       2.037   4.550  21.259  0.00  0.00    +0.000 A 
ATOM      7  C   UNL     1       2.651   5.090  20.140  0.00  0.00    +0.000 A 
ATOM      8  C   UNL     1       2.536   6.400  19.507  0.00  0.00    +0.000 A 
ATOM      9  C   UNL     1       1.787   7.536  19.801  0.00  0.00    +0.000 A 
ATOM     10 CL   UNL     1       0.727   7.655  21.150  0.00  0.00    +0.000 Cl
ATOM     11  C   UNL     1       1.896   8.661  18.967  0.00  0.00    +0.000 A 
ATOM     12  C   UNL     1       2.730   8.653  17.842  0.00  0.00    +0.000 A 
ATOM     13  C   UNL     1       3.478   7.522  17.531  0.00  0.00    +0.000 A 
ATOM     14  C   UNL     1       3.387   6.416  18.371  0.00  0.00    +0.000 A 
ENDROOT
BRANCH   1  15
ATOM     15  C   UNL     1       5.690   5.247  18.275  0.00  0.00    +0.000 C 
ATOM     16  F   UNL     1       6.090   5.544  19.543  0.00  0.00    +0.000 F 
ATOM     17  F   UNL     1       6.362   4.133  17.908  0.00  0.00    +0.000 F 
ATOM     18  F   UNL     1       6.148   6.257  17.494  0.00  0.00    +0.000 F 
ENDBRANCH   1  15
BRANCH   1  19
ATOM     19  O   UNL     1       3.650   4.469  17.027  0.00  0.00    +0.000 OA
ATOM     20  H   UNL     1       3.700   3.507  17.166  0.00  0.00    +0.000 HD
ENDBRANCH   1  19
TORSDOF 2
ENDMDL
MODEL 4
REMARK VINA RESULT:      -7.1      1.473      3.992
REMARK  Name = 
REMARK  2 active torsions:
REMARK  status: ('A' for Active; 'I' for Inactive)
REMARK    1  A    between atoms: O_1  and  C_2
REMARK    2  A    between atoms: C_2  and  C_3
REMARK                            x       y       z     vdW  Elec       q    Type
REMARK                         _______ _______ _______ _____ _____    ______ ____
ROOT
ATOM      1  C   UNL     1       3.116   3.267  17.746  0.00  0.00    +0.000 C 
ATOM      2  C   UNL     1       2.704   4.427  18.647  0.00  0.00    +0.000 A 
ATOM      3  C   UNL     1       1.664   4.457  19.572  0.00  0.00    +0.000 A 
ATOM      4  C   UNL     1       1.471   5.621  20.313  0.00  0.00    +0.000 A 
ATOM      5  C   UNL     1       2.302   6.732  20.116  0.00  0.00    +0.000 A 
ATOM      6  C   UNL     1       3.337   6.698  19.175  0.00  0.00    +0.000 A 
ATOM      7  C   UNL     1       3.545   5.544  18.435  0.00  0.00    +0.000 A 
ATOM      8  C   UNL     1       4.519   5.218  17.399  0.00  0.00    +0.000 A 
ATOM      9  C   UNL     1       5.556   5.936  16.807  0.00  0.00    +0.000 A 
ATOM     10 CL   UNL     1       5.968   7.548  17.244  0.00  0.00    +0.000 Cl
ATOM     11  C   UNL     1       6.324   5.325  15.803  0.00  0.00    +0.000 A 
ATOM     12  C   UNL     1       6.057   4.017  15.378  0.00  0.00    +0.000 A 
ATOM     13  C   UNL     1       5.019   3.291  15.955  0.00  0.00    +0.000 A 
ATOM     14  C   UNL     1       4.273   3.889  16.965  0.00  0.00    +0.000 A 
ENDROOT
BRANCH   1  15
ATOM     15  C   UNL     1       3.518   1.977  18.531  0.00  0.00    +0.000 C 
ATOM     16  F   UNL     1       2.435   1.481  19.192  0.00  0.00    +0.000 F 
ATOM     17  F   UNL     1       3.982   0.980  17.743  0.00  0.00    +0.000 F 
ATOM     18  F   UNL     1       4.462   2.199  19.479  0.00  0.00    +0.000 F 
ENDBRANCH   1  15
BRANCH   1  19
ATOM     19  O   UNL     1       2.048   3.061  16.803  0.00  0.00    +0.000 OA
ATOM     20  H   UNL     1       1.642   2.203  17.019  0.00  0.00    +0.000 HD
ENDBRANCH   1  19
TORSDOF 2
ENDMDL
MODEL 5
REMARK VINA RESULT:      -7.1      1.144      1.620
REMARK  Name = 
REMARK  2 active torsions:
REMARK  status: ('A' for Active; 'I' for Inactive)
REMARK    1  A    between atoms: O_1  and  C_2
REMARK    2  A    between atoms: C_2  and  C_3
REMARK                            x       y       z     vdW  Elec       q    Type
REMARK                         _______ _______ _______ _____ _____    ______ ____
ROOT
ATOM      1  C   UNL     1       2.968   4.230  18.980  0.00  0.00    +0.000 C 
ATOM      2  C   UNL     1       3.797   4.671  17.779  0.00  0.00    +0.000 A 
ATOM      3  C   UNL     1       4.587   3.876  16.953  0.00  0.00    +0.000 A 
ATOM      4  C   UNL     1       5.251   4.483  15.889  0.00  0.00    +0.000 A 
ATOM      5  C   UNL     1       5.128   5.862  15.671  0.00  0.00    +0.000 A 
ATOM      6  C   UNL     1       4.341   6.656  16.513  0.00  0.00    +0.000 A 
ATOM      7  C   UNL     1       3.670   6.065  17.572  0.00  0.00    +0.000 A 
ATOM      8  C   UNL     1       2.799   6.622  18.601  0.00  0.00    +0.000 A 
ATOM      9  C   UNL     1       2.348   7.912  18.871  0.00  0.00    +0.000 A 
ATOM     10 CL   UNL     1       2.759   9.283  17.916  0.00  0.00    +0.000 Cl
ATOM     11  C   UNL     1       1.505   8.126  19.973  0.00  0.00    +0.000 A 
ATOM     12  C   UNL     1       1.123   7.070  20.811  0.00  0.00    +0.000 A 
ATOM     13  C   UNL     1       1.572   5.777  20.558  0.00  0.00    +0.000 A 
ATOM     14  C   UNL     1       2.389   5.563  19.453  0.00  0.00    +0.000 A 
ENDROOT
BRANCH   1  15
ATOM     15  C   UNL     1       1.876   3.167  18.631  0.00  0.00    +0.000 C 
ATOM     16  F   UNL     1       1.092   2.934  19.720  0.00  0.00    +0.000 F 
ATOM     17  F   UNL     1       1.047   3.543  17.630  0.00  0.00    +0.000 F 
ATOM     18  F   UNL     1       2.393   1.964  18.280  0.00  0.00    +0.000 F 
ENDBRANCH   1  15
BRANCH   1  19
ATOM     19  O   UNL     1       3.890   3.798  19.998  0.00  0.00    +0.000 OA
ATOM     20  H   UNL     1       3.526   2.980  20.380  0.00  0.00    +0.000 HD
ENDBRANCH   1  19
TORSDOF 2
ENDMDL
MODEL 6
REMARK VINA RESULT:      -6.9      3.352      3.995
REMARK  Name = 
REMARK  2 active torsions:
REMARK  status: ('A' for Active; 'I' for Inactive)
REMARK    1  A    between atoms: O_1  and  C_2
REMARK    2  A    between atoms: C_2  and  C_3
REMARK                            x       y       z     vdW  Elec       q    Type
REMARK                         _______ _______ _______ _____ _____    ______ ____
ROOT
ATOM      1  C   UNL     1       6.133   5.981  17.757  0.00  0.00    +0.000 C 
ATOM      2  C   UNL     1       6.209   5.290  16.400  0.00  0.00    +0.000 A 
ATOM      3  C   UNL     1       7.133   5.514  15.383  0.00  0.00    +0.000 A 
ATOM      4  C   UNL     1       7.034   4.753  14.220  0.00  0.00    +0.000 A 
ATOM      5  C   UNL     1       6.020   3.796  14.085  0.00  0.00    +0.000 A 
ATOM      6  C   UNL     1       5.087   3.585  15.107  0.00  0.00    +0.000 A 
ATOM      7  C   UNL     1       5.177   4.332  16.272  0.00  0.00    +0.000 A 
ATOM      8  C   UNL     1       4.363   4.341  17.483  0.00  0.00    +0.000 A 
ATOM      9  C   UNL     1       3.241   3.619  17.881  0.00  0.00    +0.000 A 
ATOM     10 CL   UNL     1       2.500   2.402  16.918  0.00  0.00    +0.000 Cl
ATOM     11  C   UNL     1       2.671   3.879  19.139  0.00  0.00    +0.000 A 
ATOM     12  C   UNL     1       3.203   4.858  19.988  0.00  0.00    +0.000 A 
ATOM     13  C   UNL     1       4.320   5.592  19.600  0.00  0.00    +0.000 A 
ATOM     14  C   UNL     1       4.897   5.318  18.364  0.00  0.00    +0.000 A 
ENDROOT
BRANCH   1  15
ATOM     15  C   UNL     1       7.422   5.802  18.624  0.00  0.00    +0.000 C 
ATOM     16  F   UNL     1       8.245   6.874  18.454  0.00  0.00    +0.000 F 
ATOM     17  F   UNL     1       7.179   5.706  19.951  0.00  0.00    +0.000 F 
ATOM     18  F   UNL     1       8.152   4.713  18.279  0.00  0.00    +0.000 F 
ENDBRANCH   1  15
BRANCH   1  19
ATOM     19  O   UNL     1       5.784   7.357  17.516  0.00  0.00    +0.000 OA
ATOM     20  H   UNL     1       5.222   7.640  18.258  0.00  0.00    +0.000 HD
ENDBRANCH   1  19
TORSDOF 2
ENDMDL
MODEL 7
REMARK VINA RESULT:      -6.9      1.599      2.288
REMARK  Name = 
REMARK  2 active torsions:
REMARK  status: ('A' for Active; 'I' for Inactive)
REMARK    1  A    between atoms: O_1  and  C_2
REMARK    2  A    between atoms: C_2  and  C_3
REMARK                            x       y       z     vdW  Elec       q    Type
REMARK                         _______ _______ _______ _____ _____    ______ ____
ROOT
ATOM      1  C   UNL     1       2.692   5.034  19.709  0.00  0.00    +0.000 C 
ATOM      2  C   UNL     1       3.530   5.289  18.461  0.00  0.00    +0.000 A 
ATOM      3  C   UNL     1       4.355   4.389  17.792  0.00  0.00    +0.000 A 
ATOM      4  C   UNL     1       5.021   4.826  16.649  0.00  0.00    +0.000 A 
ATOM      5  C   UNL     1       4.867   6.144  16.200  0.00  0.00    +0.000 A 
ATOM      6  C   UNL     1       4.045   7.046  16.885  0.00  0.00    +0.000 A 
ATOM      7  C   UNL     1       3.371   6.624  18.020  0.00  0.00    +0.000 A 
ATOM      8  C   UNL     1       2.468   7.322  18.929  0.00  0.00    +0.000 A 
ATOM      9  C   UNL     1       1.980   8.626  18.971  0.00  0.00    +0.000 A 
ATOM     10 CL   UNL     1       2.372   9.827  17.803  0.00  0.00    +0.000 Cl
ATOM     11  C   UNL     1       1.113   8.999  20.010  0.00  0.00    +0.000 A 
ATOM     12  C   UNL     1       0.743   8.089  21.009  0.00  0.00    +0.000 A 
ATOM     13  C   UNL     1       1.229   6.785  20.985  0.00  0.00    +0.000 A 
ATOM     14  C   UNL     1       2.071   6.410  19.942  0.00  0.00    +0.000 A 
ENDROOT
BRANCH   1  15
ATOM     15  C   UNL     1       1.633   3.897  19.530  0.00  0.00    +0.000 C 
ATOM     16  F   UNL     1       1.041   4.004  18.309  0.00  0.00    +0.000 F 
ATOM     17  F   UNL     1       2.153   2.650  19.602  0.00  0.00    +0.000 F 
ATOM     18  F   UNL     1       0.627   3.954  20.438  0.00  0.00    +0.000 F 
ENDBRANCH   1  15
BRANCH   1  19
ATOM     19  O   UNL     1       3.606   4.806  20.797  0.00  0.00    +0.000 OA
ATOM     20  H   UNL     1       4.143   4.030  20.558  0.00  0.00    +0.000 HD
ENDBRANCH   1  19
TORSDOF 2
ENDMDL
MODEL 8
REMARK VINA RESULT:      -6.8      2.470      4.507
REMARK  Name = 
REMARK  2 active torsions:
REMARK  status: ('A' for Active; 'I' for Inactive)
REMARK    1  A    between atoms: O_1  and  C_2
REMARK    2  A    between atoms: C_2  and  C_3
REMARK                            x       y       z     vdW  Elec       q    Type
REMARK                         _______ _______ _______ _____ _____    ______ ____
ROOT
ATOM      1  C   UNL     1       1.655   3.787  20.246  0.00  0.00    +0.000 C 
ATOM      2  C   UNL     1       1.722   5.308  20.161  0.00  0.00    +0.000 A 
ATOM      3  C   UNL     1       1.078   6.234  20.976  0.00  0.00    +0.000 A 
ATOM      4  C   UNL     1       1.295   7.590  20.735  0.00  0.00    +0.000 A 
ATOM      5  C   UNL     1       2.133   7.998  19.690  0.00  0.00    +0.000 A 
ATOM      6  C   UNL     1       2.768   7.061  18.867  0.00  0.00    +0.000 A 
ATOM      7  C   UNL     1       2.566   5.709  19.098  0.00  0.00    +0.000 A 
ATOM      8  C   UNL     1       3.076   4.522  18.420  0.00  0.00    +0.000 A 
ATOM      9  C   UNL     1       3.923   4.339  17.329  0.00  0.00    +0.000 A 
ATOM     10 CL   UNL     1       4.651   5.633  16.462  0.00  0.00    +0.000 Cl
ATOM     11  C   UNL     1       4.217   3.033  16.904  0.00  0.00    +0.000 A 
ATOM     12  C   UNL     1       3.665   1.918  17.546  0.00  0.00    +0.000 A 
ATOM     13  C   UNL     1       2.811   2.086  18.632  0.00  0.00    +0.000 A 
ATOM     14  C   UNL     1       2.537   3.379  19.067  0.00  0.00    +0.000 A 
ENDROOT
BRANCH   1  15
ATOM     15  C   UNL     1       2.145   3.214  21.616  0.00  0.00    +0.000 C 
ATOM     16  F   UNL     1       1.140   2.515  22.212  0.00  0.00    +0.000 F 
ATOM     17  F   UNL     1       3.197   2.370  21.511  0.00  0.00    +0.000 F 
ATOM     18  F   UNL     1       2.504   4.177  22.501  0.00  0.00    +0.000 F 
ENDBRANCH   1  15
BRANCH   1  19
ATOM     19  O   UNL     1       0.310   3.400  19.906  0.00  0.00    +0.000 OA
ATOM     20  H   UNL     1      -0.196   3.380  20.737  0.00  0.00    +0.000 HD
ENDBRANCH   1  19
TORSDOF 2
ENDMDL
