MODEL 1
REMARK VINA RESULT:      -8.9      0.000      0.000
REMARK  Name = 
REMARK  9 active torsions:
REMARK  status: ('A' for Active; 'I' for Inactive)
REMARK    1  A    between atoms: C_1  and  C_2
REMARK    2  A    between atoms: C_6  and  C_7
REMARK    3  A    between atoms: C_7  and  O_9
REMARK    4  A    between atoms: O_9  and  C_10
REMARK    5  A    between atoms: C_14  and  C_15
REMARK    6  A    between atoms: N_17  and  C_18
REMARK    7  A    between atoms: C_18  and  C_19
REMARK    8  A    between atoms: C_19  and  C_20
REMARK    9  A    between atoms: C_20  and  O_21
REMARK                            x       y       z     vdW  Elec       q    Type
REMARK                         _______ _______ _______ _____ _____    ______ ____
ROOT
ATOM      1  C   UNL     1       3.237   3.703  18.740  0.00  0.00    +0.000 C 
ATOM      2  O   UNL     1       2.672   3.250  17.748  0.00  0.00    +0.000 OA
ENDROOT
BRANCH   1   8
ATOM      3  C   UNL     1       2.036   3.121  21.682  0.00  0.00    +0.000 C 
ATOM      4  C   UNL     1       2.094   4.363  20.876  0.00  0.00    +0.000 A 
ATOM      5  O   UNL     1       1.513   5.455  21.449  0.00  0.00    +0.000 OA
ATOM      6  C   UNL     1       1.651   6.473  20.572  0.00  0.00    +0.000 A 
ATOM      7  C   UNL     1       2.314   6.065  19.435  0.00  0.00    +0.000 A 
ATOM      8  C   UNL     1       2.594   4.674  19.614  0.00  0.00    +0.000 A 
ATOM      9  C   UNL     1       2.611   7.015  18.384  0.00  0.00    +0.000 C 
ATOM     10  O   UNL     1       3.256   6.707  17.391  0.00  0.00    +0.000 OA
ATOM     11  C   UNL     1       2.105   8.421  18.617  0.00  0.00    +0.000 A 
ATOM     12  N   UNL     1       2.365   9.312  17.622  0.00  0.00    +0.000 NA
ATOM     13  C   UNL     1       1.943  10.584  17.801  0.00  0.00    +0.000 A 
ATOM     14  C   UNL     1       1.268  11.020  18.930  0.00  0.00    +0.000 A 
ATOM     15  C   UNL     1       1.006  10.101  19.939  0.00  0.00    +0.000 A 
ATOM     16  C   UNL     1       1.427   8.778  19.788  0.00  0.00    +0.000 A 
ATOM     17  C   UNL     1       1.162   7.789  20.860  0.00  0.00    +0.000 C 
ATOM     18  O   UNL     1       0.573   8.130  21.879  0.00  0.00    +0.000 OA
ENDBRANCH   1   8
BRANCH   1  19
ATOM     19  O   UNL     1       4.568   3.464  19.081  0.00  0.00    +0.000 OA
BRANCH  19  20
ATOM     20  C   UNL     1       5.551   4.265  18.466  0.00  0.00    +0.000 A 
ATOM     21  C   UNL     1       6.121   5.298  19.205  0.00  0.00    +0.000 A 
ATOM     22  C   UNL     1       7.037   6.156  18.587  0.00  0.00    +0.000 A 
ATOM     23  C   UNL     1       7.360   5.992  17.234  0.00  0.00    +0.000 A 
ATOM     24  C   UNL     1       6.767   4.968  16.486  0.00  0.00    +0.000 A 
ATOM     25  C   UNL     1       5.850   4.115  17.112  0.00  0.00    +0.000 A 
BRANCH  24  26
ATOM     26  C   UNL     1       7.046   4.812  15.076  0.00  0.00    +0.000 A 
ATOM     27  C   UNL     1       6.497   3.862  14.243  0.00  0.00    +0.000 A 
ATOM     28  N   UNL     1       6.970   4.200  13.014  0.00  0.00    +0.000 N 
ATOM     29  N   UNL     1       7.812   5.245  13.078  0.00  0.00    +0.000 NA
ATOM     30  N   UNL     1       7.867   5.632  14.348  0.00  0.00    +0.000 NA
BRANCH  28  31
ATOM     31  C   UNL     1       6.643   3.597  11.742  0.00  0.00    +0.000 C 
BRANCH  31  32
ATOM     32  C   UNL     1       5.372   2.755  11.774  0.00  0.00    +0.000 C 
BRANCH  32  33
ATOM     33  C   UNL     1       4.102   3.560  11.526  0.00  0.00    +0.000 C 
BRANCH  33  34
ATOM     34  O   UNL     1       3.298   2.879  10.569  0.00  0.00    +0.000 OA
ATOM     35  H   UNL     1       3.164   1.969  10.885  0.00  0.00    +0.000 HD
ENDBRANCH  33  34
ENDBRANCH  32  33
ENDBRANCH  31  32
ENDBRANCH  28  31
ENDBRANCH  24  26
ENDBRANCH  19  20
ENDBRANCH   1  19
TORSDOF 8
ENDMDL
MODEL 2
REMARK VINA RESULT:      -8.0      1.660      2.255
REMARK  Name = 
REMARK  9 active torsions:
REMARK  status: ('A' for Active; 'I' for Inactive)
REMARK    1  A    between atoms: C_1  and  C_2
REMARK    2  A    between atoms: C_6  and  C_7
REMARK    3  A    between atoms: C_7  and  O_9
REMARK    4  A    between atoms: O_9  and  C_10
REMARK    5  A    between atoms: C_14  and  C_15
REMARK    6  A    between atoms: N_17  and  C_18
REMARK    7  A    between atoms: C_18  and  C_19
REMARK    8  A    between atoms: C_19  and  C_20
REMARK    9  A    between atoms: C_20  and  O_21
REMARK                            x       y       z     vdW  Elec       q    Type
REMARK                         _______ _______ _______ _____ _____    ______ ____
ROOT
ATOM      1  C   UNL     1       2.645   6.318  18.146  0.00  0.00    +0.000 C 
ATOM      2  O   UNL     1       2.088   5.352  17.634  0.00  0.00    +0.000 OA
ENDROOT
BRANCH   1   8
ATOM      3  C   UNL     1       2.131   4.974  21.038  0.00  0.00    +0.000 C 
ATOM      4  C   UNL     1       1.901   6.351  20.544  0.00  0.00    +0.000 A 
ATOM      5  O   UNL     1       1.344   7.207  21.447  0.00  0.00    +0.000 OA
ATOM      6  C   UNL     1       1.201   8.394  20.819  0.00  0.00    +0.000 A 
ATOM      7  C   UNL     1       1.655   8.330  19.520  0.00  0.00    +0.000 A 
ATOM      8  C   UNL     1       2.102   6.985  19.320  0.00  0.00    +0.000 A 
ATOM      9  C   UNL     1       1.639   9.510  18.682  0.00  0.00    +0.000 C 
ATOM     10  O   UNL     1       2.095   9.509  17.547  0.00  0.00    +0.000 OA
ATOM     11  C   UNL     1       1.055  10.751  19.320  0.00  0.00    +0.000 A 
ATOM     12  N   UNL     1       1.018  11.857  18.529  0.00  0.00    +0.000 NA
ATOM     13  C   UNL     1       0.519  12.991  19.068  0.00  0.00    +0.000 A 
ATOM     14  C   UNL     1       0.048  13.083  20.368  0.00  0.00    +0.000 A 
ATOM     15  C   UNL     1       0.087  11.947  21.168  0.00  0.00    +0.000 A 
ATOM     16  C   UNL     1       0.598  10.757  20.642  0.00  0.00    +0.000 A 
ATOM     17  C   UNL     1       0.654   9.539  21.486  0.00  0.00    +0.000 C 
ATOM     18  O   UNL     1       0.253   9.574  22.643  0.00  0.00    +0.000 OA
ENDBRANCH   1   8
BRANCH   1  19
ATOM     19  O   UNL     1       3.760   6.971  17.619  0.00  0.00    +0.000 OA
BRANCH  19  20
ATOM     20  C   UNL     1       4.911   6.196  17.372  0.00  0.00    +0.000 A 
ATOM     21  C   UNL     1       5.764   5.919  18.437  0.00  0.00    +0.000 A 
ATOM     22  C   UNL     1       6.954   5.224  18.197  0.00  0.00    +0.000 A 
ATOM     23  C   UNL     1       7.293   4.829  16.896  0.00  0.00    +0.000 A 
ATOM     24  C   UNL     1       6.447   5.130  15.824  0.00  0.00    +0.000 A 
ATOM     25  C   UNL     1       5.259   5.828  16.072  0.00  0.00    +0.000 A 
BRANCH  24  26
ATOM     26  C   UNL     1       6.802   4.778  14.467  0.00  0.00    +0.000 A 
ATOM     27  C   UNL     1       6.180   3.826  13.688  0.00  0.00    +0.000 A 
ATOM     28  N   UNL     1       6.786   3.954  12.478  0.00  0.00    +0.000 N 
ATOM     29  N   UNL     1       7.768   4.872  12.511  0.00  0.00    +0.000 NA
ATOM     30  N   UNL     1       7.786   5.388  13.735  0.00  0.00    +0.000 NA
BRANCH  28  31
ATOM     31  C   UNL     1       6.467   3.263  11.250  0.00  0.00    +0.000 C 
BRANCH  31  32
ATOM     32  C   UNL     1       5.779   1.920  11.466  0.00  0.00    +0.000 C 
BRANCH  32  33
ATOM     33  C   UNL     1       6.655   0.723  11.113  0.00  0.00    +0.000 C 
BRANCH  33  34
ATOM     34  O   UNL     1       6.034  -0.466  11.589  0.00  0.00    +0.000 OA
ATOM     35  H   UNL     1       6.672  -1.193  11.498  0.00  0.00    +0.000 HD
ENDBRANCH  33  34
ENDBRANCH  32  33
ENDBRANCH  31  32
ENDBRANCH  28  31
ENDBRANCH  24  26
ENDBRANCH  19  20
ENDBRANCH   1  19
TORSDOF 8
ENDMDL
MODEL 3
REMARK VINA RESULT:      -8.0      0.946      1.178
REMARK  Name = 
REMARK  9 active torsions:
REMARK  status: ('A' for Active; 'I' for Inactive)
REMARK    1  A    between atoms: C_1  and  C_2
REMARK    2  A    between atoms: C_6  and  C_7
REMARK    3  A    between atoms: C_7  and  O_9
REMARK    4  A    between atoms: O_9  and  C_10
REMARK    5  A    between atoms: C_14  and  C_15
REMARK    6  A    between atoms: N_17  and  C_18
REMARK    7  A    between atoms: C_18  and  C_19
REMARK    8  A    between atoms: C_19  and  C_20
REMARK    9  A    between atoms: C_20  and  O_21
REMARK                            x       y       z     vdW  Elec       q    Type
REMARK                         _______ _______ _______ _____ _____    ______ ____
ROOT
ATOM      1  C   UNL     1       3.060   4.268  18.532  0.00  0.00    +0.000 C 
ATOM      2  O   UNL     1       2.430   3.817  17.580  0.00  0.00    +0.000 OA
ENDROOT
BRANCH   1   8
ATOM      3  C   UNL     1       1.968   3.581  21.494  0.00  0.00    +0.000 C 
ATOM      4  C   UNL     1       2.013   4.854  20.737  0.00  0.00    +0.000 A 
ATOM      5  O   UNL     1       1.471   5.929  21.376  0.00  0.00    +0.000 OA
ATOM      6  C   UNL     1       1.590   6.980  20.537  0.00  0.00    +0.000 A 
ATOM      7  C   UNL     1       2.201   6.611  19.359  0.00  0.00    +0.000 A 
ATOM      8  C   UNL     1       2.467   5.210  19.470  0.00  0.00    +0.000 A 
ATOM      9  C   UNL     1       2.471   7.599  18.336  0.00  0.00    +0.000 C 
ATOM     10  O   UNL     1       3.071   7.324  17.306  0.00  0.00    +0.000 OA
ATOM     11  C   UNL     1       1.996   9.001  18.646  0.00  0.00    +0.000 A 
ATOM     12  N   UNL     1       2.229   9.929  17.679  0.00  0.00    +0.000 NA
ATOM     13  C   UNL     1       1.833  11.198  17.926  0.00  0.00    +0.000 A 
ATOM     14  C   UNL     1       1.210  11.596  19.097  0.00  0.00    +0.000 A 
ATOM     15  C   UNL     1       0.974  10.640  20.079  0.00  0.00    +0.000 A 
ATOM     16  C   UNL     1       1.370   9.318  19.856  0.00  0.00    +0.000 A 
ATOM     17  C   UNL     1       1.132   8.290  20.897  0.00  0.00    +0.000 C 
ATOM     18  O   UNL     1       0.589   8.596  21.952  0.00  0.00    +0.000 OA
ENDBRANCH   1   8
BRANCH   1  19
ATOM     19  O   UNL     1       4.419   4.053  18.764  0.00  0.00    +0.000 OA
BRANCH  19  20
ATOM     20  C   UNL     1       5.331   4.590  17.832  0.00  0.00    +0.000 A 
ATOM     21  C   UNL     1       6.107   5.679  18.217  0.00  0.00    +0.000 A 
ATOM     22  C   UNL     1       6.956   6.279  17.281  0.00  0.00    +0.000 A 
ATOM     23  C   UNL     1       7.009   5.801  15.965  0.00  0.00    +0.000 A 
ATOM     24  C   UNL     1       6.209   4.722  15.573  0.00  0.00    +0.000 A 
ATOM     25  C   UNL     1       5.360   4.129  16.516  0.00  0.00    +0.000 A 
BRANCH  24  26
ATOM     26  C   UNL     1       6.208   4.246  14.208  0.00  0.00    +0.000 A 
ATOM     27  C   UNL     1       5.171   3.593  13.579  0.00  0.00    +0.000 A 
ATOM     28  N   UNL     1       5.601   3.466  12.295  0.00  0.00    +0.000 N 
ATOM     29  N   UNL     1       6.849   3.944  12.142  0.00  0.00    +0.000 NA
ATOM     30  N   UNL     1       7.233   4.428  13.318  0.00  0.00    +0.000 NA
BRANCH  28  31
ATOM     31  C   UNL     1       4.874   2.934  11.166  0.00  0.00    +0.000 C 
BRANCH  31  32
ATOM     32  C   UNL     1       3.530   3.613  10.929  0.00  0.00    +0.000 C 
BRANCH  32  33
ATOM     33  C   UNL     1       3.233   3.878   9.458  0.00  0.00    +0.000 C 
BRANCH  33  34
ATOM     34  O   UNL     1       2.244   4.897   9.358  0.00  0.00    +0.000 OA
ATOM     35  H   UNL     1       2.618   5.713   9.733  0.00  0.00    +0.000 HD
ENDBRANCH  33  34
ENDBRANCH  32  33
ENDBRANCH  31  32
ENDBRANCH  28  31
ENDBRANCH  24  26
ENDBRANCH  19  20
ENDBRANCH   1  19
TORSDOF 8
ENDMDL
MODEL 4
REMARK VINA RESULT:      -7.8      2.945      4.766
REMARK  Name = 
REMARK  9 active torsions:
REMARK  status: ('A' for Active; 'I' for Inactive)
REMARK    1  A    between atoms: C_1  and  C_2
REMARK    2  A    between atoms: C_6  and  C_7
REMARK    3  A    between atoms: C_7  and  O_9
REMARK    4  A    between atoms: O_9  and  C_10
REMARK    5  A    between atoms: C_14  and  C_15
REMARK    6  A    between atoms: N_17  and  C_18
REMARK    7  A    between atoms: C_18  and  C_19
REMARK    8  A    between atoms: C_19  and  C_20
REMARK    9  A    between atoms: C_20  and  O_21
REMARK                            x       y       z     vdW  Elec       q    Type
REMARK                         _______ _______ _______ _____ _____    ______ ____
ROOT
ATOM      1  C   UNL     1       3.035   3.459  18.334  0.00  0.00    +0.000 C 
ATOM      2  O   UNL     1       2.295   2.945  17.500  0.00  0.00    +0.000 OA
ENDROOT
BRANCH   1   8
ATOM      3  C   UNL     1       2.180   2.797  21.378  0.00  0.00    +0.000 C 
ATOM      4  C   UNL     1       2.187   4.068  20.617  0.00  0.00    +0.000 A 
ATOM      5  O   UNL     1       1.722   5.154  21.296  0.00  0.00    +0.000 OA
ATOM      6  C   UNL     1       1.791   6.202  20.447  0.00  0.00    +0.000 A 
ATOM      7  C   UNL     1       2.294   5.820  19.223  0.00  0.00    +0.000 A 
ATOM      8  C   UNL     1       2.541   4.414  19.315  0.00  0.00    +0.000 A 
ATOM      9  C   UNL     1       2.498   6.801  18.178  0.00  0.00    +0.000 C 
ATOM     10  O   UNL     1       3.004   6.513  17.103  0.00  0.00    +0.000 OA
ATOM     11  C   UNL     1       2.078   8.213  18.524  0.00  0.00    +0.000 A 
ATOM     12  N   UNL     1       2.248   9.135  17.538  0.00  0.00    +0.000 NA
ATOM     13  C   UNL     1       1.900  10.411  17.814  0.00  0.00    +0.000 A 
ATOM     14  C   UNL     1       1.384  10.823  19.032  0.00  0.00    +0.000 A 
ATOM     15  C   UNL     1       1.212   9.873  20.032  0.00  0.00    +0.000 A 
ATOM     16  C   UNL     1       1.562   8.544  19.781  0.00  0.00    +0.000 A 
ATOM     17  C   UNL     1       1.391   7.521  20.841  0.00  0.00    +0.000 C 
ATOM     18  O   UNL     1       0.944   7.839  21.936  0.00  0.00    +0.000 OA
ENDBRANCH   1   8
BRANCH   1  19
ATOM     19  O   UNL     1       4.422   3.310  18.372  0.00  0.00    +0.000 OA
BRANCH  19  20
ATOM     20  C   UNL     1       5.188   4.128  17.517  0.00  0.00    +0.000 A 
ATOM     21  C   UNL     1       5.301   3.763  16.178  0.00  0.00    +0.000 A 
ATOM     22  C   UNL     1       6.125   4.514  15.332  0.00  0.00    +0.000 A 
ATOM     23  C   UNL     1       6.843   5.608  15.832  0.00  0.00    +0.000 A 
ATOM     24  C   UNL     1       6.746   5.958  17.183  0.00  0.00    +0.000 A 
ATOM     25  C   UNL     1       5.922   5.200  18.023  0.00  0.00    +0.000 A 
BRANCH  24  26
ATOM     26  C   UNL     1       7.518   7.052  17.732  0.00  0.00    +0.000 A 
ATOM     27  C   UNL     1       7.521   8.350  17.273  0.00  0.00    +0.000 A 
ATOM     28  N   UNL     1       8.294   9.009  18.177  0.00  0.00    +0.000 N 
ATOM     29  N   UNL     1       8.799   8.172  19.100  0.00  0.00    +0.000 NA
ATOM     30  N   UNL     1       8.326   6.959  18.834  0.00  0.00    +0.000 NA
BRANCH  28  31
ATOM     31  C   UNL     1       8.569  10.426  18.242  0.00  0.00    +0.000 C 
BRANCH  31  32
ATOM     32  C   UNL     1      10.011  10.785  17.897  0.00  0.00    +0.000 C 
BRANCH  32  33
ATOM     33  C   UNL     1      10.275  12.285  17.871  0.00  0.00    +0.000 C 
BRANCH  33  34
ATOM     34  O   UNL     1      11.473  12.535  17.144  0.00  0.00    +0.000 OA
ATOM     35  H   UNL     1      12.181  11.999  17.541  0.00  0.00    +0.000 HD
ENDBRANCH  33  34
ENDBRANCH  32  33
ENDBRANCH  31  32
ENDBRANCH  28  31
ENDBRANCH  24  26
ENDBRANCH  19  20
ENDBRANCH   1  19
TORSDOF 8
ENDMDL
MODEL 5
REMARK VINA RESULT:      -7.8      1.390      1.954
REMARK  Name = 
REMARK  9 active torsions:
REMARK  status: ('A' for Active; 'I' for Inactive)
REMARK    1  A    between atoms: C_1  and  C_2
REMARK    2  A    between atoms: C_6  and  C_7
REMARK    3  A    between atoms: C_7  and  O_9
REMARK    4  A    between atoms: O_9  and  C_10
REMARK    5  A    between atoms: C_14  and  C_15
REMARK    6  A    between atoms: N_17  and  C_18
REMARK    7  A    between atoms: C_18  and  C_19
REMARK    8  A    between atoms: C_19  and  C_20
REMARK    9  A    between atoms: C_20  and  O_21
REMARK                            x       y       z     vdW  Elec       q    Type
REMARK                         _______ _______ _______ _____ _____    ______ ____
ROOT
ATOM      1  C   UNL     1       2.744   6.250  18.186  0.00  0.00    +0.000 C 
ATOM      2  O   UNL     1       2.203   5.307  17.617  0.00  0.00    +0.000 OA
ENDROOT
BRANCH   1   8
ATOM      3  C   UNL     1       2.181   4.844  21.039  0.00  0.00    +0.000 C 
ATOM      4  C   UNL     1       1.933   6.224  20.562  0.00  0.00    +0.000 A 
ATOM      5  O   UNL     1       1.332   7.051  21.463  0.00  0.00    +0.000 OA
ATOM      6  C   UNL     1       1.179   8.246  20.852  0.00  0.00    +0.000 A 
ATOM      7  C   UNL     1       1.670   8.214  19.565  0.00  0.00    +0.000 A 
ATOM      8  C   UNL     1       2.153   6.884  19.355  0.00  0.00    +0.000 A 
ATOM      9  C   UNL     1       1.649   9.408  18.747  0.00  0.00    +0.000 C 
ATOM     10  O   UNL     1       2.136   9.437  17.625  0.00  0.00    +0.000 OA
ATOM     11  C   UNL     1       1.019  10.624  19.388  0.00  0.00    +0.000 A 
ATOM     12  N   UNL     1       0.978  11.743  18.615  0.00  0.00    +0.000 NA
ATOM     13  C   UNL     1       0.437  12.855  19.159  0.00  0.00    +0.000 A 
ATOM     14  C   UNL     1      -0.072  12.914  20.447  0.00  0.00    +0.000 A 
ATOM     15  C   UNL     1      -0.027  11.765  21.228  0.00  0.00    +0.000 A 
ATOM     16  C   UNL     1       0.525  10.596  20.697  0.00  0.00    +0.000 A 
ATOM     17  C   UNL     1       0.586   9.366  21.521  0.00  0.00    +0.000 C 
ATOM     18  O   UNL     1       0.153   9.371  22.668  0.00  0.00    +0.000 OA
ENDBRANCH   1   8
BRANCH   1  19
ATOM     19  O   UNL     1       3.888   6.908  17.732  0.00  0.00    +0.000 OA
BRANCH  19  20
ATOM     20  C   UNL     1       5.025   6.121  17.456  0.00  0.00    +0.000 A 
ATOM     21  C   UNL     1       5.916   5.861  18.493  0.00  0.00    +0.000 A 
ATOM     22  C   UNL     1       7.093   5.154  18.222  0.00  0.00    +0.000 A 
ATOM     23  C   UNL     1       7.380   4.731  16.917  0.00  0.00    +0.000 A 
ATOM     24  C   UNL     1       6.494   5.016  15.872  0.00  0.00    +0.000 A 
ATOM     25  C   UNL     1       5.320   5.727  16.152  0.00  0.00    +0.000 A 
BRANCH  24  26
ATOM     26  C   UNL     1       6.795   4.635  14.510  0.00  0.00    +0.000 A 
ATOM     27  C   UNL     1       6.383   3.480  13.883  0.00  0.00    +0.000 A 
ATOM     28  N   UNL     1       6.807   3.641  12.601  0.00  0.00    +0.000 N 
ATOM     29  N   UNL     1       7.498   4.784  12.448  0.00  0.00    +0.000 NA
ATOM     30  N   UNL     1       7.496   5.407  13.621  0.00  0.00    +0.000 NA
BRANCH  28  31
ATOM     31  C   UNL     1       6.569   2.770  11.473  0.00  0.00    +0.000 C 
BRANCH  31  32
ATOM     32  C   UNL     1       5.115   2.330  11.337  0.00  0.00    +0.000 C 
BRANCH  32  33
ATOM     33  C   UNL     1       4.126   3.490  11.338  0.00  0.00    +0.000 C 
BRANCH  33  34
ATOM     34  O   UNL     1       3.287   3.387  10.193  0.00  0.00    +0.000 OA
ATOM     35  H   UNL     1       3.001   4.285   9.951  0.00  0.00    +0.000 HD
ENDBRANCH  33  34
ENDBRANCH  32  33
ENDBRANCH  31  32
ENDBRANCH  28  31
ENDBRANCH  24  26
ENDBRANCH  19  20
ENDBRANCH   1  19
TORSDOF 8
ENDMDL
MODEL 6
REMARK VINA RESULT:      -7.6      3.457      5.526
REMARK  Name = 
REMARK  9 active torsions:
REMARK  status: ('A' for Active; 'I' for Inactive)
REMARK    1  A    between atoms: C_1  and  C_2
REMARK    2  A    between atoms: C_6  and  C_7
REMARK    3  A    between atoms: C_7  and  O_9
REMARK    4  A    between atoms: O_9  and  C_10
REMARK    5  A    between atoms: C_14  and  C_15
REMARK    6  A    between atoms: N_17  and  C_18
REMARK    7  A    between atoms: C_18  and  C_19
REMARK    8  A    between atoms: C_19  and  C_20
REMARK    9  A    between atoms: C_20  and  O_21
REMARK                            x       y       z     vdW  Elec       q    Type
REMARK                         _______ _______ _______ _____ _____    ______ ____
ROOT
ATOM      1  C   UNL     1       0.705  10.224  18.531  0.00  0.00    +0.000 C 
ATOM      2  O   UNL     1      -0.388   9.867  18.102  0.00  0.00    +0.000 OA
ENDROOT
BRANCH   1   8
ATOM      3  C   UNL     1      -0.251   9.824  21.591  0.00  0.00    +0.000 C 
ATOM      4  C   UNL     1       0.396  10.969  20.909  0.00  0.00    +0.000 A 
ATOM      5  O   UNL     1       0.602  12.068  21.688  0.00  0.00    +0.000 OA
ATOM      6  C   UNL     1       1.181  12.999  20.899  0.00  0.00    +0.000 A 
ATOM      7  C   UNL     1       1.358  12.528  19.618  0.00  0.00    +0.000 A 
ATOM      8  C   UNL     1       0.829  11.198  19.605  0.00  0.00    +0.000 A 
ATOM      9  C   UNL     1       2.009  13.351  18.620  0.00  0.00    +0.000 C 
ATOM     10  O   UNL     1       2.245  12.943  17.492  0.00  0.00    +0.000 OA
ATOM     11  C   UNL     1       2.412  14.733  19.082  0.00  0.00    +0.000 A 
ATOM     12  N   UNL     1       3.005  15.518  18.142  0.00  0.00    +0.000 NA
ATOM     13  C   UNL     1       3.394  16.756  18.522  0.00  0.00    +0.000 A 
ATOM     14  C   UNL     1       3.222  17.260  19.801  0.00  0.00    +0.000 A 
ATOM     15  C   UNL     1       2.613  16.451  20.753  0.00  0.00    +0.000 A 
ATOM     16  C   UNL     1       2.197  15.165  20.396  0.00  0.00    +0.000 A 
ATOM     17  C   UNL     1       1.554  14.289  21.403  0.00  0.00    +0.000 C 
ATOM     18  O   UNL     1       1.384  14.689  22.549  0.00  0.00    +0.000 OA
ENDBRANCH   1   8
BRANCH   1  19
ATOM     19  O   UNL     1       1.936   9.862  17.983  0.00  0.00    +0.000 OA
BRANCH  19  20
ATOM     20  C   UNL     1       2.402   8.556  18.235  0.00  0.00    +0.000 A 
ATOM     21  C   UNL     1       1.931   7.892  19.365  0.00  0.00    +0.000 A 
ATOM     22  C   UNL     1       2.444   6.629  19.680  0.00  0.00    +0.000 A 
ATOM     23  C   UNL     1       3.436   6.048  18.879  0.00  0.00    +0.000 A 
ATOM     24  C   UNL     1       3.926   6.728  17.759  0.00  0.00    +0.000 A 
ATOM     25  C   UNL     1       3.409   7.993  17.452  0.00  0.00    +0.000 A 
BRANCH  24  26
ATOM     26  C   UNL     1       4.986   6.171  16.948  0.00  0.00    +0.000 A 
ATOM     27  C   UNL     1       4.936   4.981  16.255  0.00  0.00    +0.000 A 
ATOM     28  N   UNL     1       6.106   4.962  15.564  0.00  0.00    +0.000 N 
ATOM     29  N   UNL     1       6.870   6.029  15.853  0.00  0.00    +0.000 NA
ATOM     30  N   UNL     1       6.188   6.783  16.708  0.00  0.00    +0.000 NA
BRANCH  28  31
ATOM     31  C   UNL     1       6.547   3.983  14.596  0.00  0.00    +0.000 C 
BRANCH  31  32
ATOM     32  C   UNL     1       5.614   3.845  13.398  0.00  0.00    +0.000 C 
BRANCH  32  33
ATOM     33  C   UNL     1       6.320   3.392  12.126  0.00  0.00    +0.000 C 
BRANCH  33  34
ATOM     34  O   UNL     1       5.961   2.043  11.849  0.00  0.00    +0.000 OA
ATOM     35  H   UNL     1       5.477   2.029  11.005  0.00  0.00    +0.000 HD
ENDBRANCH  33  34
ENDBRANCH  32  33
ENDBRANCH  31  32
ENDBRANCH  28  31
ENDBRANCH  24  26
ENDBRANCH  19  20
ENDBRANCH   1  19
TORSDOF 8
ENDMDL
MODEL 7
REMARK VINA RESULT:      -7.6      4.719     10.817
REMARK  Name = 
REMARK  9 active torsions:
REMARK  status: ('A' for Active; 'I' for Inactive)
REMARK    1  A    between atoms: C_1  and  C_2
REMARK    2  A    between atoms: C_6  and  C_7
REMARK    3  A    between atoms: C_7  and  O_9
REMARK    4  A    between atoms: O_9  and  C_10
REMARK    5  A    between atoms: C_14  and  C_15
REMARK    6  A    between atoms: N_17  and  C_18
REMARK    7  A    between atoms: C_18  and  C_19
REMARK    8  A    between atoms: C_19  and  C_20
REMARK    9  A    between atoms: C_20  and  O_21
REMARK                            x       y       z     vdW  Elec       q    Type
REMARK                         _______ _______ _______ _____ _____    ______ ____
ROOT
ATOM      1  C   UNL     1       0.872  10.445  19.404  0.00  0.00    +0.000 C 
ATOM      2  O   UNL     1       1.345  11.439  19.948  0.00  0.00    +0.000 OA
ENDROOT
BRANCH   1   8
ATOM      3  C   UNL     1      -0.310   9.160  22.123  0.00  0.00    +0.000 C 
ATOM      4  C   UNL     1       0.589   8.602  21.086  0.00  0.00    +0.000 A 
ATOM      5  O   UNL     1       1.031   7.335  21.322  0.00  0.00    +0.000 OA
ATOM      6  C   UNL     1       1.838   7.006  20.289  0.00  0.00    +0.000 A 
ATOM      7  C   UNL     1       1.930   8.038  19.381  0.00  0.00    +0.000 A 
ATOM      8  C   UNL     1       1.128   9.101  19.903  0.00  0.00    +0.000 A 
ATOM      9  C   UNL     1       2.709   7.877  18.171  0.00  0.00    +0.000 C 
ATOM     10  O   UNL     1       2.760   8.744  17.310  0.00  0.00    +0.000 OA
ATOM     11  C   UNL     1       3.419   6.550  18.028  0.00  0.00    +0.000 A 
ATOM     12  N   UNL     1       4.169   6.402  16.902  0.00  0.00    +0.000 NA
ATOM     13  C   UNL     1       4.807   5.223  16.730  0.00  0.00    +0.000 A 
ATOM     14  C   UNL     1       4.738   4.171  17.630  0.00  0.00    +0.000 A 
ATOM     15  C   UNL     1       3.972   4.333  18.778  0.00  0.00    +0.000 A 
ATOM     16  C   UNL     1       3.299   5.539  18.989  0.00  0.00    +0.000 A 
ATOM     17  C   UNL     1       2.471   5.723  20.205  0.00  0.00    +0.000 C 
ATOM     18  O   UNL     1       2.376   4.819  21.026  0.00  0.00    +0.000 OA
ENDBRANCH   1   8
BRANCH   1  19
ATOM     19  O   UNL     1       0.162  10.452  18.203  0.00  0.00    +0.000 OA
BRANCH  19  20
ATOM     20  C   UNL     1      -1.230  10.664  18.272  0.00  0.00    +0.000 A 
ATOM     21  C   UNL     1      -2.040  10.058  17.315  0.00  0.00    +0.000 A 
ATOM     22  C   UNL     1      -3.413  10.324  17.315  0.00  0.00    +0.000 A 
ATOM     23  C   UNL     1      -3.964  11.206  18.254  0.00  0.00    +0.000 A 
ATOM     24  C   UNL     1      -3.145  11.833  19.198  0.00  0.00    +0.000 A 
ATOM     25  C   UNL     1      -1.770  11.564  19.190  0.00  0.00    +0.000 A 
BRANCH  24  26
ATOM     26  C   UNL     1      -3.683  12.787  20.143  0.00  0.00    +0.000 A 
ATOM     27  C   UNL     1      -5.017  13.069  20.336  0.00  0.00    +0.000 A 
ATOM     28  N   UNL     1      -5.015  13.923  21.395  0.00  0.00    +0.000 N 
ATOM     29  N   UNL     1      -3.765  14.211  21.796  0.00  0.00    +0.000 NA
ATOM     30  N   UNL     1      -2.934  13.515  21.029  0.00  0.00    +0.000 NA
BRANCH  28  31
ATOM     31  C   UNL     1      -6.156  14.475  22.090  0.00  0.00    +0.000 C 
BRANCH  31  32
ATOM     32  C   UNL     1      -6.145  14.207  23.591  0.00  0.00    +0.000 C 
BRANCH  32  33
ATOM     33  C   UNL     1      -6.159  12.724  23.944  0.00  0.00    +0.000 C 
BRANCH  33  34
ATOM     34  O   UNL     1      -4.821  12.280  24.142  0.00  0.00    +0.000 OA
ATOM     35  H   UNL     1      -4.268  13.062  24.311  0.00  0.00    +0.000 HD
ENDBRANCH  33  34
ENDBRANCH  32  33
ENDBRANCH  31  32
ENDBRANCH  28  31
ENDBRANCH  24  26
ENDBRANCH  19  20
ENDBRANCH   1  19
TORSDOF 8
ENDMDL
MODEL 8
REMARK VINA RESULT:      -7.5      3.109      5.089
REMARK  Name = 
REMARK  9 active torsions:
REMARK  status: ('A' for Active; 'I' for Inactive)
REMARK    1  A    between atoms: C_1  and  C_2
REMARK    2  A    between atoms: C_6  and  C_7
REMARK    3  A    between atoms: C_7  and  O_9
REMARK    4  A    between atoms: O_9  and  C_10
REMARK    5  A    between atoms: C_14  and  C_15
REMARK    6  A    between atoms: N_17  and  C_18
REMARK    7  A    between atoms: C_18  and  C_19
REMARK    8  A    between atoms: C_19  and  C_20
REMARK    9  A    between atoms: C_20  and  O_21
REMARK                            x       y       z     vdW  Elec       q    Type
REMARK                         _______ _______ _______ _____ _____    ______ ____
ROOT
ATOM      1  C   UNL     1       1.107   9.164  19.729  0.00  0.00    +0.000 C 
ATOM      2  O   UNL     1       0.812   9.087  18.540  0.00  0.00    +0.000 OA
ENDROOT
BRANCH   1   8
ATOM      3  C   UNL     1      -0.339   9.296  22.615  0.00  0.00    +0.000 C 
ATOM      4  C   UNL     1       0.221  10.361  21.750  0.00  0.00    +0.000 A 
ATOM      5  O   UNL     1       0.079  11.630  22.227  0.00  0.00    +0.000 OA
ATOM      6  C   UNL     1       0.630  12.453  21.308  0.00  0.00    +0.000 A 
ATOM      7  C   UNL     1       1.130  11.743  20.239  0.00  0.00    +0.000 A 
ATOM      8  C   UNL     1       0.851  10.366  20.508  0.00  0.00    +0.000 A 
ATOM      9  C   UNL     1       1.809  12.430  19.161  0.00  0.00    +0.000 C 
ATOM     10  O   UNL     1       2.325  11.830  18.229  0.00  0.00    +0.000 OA
ATOM     11  C   UNL     1       1.870  13.936  19.287  0.00  0.00    +0.000 A 
ATOM     12  N   UNL     1       2.489  14.588  18.266  0.00  0.00    +0.000 NA
ATOM     13  C   UNL     1       2.578  15.934  18.350  0.00  0.00    +0.000 A 
ATOM     14  C   UNL     1       2.078  16.674  19.409  0.00  0.00    +0.000 A 
ATOM     15  C   UNL     1       1.445  15.999  20.447  0.00  0.00    +0.000 A 
ATOM     16  C   UNL     1       1.335  14.607  20.392  0.00  0.00    +0.000 A 
ATOM     17  C   UNL     1       0.670  13.874  21.495  0.00  0.00    +0.000 C 
ATOM     18  O   UNL     1       0.216  14.485  22.455  0.00  0.00    +0.000 OA
ENDBRANCH   1   8
BRANCH   1  19
ATOM     19  O   UNL     1       1.822   8.199  20.439  0.00  0.00    +0.000 OA
BRANCH  19  20
ATOM     20  C   UNL     1       2.146   7.004  19.767  0.00  0.00    +0.000 A 
ATOM     21  C   UNL     1       1.632   5.807  20.259  0.00  0.00    +0.000 A 
ATOM     22  C   UNL     1       2.010   4.602  19.658  0.00  0.00    +0.000 A 
ATOM     23  C   UNL     1       2.911   4.597  18.585  0.00  0.00    +0.000 A 
ATOM     24  C   UNL     1       3.445   5.799  18.108  0.00  0.00    +0.000 A 
ATOM     25  C   UNL     1       3.065   7.001  18.717  0.00  0.00    +0.000 A 
BRANCH  24  26
ATOM     26  C   UNL     1       4.417   5.814  17.036  0.00  0.00    +0.000 A 
ATOM     27  C   UNL     1       5.032   4.712  16.485  0.00  0.00    +0.000 A 
ATOM     28  N   UNL     1       5.749   5.226  15.451  0.00  0.00    +0.000 N 
ATOM     29  N   UNL     1       5.649   6.566  15.397  0.00  0.00    +0.000 NA
ATOM     30  N   UNL     1       4.827   6.940  16.372  0.00  0.00    +0.000 NA
BRANCH  28  31
ATOM     31  C   UNL     1       6.523   4.507  14.465  0.00  0.00    +0.000 C 
BRANCH  31  32
ATOM     32  C   UNL     1       5.679   3.626  13.551  0.00  0.00    +0.000 C 
BRANCH  32  33
ATOM     33  C   UNL     1       6.237   3.504  12.138  0.00  0.00    +0.000 C 
BRANCH  33  34
ATOM     34  O   UNL     1       6.703   2.175  11.934  0.00  0.00    +0.000 OA
ATOM     35  H   UNL     1       7.675   2.199  11.913  0.00  0.00    +0.000 HD
ENDBRANCH  33  34
ENDBRANCH  32  33
ENDBRANCH  31  32
ENDBRANCH  28  31
ENDBRANCH  24  26
ENDBRANCH  19  20
ENDBRANCH   1  19
TORSDOF 8
ENDMDL
MODEL 9
REMARK VINA RESULT:      -7.5      5.461      9.228
REMARK  Name = 
REMARK  9 active torsions:
REMARK  status: ('A' for Active; 'I' for Inactive)
REMARK    1  A    between atoms: C_1  and  C_2
REMARK    2  A    between atoms: C_6  and  C_7
REMARK    3  A    between atoms: C_7  and  O_9
REMARK    4  A    between atoms: O_9  and  C_10
REMARK    5  A    between atoms: C_14  and  C_15
REMARK    6  A    between atoms: N_17  and  C_18
REMARK    7  A    between atoms: C_18  and  C_19
REMARK    8  A    between atoms: C_19  and  C_20
REMARK    9  A    between atoms: C_20  and  O_21
REMARK                            x       y       z     vdW  Elec       q    Type
REMARK                         _______ _______ _______ _____ _____    ______ ____
ROOT
ATOM      1  C   UNL     1      -1.154  12.906  19.396  0.00  0.00    +0.000 C 
ATOM      2  O   UNL     1      -0.611  13.491  18.463  0.00  0.00    +0.000 OA
ENDROOT
BRANCH   1   8
ATOM      3  C   UNL     1      -2.237  10.808  17.191  0.00  0.00    +0.000 C 
ATOM      4  C   UNL     1      -2.921  11.485  18.317  0.00  0.00    +0.000 A 
ATOM      5  O   UNL     1      -4.250  11.210  18.439  0.00  0.00    +0.000 OA
ATOM      6  C   UNL     1      -4.698  11.919  19.499  0.00  0.00    +0.000 A 
ATOM      7  C   UNL     1      -3.683  12.652  20.072  0.00  0.00    +0.000 A 
ATOM      8  C   UNL     1      -2.512  12.390  19.293  0.00  0.00    +0.000 A 
ATOM      9  C   UNL     1      -3.935  13.448  21.255  0.00  0.00    +0.000 C 
ATOM     10  O   UNL     1      -3.046  14.058  21.832  0.00  0.00    +0.000 OA
ATOM     11  C   UNL     1      -5.365  13.440  21.749  0.00  0.00    +0.000 A 
ATOM     12  N   UNL     1      -5.612  14.203  22.849  0.00  0.00    +0.000 NA
ATOM     13  C   UNL     1      -6.874  14.208  23.331  0.00  0.00    +0.000 A 
ATOM     14  C   UNL     1      -7.917  13.487  22.770  0.00  0.00    +0.000 A 
ATOM     15  C   UNL     1      -7.655  12.713  21.646  0.00  0.00    +0.000 A 
ATOM     16  C   UNL     1      -6.360  12.684  21.120  0.00  0.00    +0.000 A 
ATOM     17  C   UNL     1      -6.064  11.856  19.927  0.00  0.00    +0.000 C 
ATOM     18  O   UNL     1      -6.953  11.197  19.399  0.00  0.00    +0.000 OA
ENDBRANCH   1   8
BRANCH   1  19
ATOM     19  O   UNL     1      -0.620  12.776  20.678  0.00  0.00    +0.000 OA
BRANCH  19  20
ATOM     20  C   UNL     1      -0.415  11.470  21.168  0.00  0.00    +0.000 A 
ATOM     21  C   UNL     1      -0.877  11.162  22.444  0.00  0.00    +0.000 A 
ATOM     22  C   UNL     1      -0.609   9.899  22.982  0.00  0.00    +0.000 A 
ATOM     23  C   UNL     1       0.134   8.962  22.252  0.00  0.00    +0.000 A 
ATOM     24  C   UNL     1       0.619   9.283  20.980  0.00  0.00    +0.000 A 
ATOM     25  C   UNL     1       0.349  10.550  20.450  0.00  0.00    +0.000 A 
BRANCH  24  26
ATOM     26  C   UNL     1       1.432   8.351  20.230  0.00  0.00    +0.000 A 
ATOM     27  C   UNL     1       1.813   7.093  20.645  0.00  0.00    +0.000 A 
ATOM     28  N   UNL     1       2.450   6.576  19.560  0.00  0.00    +0.000 N 
ATOM     29  N   UNL     1       2.526   7.469  18.559  0.00  0.00    +0.000 NA
ATOM     30  N   UNL     1       1.900   8.569  18.961  0.00  0.00    +0.000 NA
BRANCH  28  31
ATOM     31  C   UNL     1       2.981   5.242  19.398  0.00  0.00    +0.000 C 
BRANCH  31  32
ATOM     32  C   UNL     1       4.505   5.186  19.408  0.00  0.00    +0.000 C 
BRANCH  32  33
ATOM     33  C   UNL     1       5.102   4.649  18.112  0.00  0.00    +0.000 C 
BRANCH  33  34
ATOM     34  O   UNL     1       6.321   3.975  18.406  0.00  0.00    +0.000 OA
ATOM     35  H   UNL     1       6.753   4.445  19.139  0.00  0.00    +0.000 HD
ENDBRANCH  33  34
ENDBRANCH  32  33
ENDBRANCH  31  32
ENDBRANCH  28  31
ENDBRANCH  24  26
ENDBRANCH  19  20
ENDBRANCH   1  19
TORSDOF 8
ENDMDL
