MODEL 1
REMARK VINA RESULT:      -7.1      0.000      0.000
REMARK  Name = 
REMARK  8 active torsions:
REMARK  status: ('A' for Active; 'I' for Inactive)
REMARK    1  A    between atoms: C_1  and  C_2
REMARK    2  A    between atoms: C_2  and  N_3
REMARK    3  A    between atoms: C_7  and  C_8
REMARK    4  A    between atoms: C_8  and  N_9
REMARK    5  A    between atoms: N_12  and  C_13
REMARK    6  A    between atoms: C_13  and  C_14
REMARK    7  A    between atoms: C_14  and  C_15
REMARK    8  A    between atoms: C_14  and  N_20
REMARK                            x       y       z     vdW  Elec       q    Type
REMARK                         _______ _______ _______ _____ _____    ______ ____
ROOT
ATOM      1  N   UNL     1       1.423   7.814  20.580  0.00  0.00    +0.000 N 
ATOM      2  C   UNL     1       2.362   7.214  19.797  0.00  0.00    +0.000 C 
ATOM      3  O   UNL     1       2.820   7.725  18.782  0.00  0.00    +0.000 OA
ATOM      4  N   UNL     1       2.759   5.996  20.288  0.00  0.00    +0.000 N 
ATOM      5  H   UNL     1       0.825   7.209  21.129  0.00  0.00    +0.000 HD
ATOM      6  H   UNL     1       2.574   5.818  21.265  0.00  0.00    +0.000 HD
ENDROOT
BRANCH   1   7
ATOM      7  C   UNL     1       0.840   9.070  20.159  0.00  0.00    +0.000 C 
BRANCH   7  12
ATOM      8  N   UNL     1      -0.563  10.846  21.319  0.00  0.00    +0.000 N 
ATOM      9  C   UNL     1      -0.858  11.127  22.618  0.00  0.00    +0.000 A 
ATOM     10  N   UNL     1      -0.240  10.280  23.407  0.00  0.00    +0.000 NA
ATOM     11  N   UNL     1       0.468   9.415  22.610  0.00  0.00    +0.000 NA
ATOM     12  C   UNL     1       0.275   9.758  21.350  0.00  0.00    +0.000 A 
BRANCH   8  14
ATOM     13  C   UNL     1      -0.185  12.686  19.721  0.00  0.00    +0.000 C 
ATOM     14  C   UNL     1      -1.093  11.556  20.176  0.00  0.00    +0.000 C 
ENDBRANCH   8  14
ENDBRANCH   7  12
ENDBRANCH   1   7
BRANCH   4  15
ATOM     15  C   UNL     1       3.896   5.341  19.660  0.00  0.00    +0.000 C 
BRANCH  15  16
ATOM     16  C   UNL     1       3.589   4.390  18.469  0.00  0.00    +0.000 C 
BRANCH  16  17
ATOM     17  C   UNL     1       4.720   4.363  17.442  0.00  0.00    +0.000 A 
ATOM     18  C   UNL     1       4.670   4.065  16.090  0.00  0.00    +0.000 A 
ATOM     19  C   UNL     1       5.937   4.165  15.455  0.00  0.00    +0.000 A 
ATOM     20  C   UNL     1       6.927   4.530  16.338  0.00  0.00    +0.000 A 
ATOM     21  S   UNL     1       6.326   4.740  17.925  0.00  0.00    +0.000 S 
ENDBRANCH  16  17
BRANCH  16  22
ATOM     22  N   UNL     1       3.187   3.005  18.839  0.00  0.00    +0.000 NA
ATOM     23  C   UNL     1       1.886   2.585  18.304  0.00  0.00    +0.000 C 
ATOM     24  C   UNL     1       0.874   2.869  19.400  0.00  0.00    +0.000 C 
ATOM     25  C   UNL     1       1.658   2.659  20.679  0.00  0.00    +0.000 C 
ATOM     26  C   UNL     1       3.127   2.722  20.279  0.00  0.00    +0.000 C 
ENDBRANCH  16  22
ENDBRANCH  15  16
ENDBRANCH   4  15
TORSDOF 7
ENDMDL
MODEL 2
REMARK VINA RESULT:      -7.0      1.574      1.858
REMARK  Name = 
REMARK  8 active torsions:
REMARK  status: ('A' for Active; 'I' for Inactive)
REMARK    1  A    between atoms: C_1  and  C_2
REMARK    2  A    between atoms: C_2  and  N_3
REMARK    3  A    between atoms: C_7  and  C_8
REMARK    4  A    between atoms: C_8  and  N_9
REMARK    5  A    between atoms: N_12  and  C_13
REMARK    6  A    between atoms: C_13  and  C_14
REMARK    7  A    between atoms: C_14  and  C_15
REMARK    8  A    between atoms: C_14  and  N_20
REMARK                            x       y       z     vdW  Elec       q    Type
REMARK                         _______ _______ _______ _____ _____    ______ ____
ROOT
ATOM      1  N   UNL     1       1.606   8.542  19.153  0.00  0.00    +0.000 N 
ATOM      2  C   UNL     1       2.525   7.591  18.826  0.00  0.00    +0.000 C 
ATOM      3  O   UNL     1       3.238   7.657  17.832  0.00  0.00    +0.000 OA
ATOM      4  N   UNL     1       2.587   6.577  19.747  0.00  0.00    +0.000 N 
ATOM      5  H   UNL     1       0.817   8.247  19.715  0.00  0.00    +0.000 HD
ATOM      6  H   UNL     1       2.210   6.772  20.664  0.00  0.00    +0.000 HD
ENDROOT
BRANCH   1   7
ATOM      7  C   UNL     1       1.360   9.639  18.242  0.00  0.00    +0.000 C 
BRANCH   7  12
ATOM      8  N   UNL     1      -0.790  10.851  18.856  0.00  0.00    +0.000 N 
ATOM      9  C   UNL     1      -1.095  11.888  19.685  0.00  0.00    +0.000 A 
ATOM     10  N   UNL     1      -0.001  12.340  20.250  0.00  0.00    +0.000 NA
ATOM     11  N   UNL     1       1.046  11.578  19.793  0.00  0.00    +0.000 NA
ATOM     12  C   UNL     1       0.570  10.681  18.951  0.00  0.00    +0.000 A 
BRANCH   8  14
ATOM     13  C   UNL     1      -2.272  10.854  16.885  0.00  0.00    +0.000 C 
ATOM     14  C   UNL     1      -1.752  10.091  18.091  0.00  0.00    +0.000 C 
ENDBRANCH   8  14
ENDBRANCH   7  12
ENDBRANCH   1   7
BRANCH   4  15
ATOM     15  C   UNL     1       3.661   5.604  19.625  0.00  0.00    +0.000 C 
BRANCH  15  16
ATOM     16  C   UNL     1       3.499   4.512  18.530  0.00  0.00    +0.000 C 
BRANCH  16  17
ATOM     17  C   UNL     1       4.723   4.417  17.621  0.00  0.00    +0.000 A 
ATOM     18  C   UNL     1       4.805   4.001  16.303  0.00  0.00    +0.000 A 
ATOM     19  C   UNL     1       6.126   4.068  15.783  0.00  0.00    +0.000 A 
ATOM     20  C   UNL     1       7.024   4.525  16.721  0.00  0.00    +0.000 A 
ATOM     21  S   UNL     1       6.272   4.863  18.219  0.00  0.00    +0.000 S 
ENDBRANCH  16  17
BRANCH  16  22
ATOM     22  N   UNL     1       3.106   3.163  19.021  0.00  0.00    +0.000 NA
ATOM     23  C   UNL     1       1.793   2.703  18.552  0.00  0.00    +0.000 C 
ATOM     24  C   UNL     1       0.806   3.076  19.644  0.00  0.00    +0.000 C 
ATOM     25  C   UNL     1       1.619   2.970  20.918  0.00  0.00    +0.000 C 
ATOM     26  C   UNL     1       3.079   2.998  20.481  0.00  0.00    +0.000 C 
ENDBRANCH  16  22
ENDBRANCH  15  16
ENDBRANCH   4  15
TORSDOF 7
ENDMDL
MODEL 3
REMARK VINA RESULT:      -7.0      3.571      8.344
REMARK  Name = 
REMARK  8 active torsions:
REMARK  status: ('A' for Active; 'I' for Inactive)
REMARK    1  A    between atoms: C_1  and  C_2
REMARK    2  A    between atoms: C_2  and  N_3
REMARK    3  A    between atoms: C_7  and  C_8
REMARK    4  A    between atoms: C_8  and  N_9
REMARK    5  A    between atoms: N_12  and  C_13
REMARK    6  A    between atoms: C_13  and  C_14
REMARK    7  A    between atoms: C_14  and  C_15
REMARK    8  A    between atoms: C_14  and  N_20
REMARK                            x       y       z     vdW  Elec       q    Type
REMARK                         _______ _______ _______ _____ _____    ______ ____
ROOT
ATOM      1  N   UNL     1       5.048   4.400  15.678  0.00  0.00    +0.000 N 
ATOM      2  C   UNL     1       5.162   4.727  16.995  0.00  0.00    +0.000 C 
ATOM      3  O   UNL     1       6.112   4.397  17.693  0.00  0.00    +0.000 OA
ATOM      4  N   UNL     1       4.114   5.493  17.440  0.00  0.00    +0.000 N 
ATOM      5  H   UNL     1       4.113   4.347  15.294  0.00  0.00    +0.000 HD
ATOM      6  H   UNL     1       3.569   5.972  16.736  0.00  0.00    +0.000 HD
ENDROOT
BRANCH   1   7
ATOM      7  C   UNL     1       6.031   3.526  15.074  0.00  0.00    +0.000 C 
BRANCH   7  12
ATOM      8  N   UNL     1       6.714   4.015  12.673  0.00  0.00    +0.000 N 
ATOM      9  C   UNL     1       7.494   4.960  12.079  0.00  0.00    +0.000 A 
ATOM     10  N   UNL     1       7.998   5.756  12.991  0.00  0.00    +0.000 NA
ATOM     11  N   UNL     1       7.532   5.334  14.211  0.00  0.00    +0.000 NA
ATOM     12  C   UNL     1       6.759   4.282  14.019  0.00  0.00    +0.000 A 
BRANCH   8  14
ATOM     13  C   UNL     1       4.541   3.398  11.683  0.00  0.00    +0.000 C 
ATOM     14  C   UNL     1       5.976   2.989  11.971  0.00  0.00    +0.000 C 
ENDBRANCH   8  14
ENDBRANCH   7  12
ENDBRANCH   1   7
BRANCH   4  15
ATOM     15  C   UNL     1       4.209   6.078  18.768  0.00  0.00    +0.000 C 
BRANCH  15  16
ATOM     16  C   UNL     1       2.952   5.963  19.678  0.00  0.00    +0.000 C 
BRANCH  16  17
ATOM     17  C   UNL     1       2.170   7.273  19.754  0.00  0.00    +0.000 A 
ATOM     18  C   UNL     1       1.510   7.839  20.832  0.00  0.00    +0.000 A 
ATOM     19  C   UNL     1       0.906   9.087  20.518  0.00  0.00    +0.000 A 
ATOM     20  C   UNL     1       1.113   9.441  19.204  0.00  0.00    +0.000 A 
ATOM     21  S   UNL     1       2.023   8.267  18.358  0.00  0.00    +0.000 S 
ENDBRANCH  16  17
BRANCH  16  22
ATOM     22  N   UNL     1       2.040   4.827  19.374  0.00  0.00    +0.000 NA
ATOM     23  C   UNL     1       0.988   4.607  20.374  0.00  0.00    +0.000 C 
ATOM     24  C   UNL     1       1.528   3.551  21.321  0.00  0.00    +0.000 C 
ATOM     25  C   UNL     1       2.406   2.687  20.438  0.00  0.00    +0.000 C 
ATOM     26  C   UNL     1       2.687   3.520  19.194  0.00  0.00    +0.000 C 
ENDBRANCH  16  22
ENDBRANCH  15  16
ENDBRANCH   4  15
TORSDOF 7
ENDMDL
MODEL 4
REMARK VINA RESULT:      -7.0      1.535      1.934
REMARK  Name = 
REMARK  8 active torsions:
REMARK  status: ('A' for Active; 'I' for Inactive)
REMARK    1  A    between atoms: C_1  and  C_2
REMARK    2  A    between atoms: C_2  and  N_3
REMARK    3  A    between atoms: C_7  and  C_8
REMARK    4  A    between atoms: C_8  and  N_9
REMARK    5  A    between atoms: N_12  and  C_13
REMARK    6  A    between atoms: C_13  and  C_14
REMARK    7  A    between atoms: C_14  and  C_15
REMARK    8  A    between atoms: C_14  and  N_20
REMARK                            x       y       z     vdW  Elec       q    Type
REMARK                         _______ _______ _______ _____ _____    ______ ____
ROOT
ATOM      1  N   UNL     1       1.689   8.498  19.160  0.00  0.00    +0.000 N 
ATOM      2  C   UNL     1       2.589   7.525  18.844  0.00  0.00    +0.000 C 
ATOM      3  O   UNL     1       3.308   7.567  17.854  0.00  0.00    +0.000 OA
ATOM      4  N   UNL     1       2.621   6.515  19.773  0.00  0.00    +0.000 N 
ATOM      5  H   UNL     1       0.890   8.225  19.719  0.00  0.00    +0.000 HD
ATOM      6  H   UNL     1       2.244   6.725  20.686  0.00  0.00    +0.000 HD
ENDROOT
BRANCH   1   7
ATOM      7  C   UNL     1       1.474   9.595  18.240  0.00  0.00    +0.000 C 
BRANCH   7  12
ATOM      8  N   UNL     1      -0.017  11.141  19.602  0.00  0.00    +0.000 N 
ATOM      9  C   UNL     1      -1.325  11.513  19.526  0.00  0.00    +0.000 A 
ATOM     10  N   UNL     1      -1.905  10.892  18.528  0.00  0.00    +0.000 NA
ATOM     11  N   UNL     1      -0.957  10.102  17.925  0.00  0.00    +0.000 NA
ATOM     12  C   UNL     1       0.182  10.252  18.575  0.00  0.00    +0.000 A 
BRANCH   8  14
ATOM     13  C   UNL     1       0.609  13.065  21.013  0.00  0.00    +0.000 C 
ATOM     14  C   UNL     1       0.935  11.651  20.564  0.00  0.00    +0.000 C 
ENDBRANCH   8  14
ENDBRANCH   7  12
ENDBRANCH   1   7
BRANCH   4  15
ATOM     15  C   UNL     1       3.674   5.518  19.664  0.00  0.00    +0.000 C 
BRANCH  15  16
ATOM     16  C   UNL     1       3.510   4.443  18.552  0.00  0.00    +0.000 C 
BRANCH  16  17
ATOM     17  C   UNL     1       4.724   4.376  17.627  0.00  0.00    +0.000 A 
ATOM     18  C   UNL     1       4.797   3.977  16.303  0.00  0.00    +0.000 A 
ATOM     19  C   UNL     1       6.110   4.070  15.769  0.00  0.00    +0.000 A 
ATOM     20  C   UNL     1       7.013   4.530  16.701  0.00  0.00    +0.000 A 
ATOM     21  S   UNL     1       6.274   4.838  18.211  0.00  0.00    +0.000 S 
ENDBRANCH  16  17
BRANCH  16  22
ATOM     22  N   UNL     1       3.138   3.081  19.024  0.00  0.00    +0.000 NA
ATOM     23  C   UNL     1       1.868   2.576  18.486  0.00  0.00    +0.000 C 
ATOM     24  C   UNL     1       0.812   2.916  19.523  0.00  0.00    +0.000 C 
ATOM     25  C   UNL     1       1.559   2.839  20.839  0.00  0.00    +0.000 C 
ATOM     26  C   UNL     1       3.038   2.916  20.480  0.00  0.00    +0.000 C 
ENDBRANCH  16  22
ENDBRANCH  15  16
ENDBRANCH   4  15
TORSDOF 7
ENDMDL
MODEL 5
REMARK VINA RESULT:      -6.9      3.749      8.461
REMARK  Name = 
REMARK  8 active torsions:
REMARK  status: ('A' for Active; 'I' for Inactive)
REMARK    1  A    between atoms: C_1  and  C_2
REMARK    2  A    between atoms: C_2  and  N_3
REMARK    3  A    between atoms: C_7  and  C_8
REMARK    4  A    between atoms: C_8  and  N_9
REMARK    5  A    between atoms: N_12  and  C_13
REMARK    6  A    between atoms: C_13  and  C_14
REMARK    7  A    between atoms: C_14  and  C_15
REMARK    8  A    between atoms: C_14  and  N_20
REMARK                            x       y       z     vdW  Elec       q    Type
REMARK                         _______ _______ _______ _____ _____    ______ ____
ROOT
ATOM      1  N   UNL     1       5.225   4.592  15.707  0.00  0.00    +0.000 N 
ATOM      2  C   UNL     1       5.220   4.669  17.067  0.00  0.00    +0.000 C 
ATOM      3  O   UNL     1       6.003   4.054  17.780  0.00  0.00    +0.000 OA
ATOM      4  N   UNL     1       4.268   5.534  17.543  0.00  0.00    +0.000 N 
ATOM      5  H   UNL     1       4.352   4.782  15.231  0.00  0.00    +0.000 HD
ATOM      6  H   UNL     1       3.907   6.217  16.892  0.00  0.00    +0.000 HD
ENDROOT
BRANCH   1   7
ATOM      7  C   UNL     1       6.117   3.661  15.049  0.00  0.00    +0.000 C 
BRANCH   7  12
ATOM      8  N   UNL     1       6.810   4.095  12.641  0.00  0.00    +0.000 N 
ATOM      9  C   UNL     1       7.610   5.014  12.031  0.00  0.00    +0.000 A 
ATOM     10  N   UNL     1       8.130   5.815  12.930  0.00  0.00    +0.000 NA
ATOM     11  N   UNL     1       7.655   5.423  14.158  0.00  0.00    +0.000 NA
ATOM     12  C   UNL     1       6.860   4.384  13.983  0.00  0.00    +0.000 A 
BRANCH   8  14
ATOM     13  C   UNL     1       6.938   2.047  11.272  0.00  0.00    +0.000 C 
ATOM     14  C   UNL     1       6.050   3.074  11.956  0.00  0.00    +0.000 C 
ENDBRANCH   8  14
ENDBRANCH   7  12
ENDBRANCH   1   7
BRANCH   4  15
ATOM     15  C   UNL     1       4.287   5.861  18.960  0.00  0.00    +0.000 C 
BRANCH  15  16
ATOM     16  C   UNL     1       2.909   5.997  19.668  0.00  0.00    +0.000 C 
BRANCH  16  17
ATOM     17  C   UNL     1       2.240   7.341  19.382  0.00  0.00    +0.000 A 
ATOM     18  C   UNL     1       2.155   8.042  18.191  0.00  0.00    +0.000 A 
ATOM     19  C   UNL     1       1.431   9.258  18.316  0.00  0.00    +0.000 A 
ATOM     20  C   UNL     1       0.988   9.463  19.603  0.00  0.00    +0.000 A 
ATOM     21  S   UNL     1       1.453   8.194  20.650  0.00  0.00    +0.000 S 
ENDBRANCH  16  17
BRANCH  16  22
ATOM     22  N   UNL     1       1.954   4.879  19.437  0.00  0.00    +0.000 NA
ATOM     23  C   UNL     1       1.053   4.605  20.564  0.00  0.00    +0.000 C 
ATOM     24  C   UNL     1       1.715   3.498  21.366  0.00  0.00    +0.000 C 
ATOM     25  C   UNL     1       2.451   2.685  20.321  0.00  0.00    +0.000 C 
ATOM     26  C   UNL     1       2.558   3.585  19.096  0.00  0.00    +0.000 C 
ENDBRANCH  16  22
ENDBRANCH  15  16
ENDBRANCH   4  15
TORSDOF 7
ENDMDL
MODEL 6
REMARK VINA RESULT:      -6.9      2.692      4.443
REMARK  Name = 
REMARK  8 active torsions:
REMARK  status: ('A' for Active; 'I' for Inactive)
REMARK    1  A    between atoms: C_1  and  C_2
REMARK    2  A    between atoms: C_2  and  N_3
REMARK    3  A    between atoms: C_7  and  C_8
REMARK    4  A    between atoms: C_8  and  N_9
REMARK    5  A    between atoms: N_12  and  C_13
REMARK    6  A    between atoms: C_13  and  C_14
REMARK    7  A    between atoms: C_14  and  C_15
REMARK    8  A    between atoms: C_14  and  N_20
REMARK                            x       y       z     vdW  Elec       q    Type
REMARK                         _______ _______ _______ _____ _____    ______ ____
ROOT
ATOM      1  N   UNL     1       0.642   9.578  19.015  0.00  0.00    +0.000 N 
ATOM      2  C   UNL     1       1.699   9.211  18.238  0.00  0.00    +0.000 C 
ATOM      3  O   UNL     1       2.261   9.972  17.461  0.00  0.00    +0.000 OA
ATOM      4  N   UNL     1       2.082   7.910  18.449  0.00  0.00    +0.000 N 
ATOM      5  H   UNL     1       0.005   8.845  19.304  0.00  0.00    +0.000 HD
ATOM      6  H   UNL     1       1.782   7.482  19.314  0.00  0.00    +0.000 HD
ENDROOT
BRANCH   1   7
ATOM      7  C   UNL     1       0.063  10.895  18.855  0.00  0.00    +0.000 C 
BRANCH   7  12
ATOM      8  N   UNL     1      -2.418  11.440  18.730  0.00  0.00    +0.000 N 
ATOM      9  C   UNL     1      -3.446  11.023  17.939  0.00  0.00    +0.000 A 
ATOM     10  N   UNL     1      -3.013  10.126  17.086  0.00  0.00    +0.000 NA
ATOM     11  N   UNL     1      -1.669   9.957  17.311  0.00  0.00    +0.000 NA
ATOM     12  C   UNL     1      -1.310  10.749  18.304  0.00  0.00    +0.000 A 
BRANCH   8  14
ATOM     13  C   UNL     1      -3.959  12.699  20.186  0.00  0.00    +0.000 C 
ATOM     14  C   UNL     1      -2.522  12.447  19.762  0.00  0.00    +0.000 C 
ENDBRANCH   8  14
ENDBRANCH   7  12
ENDBRANCH   1   7
BRANCH   4  15
ATOM     15  C   UNL     1       3.318   7.452  17.835  0.00  0.00    +0.000 C 
BRANCH  15  16
ATOM     16  C   UNL     1       3.941   6.144  18.399  0.00  0.00    +0.000 C 
BRANCH  16  17
ATOM     17  C   UNL     1       2.889   5.065  18.656  0.00  0.00    +0.000 A 
ATOM     18  C   UNL     1       2.199   4.280  17.748  0.00  0.00    +0.000 A 
ATOM     19  C   UNL     1       1.307   3.367  18.372  0.00  0.00    +0.000 A 
ATOM     20  C   UNL     1       1.330   3.483  19.743  0.00  0.00    +0.000 A 
ATOM     21  S   UNL     1       2.418   4.692  20.267  0.00  0.00    +0.000 S 
ENDBRANCH  16  17
BRANCH  16  22
ATOM     22  N   UNL     1       5.081   5.587  17.622  0.00  0.00    +0.000 NA
ATOM     23  C   UNL     1       5.987   4.731  18.399  0.00  0.00    +0.000 C 
ATOM     24  C   UNL     1       7.115   5.635  18.866  0.00  0.00    +0.000 C 
ATOM     25  C   UNL     1       7.247   6.654  17.752  0.00  0.00    +0.000 C 
ATOM     26  C   UNL     1       5.946   6.574  16.962  0.00  0.00    +0.000 C 
ENDBRANCH  16  22
ENDBRANCH  15  16
ENDBRANCH   4  15
TORSDOF 7
ENDMDL
MODEL 7
REMARK VINA RESULT:      -6.9      3.077      6.783
REMARK  Name = 
REMARK  8 active torsions:
REMARK  status: ('A' for Active; 'I' for Inactive)
REMARK    1  A    between atoms: C_1  and  C_2
REMARK    2  A    between atoms: C_2  and  N_3
REMARK    3  A    between atoms: C_7  and  C_8
REMARK    4  A    between atoms: C_8  and  N_9
REMARK    5  A    between atoms: N_12  and  C_13
REMARK    6  A    between atoms: C_13  and  C_14
REMARK    7  A    between atoms: C_14  and  C_15
REMARK    8  A    between atoms: C_14  and  N_20
REMARK                            x       y       z     vdW  Elec       q    Type
REMARK                         _______ _______ _______ _____ _____    ______ ____
ROOT
ATOM      1  N   UNL     1       5.415   4.491  16.518  0.00  0.00    +0.000 N 
ATOM      2  C   UNL     1       4.452   5.192  17.179  0.00  0.00    +0.000 C 
ATOM      3  O   UNL     1       4.564   6.374  17.478  0.00  0.00    +0.000 OA
ATOM      4  N   UNL     1       3.335   4.438  17.439  0.00  0.00    +0.000 N 
ATOM      5  H   UNL     1       5.437   3.488  16.661  0.00  0.00    +0.000 HD
ATOM      6  H   UNL     1       3.211   3.603  16.883  0.00  0.00    +0.000 HD
ENDROOT
BRANCH   1   7
ATOM      7  C   UNL     1       6.689   5.119  16.241  0.00  0.00    +0.000 C 
BRANCH   7  12
ATOM      8  N   UNL     1       7.729   6.646  17.989  0.00  0.00    +0.000 N 
ATOM      9  C   UNL     1       8.297   6.446  19.211  0.00  0.00    +0.000 A 
ATOM     10  N   UNL     1       8.305   5.164  19.491  0.00  0.00    +0.000 NA
ATOM     11  N   UNL     1       7.720   4.507  18.438  0.00  0.00    +0.000 NA
ATOM     12  C   UNL     1       7.374   5.401  17.530  0.00  0.00    +0.000 A 
BRANCH   8  14
ATOM     13  C   UNL     1       8.303   9.043  18.064  0.00  0.00    +0.000 C 
ATOM     14  C   UNL     1       7.526   7.937  17.371  0.00  0.00    +0.000 C 
ENDBRANCH   8  14
ENDBRANCH   7  12
ENDBRANCH   1   7
BRANCH   4  15
ATOM     15  C   UNL     1       2.157   5.114  17.958  0.00  0.00    +0.000 C 
BRANCH  15  16
ATOM     16  C   UNL     1       2.262   5.708  19.391  0.00  0.00    +0.000 C 
BRANCH  16  17
ATOM     17  C   UNL     1       1.862   7.181  19.439  0.00  0.00    +0.000 A 
ATOM     18  C   UNL     1       1.877   8.127  18.428  0.00  0.00    +0.000 A 
ATOM     19  C   UNL     1       1.411   9.400  18.855  0.00  0.00    +0.000 A 
ATOM     20  C   UNL     1       1.059   9.399  20.185  0.00  0.00    +0.000 A 
ATOM     21  S   UNL     1       1.299   7.870  20.911  0.00  0.00    +0.000 S 
ENDBRANCH  16  17
BRANCH  16  22
ATOM     22  N   UNL     1       1.562   4.941  20.457  0.00  0.00    +0.000 NA
ATOM     23  C   UNL     1       2.452   4.332  21.454  0.00  0.00    +0.000 C 
ATOM     24  C   UNL     1       2.693   2.909  20.983  0.00  0.00    +0.000 C 
ATOM     25  C   UNL     1       1.401   2.535  20.286  0.00  0.00    +0.000 C 
ATOM     26  C   UNL     1       0.692   3.852  19.993  0.00  0.00    +0.000 C 
ENDBRANCH  16  22
ENDBRANCH  15  16
ENDBRANCH   4  15
TORSDOF 7
ENDMDL
MODEL 8
REMARK VINA RESULT:      -6.9      2.524      4.357
REMARK  Name = 
REMARK  8 active torsions:
REMARK  status: ('A' for Active; 'I' for Inactive)
REMARK    1  A    between atoms: C_1  and  C_2
REMARK    2  A    between atoms: C_2  and  N_3
REMARK    3  A    between atoms: C_7  and  C_8
REMARK    4  A    between atoms: C_8  and  N_9
REMARK    5  A    between atoms: N_12  and  C_13
REMARK    6  A    between atoms: C_13  and  C_14
REMARK    7  A    between atoms: C_14  and  C_15
REMARK    8  A    between atoms: C_14  and  N_20
REMARK                            x       y       z     vdW  Elec       q    Type
REMARK                         _______ _______ _______ _____ _____    ______ ____
ROOT
ATOM      1  N   UNL     1       1.054   9.919  19.522  0.00  0.00    +0.000 N 
ATOM      2  C   UNL     1       1.707   9.213  18.557  0.00  0.00    +0.000 C 
ATOM      3  O   UNL     1       1.914   9.646  17.430  0.00  0.00    +0.000 OA
ATOM      4  N   UNL     1       2.132   7.985  18.997  0.00  0.00    +0.000 N 
ATOM      5  H   UNL     1       0.581   9.387  20.243  0.00  0.00    +0.000 HD
ATOM      6  H   UNL     1       2.201   7.860  19.997  0.00  0.00    +0.000 HD
ENDROOT
BRANCH   1   7
ATOM      7  C   UNL     1       0.470  11.202  19.196  0.00  0.00    +0.000 C 
BRANCH   7  12
ATOM      8  N   UNL     1       2.141  13.080  19.585  0.00  0.00    +0.000 N 
ATOM      9  C   UNL     1       2.427  13.897  20.636  0.00  0.00    +0.000 A 
ATOM     10  N   UNL     1       1.659  13.593  21.655  0.00  0.00    +0.000 NA
ATOM     11  N   UNL     1       0.842  12.562  21.264  0.00  0.00    +0.000 NA
ATOM     12  C   UNL     1       1.134  12.251  20.015  0.00  0.00    +0.000 A 
BRANCH   8  14
ATOM     13  C   UNL     1       3.192  14.562  17.917  0.00  0.00    +0.000 C 
ATOM     14  C   UNL     1       2.772  13.149  18.286  0.00  0.00    +0.000 C 
ENDBRANCH   8  14
ENDBRANCH   7  12
ENDBRANCH   1   7
BRANCH   4  15
ATOM     15  C   UNL     1       3.012   7.215  18.133  0.00  0.00    +0.000 C 
BRANCH  15  16
ATOM     16  C   UNL     1       3.668   5.947  18.749  0.00  0.00    +0.000 C 
BRANCH  16  17
ATOM     17  C   UNL     1       2.631   4.935  19.234  0.00  0.00    +0.000 A 
ATOM     18  C   UNL     1       2.096   4.767  20.500  0.00  0.00    +0.000 A 
ATOM     19  C   UNL     1       1.134   3.722  20.559  0.00  0.00    +0.000 A 
ATOM     20  C   UNL     1       0.963   3.112  19.338  0.00  0.00    +0.000 A 
ATOM     21  S   UNL     1       1.966   3.794  18.133  0.00  0.00    +0.000 S 
ENDBRANCH  16  17
BRANCH  16  22
ATOM     22  N   UNL     1       4.694   5.278  17.903  0.00  0.00    +0.000 NA
ATOM     23  C   UNL     1       5.780   4.636  18.655  0.00  0.00    +0.000 C 
ATOM     24  C   UNL     1       6.903   5.656  18.716  0.00  0.00    +0.000 C 
ATOM     25  C   UNL     1       6.768   6.422  17.415  0.00  0.00    +0.000 C 
ATOM     26  C   UNL     1       5.359   6.133  16.911  0.00  0.00    +0.000 C 
ENDBRANCH  16  22
ENDBRANCH  15  16
ENDBRANCH   4  15
TORSDOF 7
ENDMDL
MODEL 9
REMARK VINA RESULT:      -6.8      1.934      3.666
REMARK  Name = 
REMARK  8 active torsions:
REMARK  status: ('A' for Active; 'I' for Inactive)
REMARK    1  A    between atoms: C_1  and  C_2
REMARK    2  A    between atoms: C_2  and  N_3
REMARK    3  A    between atoms: C_7  and  C_8
REMARK    4  A    between atoms: C_8  and  N_9
REMARK    5  A    between atoms: N_12  and  C_13
REMARK    6  A    between atoms: C_13  and  C_14
REMARK    7  A    between atoms: C_14  and  C_15
REMARK    8  A    between atoms: C_14  and  N_20
REMARK                            x       y       z     vdW  Elec       q    Type
REMARK                         _______ _______ _______ _____ _____    ______ ____
ROOT
ATOM      1  N   UNL     1       1.067   9.378  19.699  0.00  0.00    +0.000 N 
ATOM      2  C   UNL     1       1.784   8.915  18.637  0.00  0.00    +0.000 C 
ATOM      3  O   UNL     1       1.937   9.547  17.599  0.00  0.00    +0.000 OA
ATOM      4  N   UNL     1       2.341   7.684  18.873  0.00  0.00    +0.000 N 
ATOM      5  H   UNL     1       0.658   8.687  20.316  0.00  0.00    +0.000 HD
ATOM      6  H   UNL     1       2.430   7.403  19.840  0.00  0.00    +0.000 HD
ENDROOT
BRANCH   1   7
ATOM      7  C   UNL     1       0.347  10.628  19.581  0.00  0.00    +0.000 C 
BRANCH   7  12
ATOM      8  N   UNL     1      -1.001  12.058  21.195  0.00  0.00    +0.000 N 
ATOM      9  C   UNL     1      -1.169  12.068  22.547  0.00  0.00    +0.000 A 
ATOM     10  N   UNL     1      -0.434  11.128  23.091  0.00  0.00    +0.000 NA
ATOM     11  N   UNL     1       0.222  10.477  22.076  0.00  0.00    +0.000 NA
ATOM     12  C   UNL     1      -0.119  11.039  20.933  0.00  0.00    +0.000 A 
BRANCH   8  14
ATOM     13  C   UNL     1      -3.114  12.514  20.008  0.00  0.00    +0.000 C 
ATOM     14  C   UNL     1      -1.679  12.938  20.270  0.00  0.00    +0.000 C 
ENDBRANCH   8  14
ENDBRANCH   7  12
ENDBRANCH   1   7
BRANCH   4  15
ATOM     15  C   UNL     1       3.293   7.165  17.904  0.00  0.00    +0.000 C 
BRANCH  15  16
ATOM     16  C   UNL     1       4.019   5.840  18.272  0.00  0.00    +0.000 C 
BRANCH  16  17
ATOM     17  C   UNL     1       3.041   4.695  18.530  0.00  0.00    +0.000 A 
ATOM     18  C   UNL     1       2.112   4.127  17.675  0.00  0.00    +0.000 A 
ATOM     19  C   UNL     1       1.389   3.060  18.275  0.00  0.00    +0.000 A 
ATOM     20  C   UNL     1       1.776   2.846  19.578  0.00  0.00    +0.000 A 
ATOM     21  S   UNL     1       3.000   3.932  20.071  0.00  0.00    +0.000 S 
ENDBRANCH  16  17
BRANCH  16  22
ATOM     22  N   UNL     1       5.089   5.410  17.331  0.00  0.00    +0.000 NA
ATOM     23  C   UNL     1       6.130   4.569  17.935  0.00  0.00    +0.000 C 
ATOM     24  C   UNL     1       7.251   5.515  18.331  0.00  0.00    +0.000 C 
ATOM     25  C   UNL     1       7.188   6.608  17.284  0.00  0.00    +0.000 C 
ATOM     26  C   UNL     1       5.809   6.492  16.646  0.00  0.00    +0.000 C 
ENDBRANCH  16  22
ENDBRANCH  15  16
ENDBRANCH   4  15
TORSDOF 7
ENDMDL
