MODEL 1
REMARK VINA RESULT:      -7.6      0.000      0.000
REMARK  Name = 
REMARK  6 active torsions:
REMARK  status: ('A' for Active; 'I' for Inactive)
REMARK    1  A    between atoms: C_1  and  N_2
REMARK    2  A    between atoms: N_2  and  C_3
REMARK    3  A    between atoms: N_2  and  C_4
REMARK    4  A    between atoms: C_4  and  C_5
REMARK    5  A    between atoms: C_5  and  N_6
REMARK    6  A    between atoms: C_14  and  N_15
REMARK                            x       y       z     vdW  Elec       q    Type
REMARK                         _______ _______ _______ _____ _____    ______ ____
ROOT
ATOM      1  N   UNL     1       5.268   5.076  17.323  0.00  0.00    +0.000 N 
ATOM      2  C   UNL     1       4.717   4.301  18.334  0.00  0.00    +0.000 C 
ATOM      3  O   UNL     1       5.056   3.145  18.582  0.00  0.00    +0.000 OA
ATOM      4  C   UNL     1       3.632   4.916  19.134  0.00  0.00    +0.000 A 
ATOM      5  C   UNL     1       3.105   4.186  20.203  0.00  0.00    +0.000 A 
ATOM      6  C   UNL     1       2.062   4.710  20.939  0.00  0.00    +0.000 A 
ATOM      7  C   UNL     1       1.562   5.971  20.611  0.00  0.00    +0.000 A 
ATOM      8  C   UNL     1       2.128   6.796  19.605  0.00  0.00    +0.000 A 
ATOM      9  C   UNL     1       1.705   8.146  19.322  0.00  0.00    +0.000 A 
ATOM     10  C   UNL     1       2.284   8.789  18.209  0.00  0.00    +0.000 A 
ATOM     11  C   UNL     1       3.250   8.179  17.419  0.00  0.00    +0.000 A 
ATOM     12  C   UNL     1       3.695   6.903  17.740  0.00  0.00    +0.000 A 
ATOM     13  C   UNL     1       3.163   6.204  18.823  0.00  0.00    +0.000 A 
ATOM     14  C   UNL     1       4.760   6.300  16.907  0.00  0.00    +0.000 C 
ATOM     15  O   UNL     1       5.135   6.890  15.895  0.00  0.00    +0.000 OA
ENDROOT
BRANCH   9  16
ATOM     16  N   UNL     1       0.799   8.864  20.099  0.00  0.00    +0.000 N 
ATOM     17  C   UNL     1       0.538   8.545  21.517  0.00  0.00    +0.000 C 
ATOM     18  C   UNL     1       0.794   9.723  22.456  0.00  0.00    +0.000 C 
ATOM     19  S   UNL     1      -0.197  11.190  22.043  0.00  0.00    +0.000 S 
ATOM     20  C   UNL     1       0.277  11.295  20.285  0.00  0.00    +0.000 C 
ATOM     21  C   UNL     1       0.019   9.981  19.537  0.00  0.00    +0.000 C 
ENDBRANCH   9  16
BRANCH   1  22
ATOM     22  C   UNL     1       6.433   4.560  16.606  0.00  0.00    +0.000 C 
BRANCH  22  23
ATOM     23  C   UNL     1       6.038   3.714  15.373  0.00  0.00    +0.000 C 
BRANCH  23  25
ATOM     24  C   UNL     1       7.470   5.081  13.957  0.00  0.00    +0.000 C 
ATOM     25  N   UNL     1       6.172   4.417  14.077  0.00  0.00    +0.000 NA
ATOM     26  C   UNL     1       5.992   3.469  12.974  0.00  0.00    +0.000 C 
ENDBRANCH  23  25
ENDBRANCH  22  23
ENDBRANCH   1  22
TORSDOF 4
ENDMDL
MODEL 2
REMARK VINA RESULT:      -7.5      1.496      2.217
REMARK  Name = 
REMARK  6 active torsions:
REMARK  status: ('A' for Active; 'I' for Inactive)
REMARK    1  A    between atoms: C_1  and  N_2
REMARK    2  A    between atoms: N_2  and  C_3
REMARK    3  A    between atoms: N_2  and  C_4
REMARK    4  A    between atoms: C_4  and  C_5
REMARK    5  A    between atoms: C_5  and  N_6
REMARK    6  A    between atoms: C_14  and  N_15
REMARK                            x       y       z     vdW  Elec       q    Type
REMARK                         _______ _______ _______ _____ _____    ______ ____
ROOT
ATOM      1  N   UNL     1       4.936   5.166  17.512  0.00  0.00    +0.000 N 
ATOM      2  C   UNL     1       4.328   4.524  18.583  0.00  0.00    +0.000 C 
ATOM      3  O   UNL     1       4.587   3.375  18.937  0.00  0.00    +0.000 OA
ATOM      4  C   UNL     1       3.284   5.280  19.312  0.00  0.00    +0.000 A 
ATOM      5  C   UNL     1       2.703   4.685  20.436  0.00  0.00    +0.000 A 
ATOM      6  C   UNL     1       1.694   5.342  21.111  0.00  0.00    +0.000 A 
ATOM      7  C   UNL     1       1.282   6.599  20.666  0.00  0.00    +0.000 A 
ATOM      8  C   UNL     1       1.908   7.290  19.597  0.00  0.00    +0.000 A 
ATOM      9  C   UNL     1       1.579   8.635  19.189  0.00  0.00    +0.000 A 
ATOM     10  C   UNL     1       2.206   9.135  18.030  0.00  0.00    +0.000 A 
ATOM     11  C   UNL     1       3.132   8.393  17.308  0.00  0.00    +0.000 A 
ATOM     12  C   UNL     1       3.488   7.125  17.747  0.00  0.00    +0.000 A 
ATOM     13  C   UNL     1       2.905   6.563  18.882  0.00  0.00    +0.000 A 
ATOM     14  C   UNL     1       4.514   6.379  16.984  0.00  0.00    +0.000 C 
ATOM     15  O   UNL     1       4.933   6.849  15.927  0.00  0.00    +0.000 OA
ENDROOT
BRANCH   9  16
ATOM     16  N   UNL     1       0.720   9.479  19.889  0.00  0.00    +0.000 N 
ATOM     17  C   UNL     1       1.114  10.160  21.138  0.00  0.00    +0.000 C 
ATOM     18  C   UNL     1       0.983  11.681  21.062  0.00  0.00    +0.000 C 
ATOM     19  S   UNL     1      -0.704  12.228  20.660  0.00  0.00    +0.000 S 
ATOM     20  C   UNL     1      -0.921  11.211  19.162  0.00  0.00    +0.000 C 
ATOM     21  C   UNL     1      -0.660   9.724  19.431  0.00  0.00    +0.000 C 
ENDBRANCH   9  16
BRANCH   1  22
ATOM     22  C   UNL     1       6.067   4.511  16.858  0.00  0.00    +0.000 C 
BRANCH  22  23
ATOM     23  C   UNL     1       7.418   4.867  17.522  0.00  0.00    +0.000 C 
BRANCH  23  25
ATOM     24  C   UNL     1       8.064   5.592  19.754  0.00  0.00    +0.000 C 
ATOM     25  N   UNL     1       7.341   5.946  18.532  0.00  0.00    +0.000 NA
ATOM     26  C   UNL     1       7.880   7.190  17.975  0.00  0.00    +0.000 C 
ENDBRANCH  23  25
ENDBRANCH  22  23
ENDBRANCH   1  22
TORSDOF 4
ENDMDL
MODEL 3
REMARK VINA RESULT:      -7.4      0.747      1.091
REMARK  Name = 
REMARK  6 active torsions:
REMARK  status: ('A' for Active; 'I' for Inactive)
REMARK    1  A    between atoms: C_1  and  N_2
REMARK    2  A    between atoms: N_2  and  C_3
REMARK    3  A    between atoms: N_2  and  C_4
REMARK    4  A    between atoms: C_4  and  C_5
REMARK    5  A    between atoms: C_5  and  N_6
REMARK    6  A    between atoms: C_14  and  N_15
REMARK                            x       y       z     vdW  Elec       q    Type
REMARK                         _______ _______ _______ _____ _____    ______ ____
ROOT
ATOM      1  N   UNL     1       5.007   5.279  17.403  0.00  0.00    +0.000 N 
ATOM      2  C   UNL     1       4.427   4.602  18.467  0.00  0.00    +0.000 C 
ATOM      3  O   UNL     1       4.713   3.451  18.792  0.00  0.00    +0.000 OA
ATOM      4  C   UNL     1       3.378   5.321  19.227  0.00  0.00    +0.000 A 
ATOM      5  C   UNL     1       2.825   4.691  20.346  0.00  0.00    +0.000 A 
ATOM      6  C   UNL     1       1.813   5.313  21.048  0.00  0.00    +0.000 A 
ATOM      7  C   UNL     1       1.370   6.571  20.637  0.00  0.00    +0.000 A 
ATOM      8  C   UNL     1       1.968   7.297  19.575  0.00  0.00    +0.000 A 
ATOM      9  C   UNL     1       1.607   8.644  19.201  0.00  0.00    +0.000 A 
ATOM     10  C   UNL     1       2.208   9.181  18.045  0.00  0.00    +0.000 A 
ATOM     11  C   UNL     1       3.138   8.474  17.295  0.00  0.00    +0.000 A 
ATOM     12  C   UNL     1       3.525   7.203  17.700  0.00  0.00    +0.000 A 
ATOM     13  C   UNL     1       2.969   6.606  18.831  0.00  0.00    +0.000 A 
ATOM     14  C   UNL     1       4.554   6.494  16.907  0.00  0.00    +0.000 C 
ATOM     15  O   UNL     1       4.949   6.996  15.856  0.00  0.00    +0.000 OA
ENDROOT
BRANCH   9  16
ATOM     16  N   UNL     1       0.741   9.455  19.931  0.00  0.00    +0.000 N 
ATOM     17  C   UNL     1       1.150  10.144  21.171  0.00  0.00    +0.000 C 
ATOM     18  C   UNL     1       0.965  11.660  21.107  0.00  0.00    +0.000 C 
ATOM     19  S   UNL     1      -0.751  12.151  20.759  0.00  0.00    +0.000 S 
ATOM     20  C   UNL     1      -0.979  11.133  19.264  0.00  0.00    +0.000 C 
ATOM     21  C   UNL     1      -0.659   9.654  19.517  0.00  0.00    +0.000 C 
ENDBRANCH   9  16
BRANCH   1  22
ATOM     22  C   UNL     1       6.141   4.661  16.719  0.00  0.00    +0.000 C 
BRANCH  22  23
ATOM     23  C   UNL     1       5.698   3.755  15.546  0.00  0.00    +0.000 C 
BRANCH  23  25
ATOM     24  C   UNL     1       5.813   3.639  13.117  0.00  0.00    +0.000 C 
ATOM     25  N   UNL     1       6.574   3.821  14.354  0.00  0.00    +0.000 NA
ATOM     26  C   UNL     1       7.278   5.106  14.323  0.00  0.00    +0.000 C 
ENDBRANCH  23  25
ENDBRANCH  22  23
ENDBRANCH   1  22
TORSDOF 4
ENDMDL
MODEL 4
REMARK VINA RESULT:      -7.1      2.883      4.048
REMARK  Name = 
REMARK  6 active torsions:
REMARK  status: ('A' for Active; 'I' for Inactive)
REMARK    1  A    between atoms: C_1  and  N_2
REMARK    2  A    between atoms: N_2  and  C_3
REMARK    3  A    between atoms: N_2  and  C_4
REMARK    4  A    between atoms: C_4  and  C_5
REMARK    5  A    between atoms: C_5  and  N_6
REMARK    6  A    between atoms: C_14  and  N_15
REMARK                            x       y       z     vdW  Elec       q    Type
REMARK                         _______ _______ _______ _____ _____    ______ ____
ROOT
ATOM      1  N   UNL     1       3.015   6.089  19.221  0.00  0.00    +0.000 N 
ATOM      2  C   UNL     1       2.141   6.122  20.298  0.00  0.00    +0.000 C 
ATOM      3  O   UNL     1       1.938   5.173  21.053  0.00  0.00    +0.000 OA
ATOM      4  C   UNL     1       1.392   7.382  20.514  0.00  0.00    +0.000 A 
ATOM      5  C   UNL     1       0.556   7.469  21.631  0.00  0.00    +0.000 A 
ATOM      6  C   UNL     1      -0.191   8.611  21.837  0.00  0.00    +0.000 A 
ATOM      7  C   UNL     1      -0.085   9.668  20.932  0.00  0.00    +0.000 A 
ATOM      8  C   UNL     1       0.824   9.672  19.843  0.00  0.00    +0.000 A 
ATOM      9  C   UNL     1       1.037  10.794  18.960  0.00  0.00    +0.000 A 
ATOM     10  C   UNL     1       1.885  10.597  17.851  0.00  0.00    +0.000 A 
ATOM     11  C   UNL     1       2.528   9.389  17.613  0.00  0.00    +0.000 A 
ATOM     12  C   UNL     1       2.366   8.337  18.505  0.00  0.00    +0.000 A 
ATOM     13  C   UNL     1       1.538   8.457  19.621  0.00  0.00    +0.000 A 
ATOM     14  C   UNL     1       3.102   7.078  18.250  0.00  0.00    +0.000 C 
ATOM     15  O   UNL     1       3.739   6.960  17.204  0.00  0.00    +0.000 OA
ENDROOT
BRANCH   9  16
ATOM     16  N   UNL     1       0.495  12.061  19.158  0.00  0.00    +0.000 N 
ATOM     17  C   UNL     1      -0.823  12.458  18.623  0.00  0.00    +0.000 C 
ATOM     18  C   UNL     1      -1.794  12.934  19.703  0.00  0.00    +0.000 C 
ATOM     19  S   UNL     1      -1.155  14.342  20.660  0.00  0.00    +0.000 S 
ATOM     20  C   UNL     1       0.443  13.596  21.123  0.00  0.00    +0.000 C 
ATOM     21  C   UNL     1       1.227  13.103  19.901  0.00  0.00    +0.000 C 
ENDBRANCH   9  16
BRANCH   1  22
ATOM     22  C   UNL     1       3.875   4.918  19.057  0.00  0.00    +0.000 C 
BRANCH  22  23
ATOM     23  C   UNL     1       3.209   3.814  18.203  0.00  0.00    +0.000 C 
BRANCH  23  25
ATOM     24  C   UNL     1       4.123   2.411  19.970  0.00  0.00    +0.000 C 
ATOM     25  N   UNL     1       3.216   2.469  18.823  0.00  0.00    +0.000 NA
ATOM     26  C   UNL     1       1.860   2.104  19.238  0.00  0.00    +0.000 C 
ENDBRANCH  23  25
ENDBRANCH  22  23
ENDBRANCH   1  22
TORSDOF 4
ENDMDL
MODEL 5
REMARK VINA RESULT:      -7.0      2.243      3.706
REMARK  Name = 
REMARK  6 active torsions:
REMARK  status: ('A' for Active; 'I' for Inactive)
REMARK    1  A    between atoms: C_1  and  N_2
REMARK    2  A    between atoms: N_2  and  C_3
REMARK    3  A    between atoms: N_2  and  C_4
REMARK    4  A    between atoms: C_4  and  C_5
REMARK    5  A    between atoms: C_5  and  N_6
REMARK    6  A    between atoms: C_14  and  N_15
REMARK                            x       y       z     vdW  Elec       q    Type
REMARK                         _______ _______ _______ _____ _____    ______ ____
ROOT
ATOM      1  N   UNL     1       2.994   6.210  19.098  0.00  0.00    +0.000 N 
ATOM      2  C   UNL     1       2.159   6.205  20.207  0.00  0.00    +0.000 C 
ATOM      3  O   UNL     1       1.981   5.230  20.934  0.00  0.00    +0.000 OA
ATOM      4  C   UNL     1       1.422   7.458  20.496  0.00  0.00    +0.000 A 
ATOM      5  C   UNL     1       0.627   7.505  21.644  0.00  0.00    +0.000 A 
ATOM      6  C   UNL     1      -0.109   8.640  21.918  0.00  0.00    +0.000 A 
ATOM      7  C   UNL     1      -0.032   9.729  21.049  0.00  0.00    +0.000 A 
ATOM      8  C   UNL     1       0.838   9.772  19.929  0.00  0.00    +0.000 A 
ATOM      9  C   UNL     1       1.021  10.924  19.080  0.00  0.00    +0.000 A 
ATOM     10  C   UNL     1       1.828  10.766  17.935  0.00  0.00    +0.000 A 
ATOM     11  C   UNL     1       2.458   9.567  17.630  0.00  0.00    +0.000 A 
ATOM     12  C   UNL     1       2.325   8.483  18.489  0.00  0.00    +0.000 A 
ATOM     13  C   UNL     1       1.539   8.564  19.637  0.00  0.00    +0.000 A 
ATOM     14  C   UNL     1       3.049   7.234  18.162  0.00  0.00    +0.000 C 
ATOM     15  O   UNL     1       3.647   7.152  17.090  0.00  0.00    +0.000 OA
ENDROOT
BRANCH   9  16
ATOM     16  N   UNL     1       0.490  12.185  19.343  0.00  0.00    +0.000 N 
ATOM     17  C   UNL     1      -0.815  12.626  18.814  0.00  0.00    +0.000 C 
ATOM     18  C   UNL     1      -1.796  13.051  19.907  0.00  0.00    +0.000 C 
ATOM     19  S   UNL     1      -1.155  14.395  20.951  0.00  0.00    +0.000 S 
ATOM     20  C   UNL     1       0.428  13.604  21.392  0.00  0.00    +0.000 C 
ATOM     21  C   UNL     1       1.223  13.173  20.154  0.00  0.00    +0.000 C 
ENDBRANCH   9  16
BRANCH   1  22
ATOM     22  C   UNL     1       3.844   5.044  18.861  0.00  0.00    +0.000 C 
BRANCH  22  23
ATOM     23  C   UNL     1       5.280   5.244  19.399  0.00  0.00    +0.000 C 
BRANCH  23  25
ATOM     24  C   UNL     1       5.895   4.418  17.194  0.00  0.00    +0.000 C 
ATOM     25  N   UNL     1       6.338   4.617  18.574  0.00  0.00    +0.000 NA
ATOM     26  C   UNL     1       7.546   5.446  18.597  0.00  0.00    +0.000 C 
ENDBRANCH  23  25
ENDBRANCH  22  23
ENDBRANCH   1  22
TORSDOF 4
ENDMDL
MODEL 6
REMARK VINA RESULT:      -7.0      3.111      5.013
REMARK  Name = 
REMARK  6 active torsions:
REMARK  status: ('A' for Active; 'I' for Inactive)
REMARK    1  A    between atoms: C_1  and  N_2
REMARK    2  A    between atoms: N_2  and  C_3
REMARK    3  A    between atoms: N_2  and  C_4
REMARK    4  A    between atoms: C_4  and  C_5
REMARK    5  A    between atoms: C_5  and  N_6
REMARK    6  A    between atoms: C_14  and  N_15
REMARK                            x       y       z     vdW  Elec       q    Type
REMARK                         _______ _______ _______ _____ _____    ______ ____
ROOT
ATOM      1  N   UNL     1       2.366   6.464  19.158  0.00  0.00    +0.000 N 
ATOM      2  C   UNL     1       2.677   7.530  18.326  0.00  0.00    +0.000 C 
ATOM      3  O   UNL     1       3.434   7.456  17.360  0.00  0.00    +0.000 OA
ATOM      4  C   UNL     1       2.069   8.840  18.660  0.00  0.00    +0.000 A 
ATOM      5  C   UNL     1       2.308   9.916  17.801  0.00  0.00    +0.000 A 
ATOM      6  C   UNL     1       1.795  11.161  18.107  0.00  0.00    +0.000 A 
ATOM      7  C   UNL     1       1.031  11.318  19.265  0.00  0.00    +0.000 A 
ATOM      8  C   UNL     1       0.672  10.238  20.113  0.00  0.00    +0.000 A 
ATOM      9  C   UNL     1      -0.208  10.351  21.250  0.00  0.00    +0.000 A 
ATOM     10  C   UNL     1      -0.368   9.211  22.065  0.00  0.00    +0.000 A 
ATOM     11  C   UNL     1       0.263   8.006  21.787  0.00  0.00    +0.000 A 
ATOM     12  C   UNL     1       1.058   7.891  20.653  0.00  0.00    +0.000 A 
ATOM     13  C   UNL     1       1.265   8.978  19.805  0.00  0.00    +0.000 A 
ATOM     14  C   UNL     1       1.677   6.580  20.358  0.00  0.00    +0.000 C 
ATOM     15  O   UNL     1       1.568   5.669  21.177  0.00  0.00    +0.000 OA
ENDROOT
BRANCH   9  16
ATOM     16  N   UNL     1      -0.939  11.494  21.566  0.00  0.00    +0.000 N 
ATOM     17  C   UNL     1      -1.515  12.382  20.537  0.00  0.00    +0.000 C 
ATOM     18  C   UNL     1      -3.028  12.554  20.666  0.00  0.00    +0.000 C 
ATOM     19  S   UNL     1      -3.532  13.210  22.286  0.00  0.00    +0.000 S 
ATOM     20  C   UNL     1      -2.654  11.982  23.310  0.00  0.00    +0.000 C 
ATOM     21  C   UNL     1      -1.162  11.902  22.965  0.00  0.00    +0.000 C 
ENDBRANCH   9  16
BRANCH   1  22
ATOM     22  C   UNL     1       2.830   5.130  18.782  0.00  0.00    +0.000 C 
BRANCH  22  23
ATOM     23  C   UNL     1       1.922   4.469  17.718  0.00  0.00    +0.000 C 
BRANCH  23  25
ATOM     24  C   UNL     1       2.891   2.244  17.911  0.00  0.00    +0.000 C 
ATOM     25  N   UNL     1       1.657   3.030  17.944  0.00  0.00    +0.000 NA
ATOM     26  C   UNL     1       0.980   2.844  19.231  0.00  0.00    +0.000 C 
ENDBRANCH  23  25
ENDBRANCH  22  23
ENDBRANCH   1  22
TORSDOF 4
ENDMDL
MODEL 7
REMARK VINA RESULT:      -6.9      3.290      5.446
REMARK  Name = 
REMARK  6 active torsions:
REMARK  status: ('A' for Active; 'I' for Inactive)
REMARK    1  A    between atoms: C_1  and  N_2
REMARK    2  A    between atoms: N_2  and  C_3
REMARK    3  A    between atoms: N_2  and  C_4
REMARK    4  A    between atoms: C_4  and  C_5
REMARK    5  A    between atoms: C_5  and  N_6
REMARK    6  A    between atoms: C_14  and  N_15
REMARK                            x       y       z     vdW  Elec       q    Type
REMARK                         _______ _______ _______ _____ _____    ______ ____
ROOT
ATOM      1  N   UNL     1       1.985   8.205  19.313  0.00  0.00    +0.000 N 
ATOM      2  C   UNL     1       1.453   7.950  20.570  0.00  0.00    +0.000 C 
ATOM      3  O   UNL     1       1.562   6.877  21.161  0.00  0.00    +0.000 OA
ATOM      4  C   UNL     1       0.684   9.044  21.207  0.00  0.00    +0.000 A 
ATOM      5  C   UNL     1       0.196   8.840  22.501  0.00  0.00    +0.000 A 
ATOM      6  C   UNL     1      -0.564   9.821  23.105  0.00  0.00    +0.000 A 
ATOM      7  C   UNL     1      -0.818  11.009  22.418  0.00  0.00    +0.000 A 
ATOM      8  C   UNL     1      -0.260  11.307  21.148  0.00  0.00    +0.000 A 
ATOM      9  C   UNL     1      -0.413  12.569  20.465  0.00  0.00    +0.000 A 
ATOM     10  C   UNL     1       0.099  12.666  19.155  0.00  0.00    +0.000 A 
ATOM     11  C   UNL     1       0.757  11.611  18.535  0.00  0.00    +0.000 A 
ATOM     12  C   UNL     1       0.953  10.423  19.226  0.00  0.00    +0.000 A 
ATOM     13  C   UNL     1       0.469  10.253  20.523  0.00  0.00    +0.000 A 
ATOM     14  C   UNL     1       1.700   9.334  18.556  0.00  0.00    +0.000 C 
ATOM     15  O   UNL     1       2.021   9.468  17.376  0.00  0.00    +0.000 OA
ENDROOT
BRANCH   9  16
ATOM     16  N   UNL     1      -0.991  13.703  21.032  0.00  0.00    +0.000 N 
ATOM     17  C   UNL     1      -2.392  14.094  20.779  0.00  0.00    +0.000 C 
ATOM     18  C   UNL     1      -3.222  14.218  22.056  0.00  0.00    +0.000 C 
ATOM     19  S   UNL     1      -2.533  15.416  23.238  0.00  0.00    +0.000 S 
ATOM     20  C   UNL     1      -0.846  14.727  23.301  0.00  0.00    +0.000 C 
ATOM     21  C   UNL     1      -0.219  14.604  21.907  0.00  0.00    +0.000 C 
ENDBRANCH   9  16
BRANCH   1  22
ATOM     22  C   UNL     1       2.866   7.206  18.713  0.00  0.00    +0.000 C 
BRANCH  22  23
ATOM     23  C   UNL     1       2.082   6.024  18.096  0.00  0.00    +0.000 C 
BRANCH  23  25
ATOM     24  C   UNL     1       3.735   4.781  19.379  0.00  0.00    +0.000 C 
ATOM     25  N   UNL     1       2.570   4.686  18.498  0.00  0.00    +0.000 NA
ATOM     26  C   UNL     1       1.497   3.944  19.166  0.00  0.00    +0.000 C 
ENDBRANCH  23  25
ENDBRANCH  22  23
ENDBRANCH   1  22
TORSDOF 4
ENDMDL
MODEL 8
REMARK VINA RESULT:      -6.8      2.984      4.626
REMARK  Name = 
REMARK  6 active torsions:
REMARK  status: ('A' for Active; 'I' for Inactive)
REMARK    1  A    between atoms: C_1  and  N_2
REMARK    2  A    between atoms: N_2  and  C_3
REMARK    3  A    between atoms: N_2  and  C_4
REMARK    4  A    between atoms: C_4  and  C_5
REMARK    5  A    between atoms: C_5  and  N_6
REMARK    6  A    between atoms: C_14  and  N_15
REMARK                            x       y       z     vdW  Elec       q    Type
REMARK                         _______ _______ _______ _____ _____    ______ ____
ROOT
ATOM      1  N   UNL     1       2.617   6.047  19.148  0.00  0.00    +0.000 N 
ATOM      2  C   UNL     1       2.928   7.071  18.264  0.00  0.00    +0.000 C 
ATOM      3  O   UNL     1       3.703   6.954  17.316  0.00  0.00    +0.000 OA
ATOM      4  C   UNL     1       2.297   8.388  18.515  0.00  0.00    +0.000 A 
ATOM      5  C   UNL     1       2.538   9.419  17.602  0.00  0.00    +0.000 A 
ATOM      6  C   UNL     1       2.004  10.671  17.830  0.00  0.00    +0.000 A 
ATOM      7  C   UNL     1       1.218  10.881  18.964  0.00  0.00    +0.000 A 
ATOM      8  C   UNL     1       0.858   9.845  19.865  0.00  0.00    +0.000 A 
ATOM      9  C   UNL     1      -0.043  10.008  20.980  0.00  0.00    +0.000 A 
ATOM     10  C   UNL     1      -0.202   8.913  21.853  0.00  0.00    +0.000 A 
ATOM     11  C   UNL     1       0.449   7.702  21.652  0.00  0.00    +0.000 A 
ATOM     12  C   UNL     1       1.264   7.537  20.541  0.00  0.00    +0.000 A 
ATOM     13  C   UNL     1       1.473   8.578  19.637  0.00  0.00    +0.000 A 
ATOM     14  C   UNL     1       1.906   6.220  20.328  0.00  0.00    +0.000 C 
ATOM     15  O   UNL     1       1.794   5.354  21.195  0.00  0.00    +0.000 OA
ENDROOT
BRANCH   9  16
ATOM     16  N   UNL     1      -0.794  11.156  21.220  0.00  0.00    +0.000 N 
ATOM     17  C   UNL     1      -0.629  11.977  22.436  0.00  0.00    +0.000 C 
ATOM     18  C   UNL     1      -0.284  13.436  22.135  0.00  0.00    +0.000 C 
ATOM     19  S   UNL     1      -1.527  14.259  21.095  0.00  0.00    +0.000 S 
ATOM     20  C   UNL     1      -1.552  13.025  19.753  0.00  0.00    +0.000 C 
ATOM     21  C   UNL     1      -1.830  11.610  20.274  0.00  0.00    +0.000 C 
ENDBRANCH   9  16
BRANCH   1  22
ATOM     22  C   UNL     1       3.104   4.701  18.854  0.00  0.00    +0.000 C 
BRANCH  22  23
ATOM     23  C   UNL     1       2.241   3.982  17.791  0.00  0.00    +0.000 C 
BRANCH  23  25
ATOM     24  C   UNL     1       3.330   1.844  18.205  0.00  0.00    +0.000 C 
ATOM     25  N   UNL     1       2.051   2.533  18.032  0.00  0.00    +0.000 NA
ATOM     26  C   UNL     1       1.210   2.330  19.215  0.00  0.00    +0.000 C 
ENDBRANCH  23  25
ENDBRANCH  22  23
ENDBRANCH   1  22
TORSDOF 4
ENDMDL
MODEL 9
REMARK VINA RESULT:      -6.8      3.120      4.441
REMARK  Name = 
REMARK  6 active torsions:
REMARK  status: ('A' for Active; 'I' for Inactive)
REMARK    1  A    between atoms: C_1  and  N_2
REMARK    2  A    between atoms: N_2  and  C_3
REMARK    3  A    between atoms: N_2  and  C_4
REMARK    4  A    between atoms: C_4  and  C_5
REMARK    5  A    between atoms: C_5  and  N_6
REMARK    6  A    between atoms: C_14  and  N_15
REMARK                            x       y       z     vdW  Elec       q    Type
REMARK                         _______ _______ _______ _____ _____    ______ ____
ROOT
ATOM      1  N   UNL     1       2.550   6.532  19.049  0.00  0.00    +0.000 N 
ATOM      2  C   UNL     1       1.777   6.515  20.202  0.00  0.00    +0.000 C 
ATOM      3  O   UNL     1       1.539   5.504  20.860  0.00  0.00    +0.000 OA
ATOM      4  C   UNL     1       1.189   7.805  20.633  0.00  0.00    +0.000 A 
ATOM      5  C   UNL     1       0.463   7.832  21.828  0.00  0.00    +0.000 A 
ATOM      6  C   UNL     1      -0.138   9.006  22.235  0.00  0.00    +0.000 A 
ATOM      7  C   UNL     1       0.004  10.152  21.451  0.00  0.00    +0.000 A 
ATOM      8  C   UNL     1       0.814  10.204  20.287  0.00  0.00    +0.000 A 
ATOM      9  C   UNL     1       1.069  11.401  19.523  0.00  0.00    +0.000 A 
ATOM     10  C   UNL     1       1.795  11.263  18.322  0.00  0.00    +0.000 A 
ATOM     11  C   UNL     1       2.283  10.038  17.886  0.00  0.00    +0.000 A 
ATOM     12  C   UNL     1       2.085   8.903  18.663  0.00  0.00    +0.000 A 
ATOM     13  C   UNL     1       1.372   8.963  19.859  0.00  0.00    +0.000 A 
ATOM     14  C   UNL     1       2.660   7.622  18.195  0.00  0.00    +0.000 C 
ATOM     15  O   UNL     1       3.190   7.573  17.086  0.00  0.00    +0.000 OA
ENDROOT
BRANCH   9  16
ATOM     16  N   UNL     1       0.684  12.680  19.916  0.00  0.00    +0.000 N 
ATOM     17  C   UNL     1       1.467  13.489  20.872  0.00  0.00    +0.000 C 
ATOM     18  C   UNL     1       1.896  14.842  20.305  0.00  0.00    +0.000 C 
ATOM     19  S   UNL     1       0.492  15.861  19.760  0.00  0.00    +0.000 S 
ATOM     20  C   UNL     1      -0.285  14.616  18.678  0.00  0.00    +0.000 C 
ATOM     21  C   UNL     1      -0.556  13.299  19.415  0.00  0.00    +0.000 C 
ENDBRANCH   9  16
BRANCH   1  22
ATOM     22  C   UNL     1       3.263   5.314  18.670  0.00  0.00    +0.000 C 
BRANCH  22  23
ATOM     23  C   UNL     1       2.374   4.339  17.863  0.00  0.00    +0.000 C 
BRANCH  23  25
ATOM     24  C   UNL     1       3.330   2.774  19.463  0.00  0.00    +0.000 C 
ATOM     25  N   UNL     1       2.393   2.942  18.352  0.00  0.00    +0.000 NA
ATOM     26  C   UNL     1       1.047   2.541  18.769  0.00  0.00    +0.000 C 
ENDBRANCH  23  25
ENDBRANCH  22  23
ENDBRANCH   1  22
TORSDOF 4
ENDMDL
