MODEL 1
REMARK VINA RESULT:      -8.4      0.000      0.000
REMARK  Name = 
REMARK  7 active torsions:
REMARK  status: ('A' for Active; 'I' for Inactive)
REMARK    1  A    between atoms: N_4  and  C_5
REMARK    2  A    between atoms: C_5  and  C_6
REMARK    3  A    between atoms: C_5  and  C_19
REMARK    4  A    between atoms: C_6  and  C_7
REMARK    5  A    between atoms: N_9  and  C_10
REMARK    6  A    between atoms: C_10  and  C_11
REMARK    7  A    between atoms: C_11  and  C_12
REMARK                            x       y       z     vdW  Elec       q    Type
REMARK                         _______ _______ _______ _____ _____    ______ ____
ROOT
ATOM      1  C   UNL     1       5.152   4.407  18.812  0.00  0.00    +0.000 C 
ENDROOT
BRANCH   1   5
ATOM      2  N   UNL     1       3.891   0.985  18.467  0.00  0.00    +0.000 N 
ATOM      3  C   UNL     1       4.419   2.037  19.130  0.00  0.00    +0.000 C 
ATOM      4  O   UNL     1       4.800   1.901  20.284  0.00  0.00    +0.000 OA
ATOM      5  N   UNL     1       4.520   3.161  18.376  0.00  0.00    +0.000 N 
ATOM      6  H   UNL     1       3.746   0.181  19.063  0.00  0.00    +0.000 HD
ATOM      7  H   UNL     1       3.182   1.149  17.770  0.00  0.00    +0.000 HD
ATOM      8  H   UNL     1       3.989   3.198  17.519  0.00  0.00    +0.000 HD
ENDBRANCH   1   5
BRANCH   1   9
ATOM      9  C   UNL     1       4.144   5.553  18.755  0.00  0.00    +0.000 A 
ATOM     10  C   UNL     1       4.126   6.460  17.678  0.00  0.00    +0.000 A 
ATOM     11  C   UNL     1       3.206   7.510  17.653  0.00  0.00    +0.000 A 
ATOM     12  C   UNL     1       2.290   7.665  18.699  0.00  0.00    +0.000 A 
ATOM     13  C   UNL     1       2.291   6.772  19.763  0.00  0.00    +0.000 A 
ATOM     14  C   UNL     1       3.208   5.726  19.784  0.00  0.00    +0.000 A 
ENDBRANCH   1   9
BRANCH   1  15
ATOM     15  C   UNL     1       6.447   4.779  18.070  0.00  0.00    +0.000 C 
BRANCH  15  16
ATOM     16  C   UNL     1       7.317   5.742  18.853  0.00  0.00    +0.000 C 
ATOM     17  O   UNL     1       7.639   5.583  20.026  0.00  0.00    +0.000 OA
ATOM     18  N   UNL     1       7.666   6.867  18.127  0.00  0.00    +0.000 N 
ATOM     19  H   UNL     1       7.574   6.830  17.118  0.00  0.00    +0.000 HD
BRANCH  18  20
ATOM     20  C   UNL     1       8.483   7.901  18.734  0.00  0.00    +0.000 C 
BRANCH  20  21
ATOM     21  C   UNL     1       8.296   9.263  18.070  0.00  0.00    +0.000 C 
BRANCH  21  22
ATOM     22  C   UNL     1       9.206  10.317  18.657  0.00  0.00    +0.000 A 
ATOM     23  C   UNL     1      10.023  11.097  17.825  0.00  0.00    +0.000 A 
ATOM     24  C   UNL     1      10.867  12.066  18.371  0.00  0.00    +0.000 A 
ATOM     25  C   UNL     1      10.899  12.250  19.748  0.00  0.00    +0.000 A 
ATOM     26  F   UNL     1      11.707  13.181  20.271  0.00  0.00    +0.000 F 
ATOM     27  C   UNL     1      10.105  11.482  20.590  0.00  0.00    +0.000 A 
ATOM     28  C   UNL     1       9.260  10.513  20.046  0.00  0.00    +0.000 A 
ENDBRANCH  21  22
ENDBRANCH  20  21
ENDBRANCH  18  20
ENDBRANCH  15  16
ENDBRANCH   1  15
TORSDOF 7
ENDMDL
MODEL 2
REMARK VINA RESULT:      -7.8      3.414      4.940
REMARK  Name = 
REMARK  7 active torsions:
REMARK  status: ('A' for Active; 'I' for Inactive)
REMARK    1  A    between atoms: N_4  and  C_5
REMARK    2  A    between atoms: C_5  and  C_6
REMARK    3  A    between atoms: C_5  and  C_19
REMARK    4  A    between atoms: C_6  and  C_7
REMARK    5  A    between atoms: N_9  and  C_10
REMARK    6  A    between atoms: C_10  and  C_11
REMARK    7  A    between atoms: C_11  and  C_12
REMARK                            x       y       z     vdW  Elec       q    Type
REMARK                         _______ _______ _______ _____ _____    ______ ____
ROOT
ATOM      1  C   UNL     1       2.310   5.226  19.408  0.00  0.00    +0.000 C 
ENDROOT
BRANCH   1   5
ATOM      2  N   UNL     1       2.002   2.999  22.300  0.00  0.00    +0.000 N 
ATOM      3  C   UNL     1       2.525   3.424  21.129  0.00  0.00    +0.000 C 
ATOM      4  O   UNL     1       3.349   2.736  20.543  0.00  0.00    +0.000 OA
ATOM      5  N   UNL     1       2.002   4.598  20.693  0.00  0.00    +0.000 N 
ATOM      6  H   UNL     1       2.459   2.168  22.652  0.00  0.00    +0.000 HD
ATOM      7  H   UNL     1       1.731   3.679  22.992  0.00  0.00    +0.000 HD
ATOM      8  H   UNL     1       1.489   5.157  21.359  0.00  0.00    +0.000 HD
ENDBRANCH   1   5
BRANCH   1   9
ATOM      9  C   UNL     1       2.001   6.721  19.468  0.00  0.00    +0.000 A 
ATOM     10  C   UNL     1       1.552   7.329  20.656  0.00  0.00    +0.000 A 
ATOM     11  C   UNL     1       1.262   8.694  20.686  0.00  0.00    +0.000 A 
ATOM     12  C   UNL     1       1.420   9.470  19.533  0.00  0.00    +0.000 A 
ATOM     13  C   UNL     1       1.871   8.885  18.356  0.00  0.00    +0.000 A 
ATOM     14  C   UNL     1       2.161   7.524  18.331  0.00  0.00    +0.000 A 
ENDBRANCH   1   9
BRANCH   1  15
ATOM     15  C   UNL     1       1.640   4.578  18.184  0.00  0.00    +0.000 C 
BRANCH  15  16
ATOM     16  C   UNL     1       2.596   3.728  17.372  0.00  0.00    +0.000 C 
ATOM     17  O   UNL     1       2.244   2.867  16.572  0.00  0.00    +0.000 OA
ATOM     18  N   UNL     1       3.925   3.976  17.667  0.00  0.00    +0.000 N 
ATOM     19  H   UNL     1       4.153   4.840  18.145  0.00  0.00    +0.000 HD
BRANCH  18  20
ATOM     20  C   UNL     1       4.972   3.233  16.991  0.00  0.00    +0.000 C 
BRANCH  20  21
ATOM     21  C   UNL     1       5.839   4.121  16.100  0.00  0.00    +0.000 C 
BRANCH  21  22
ATOM     22  C   UNL     1       6.602   5.157  16.893  0.00  0.00    +0.000 A 
ATOM     23  C   UNL     1       7.380   4.778  17.997  0.00  0.00    +0.000 A 
ATOM     24  C   UNL     1       8.079   5.739  18.731  0.00  0.00    +0.000 A 
ATOM     25  C   UNL     1       7.996   7.076  18.364  0.00  0.00    +0.000 A 
ATOM     26  F   UNL     1       8.669   7.996  19.067  0.00  0.00    +0.000 F 
ATOM     27  C   UNL     1       7.224   7.473  17.280  0.00  0.00    +0.000 A 
ATOM     28  C   UNL     1       6.524   6.515  16.544  0.00  0.00    +0.000 A 
ENDBRANCH  21  22
ENDBRANCH  20  21
ENDBRANCH  18  20
ENDBRANCH  15  16
ENDBRANCH   1  15
TORSDOF 7
ENDMDL
MODEL 3
REMARK VINA RESULT:      -7.8      5.570      7.988
REMARK  Name = 
REMARK  7 active torsions:
REMARK  status: ('A' for Active; 'I' for Inactive)
REMARK    1  A    between atoms: N_4  and  C_5
REMARK    2  A    between atoms: C_5  and  C_6
REMARK    3  A    between atoms: C_5  and  C_19
REMARK    4  A    between atoms: C_6  and  C_7
REMARK    5  A    between atoms: N_9  and  C_10
REMARK    6  A    between atoms: C_10  and  C_11
REMARK    7  A    between atoms: C_11  and  C_12
REMARK                            x       y       z     vdW  Elec       q    Type
REMARK                         _______ _______ _______ _____ _____    ______ ____
ROOT
ATOM      1  C   UNL     1       5.217   4.902  17.840  0.00  0.00    +0.000 C 
ENDROOT
BRANCH   1   5
ATOM      2  N   UNL     1       8.096   5.345  20.060  0.00  0.00    +0.000 N 
ATOM      3  C   UNL     1       7.223   5.709  19.094  0.00  0.00    +0.000 C 
ATOM      4  O   UNL     1       7.407   6.741  18.464  0.00  0.00    +0.000 OA
ATOM      5  N   UNL     1       6.228   4.809  18.892  0.00  0.00    +0.000 N 
ATOM      6  H   UNL     1       8.783   6.062  20.255  0.00  0.00    +0.000 HD
ATOM      7  H   UNL     1       7.760   4.830  20.857  0.00  0.00    +0.000 HD
ATOM      8  H   UNL     1       6.076   4.112  19.607  0.00  0.00    +0.000 HD
ENDBRANCH   1   5
BRANCH   1   9
ATOM      9  C   UNL     1       3.827   4.665  18.427  0.00  0.00    +0.000 A 
ATOM     10  C   UNL     1       3.558   4.897  19.790  0.00  0.00    +0.000 A 
ATOM     11  C   UNL     1       2.284   4.659  20.310  0.00  0.00    +0.000 A 
ATOM     12  C   UNL     1       1.262   4.192  19.477  0.00  0.00    +0.000 A 
ATOM     13  C   UNL     1       1.511   3.967  18.129  0.00  0.00    +0.000 A 
ATOM     14  C   UNL     1       2.781   4.207  17.614  0.00  0.00    +0.000 A 
ENDBRANCH   1   9
BRANCH   1  15
ATOM     15  C   UNL     1       5.455   3.999  16.618  0.00  0.00    +0.000 C 
BRANCH  15  16
ATOM     16  C   UNL     1       6.724   4.348  15.867  0.00  0.00    +0.000 C 
ATOM     17  O   UNL     1       7.851   4.280  16.348  0.00  0.00    +0.000 OA
ATOM     18  N   UNL     1       6.484   4.819  14.589  0.00  0.00    +0.000 N 
ATOM     19  H   UNL     1       5.578   4.631  14.175  0.00  0.00    +0.000 HD
BRANCH  18  20
ATOM     20  C   UNL     1       7.591   5.216  13.739  0.00  0.00    +0.000 C 
BRANCH  20  21
ATOM     21  C   UNL     1       7.263   5.094  12.252  0.00  0.00    +0.000 C 
BRANCH  21  22
ATOM     22  C   UNL     1       6.830   3.696  11.875  0.00  0.00    +0.000 A 
ATOM     23  C   UNL     1       7.774   2.743  11.465  0.00  0.00    +0.000 A 
ATOM     24  C   UNL     1       7.370   1.454  11.112  0.00  0.00    +0.000 A 
ATOM     25  C   UNL     1       6.022   1.120  11.164  0.00  0.00    +0.000 A 
ATOM     26  F   UNL     1       5.636  -0.117  10.827  0.00  0.00    +0.000 F 
ATOM     27  C   UNL     1       5.070   2.051  11.559  0.00  0.00    +0.000 A 
ATOM     28  C   UNL     1       5.472   3.341  11.913  0.00  0.00    +0.000 A 
ENDBRANCH  21  22
ENDBRANCH  20  21
ENDBRANCH  18  20
ENDBRANCH  15  16
ENDBRANCH   1  15
TORSDOF 7
ENDMDL
MODEL 4
REMARK VINA RESULT:      -7.8      6.830      9.539
REMARK  Name = 
REMARK  7 active torsions:
REMARK  status: ('A' for Active; 'I' for Inactive)
REMARK    1  A    between atoms: N_4  and  C_5
REMARK    2  A    between atoms: C_5  and  C_6
REMARK    3  A    between atoms: C_5  and  C_19
REMARK    4  A    between atoms: C_6  and  C_7
REMARK    5  A    between atoms: N_9  and  C_10
REMARK    6  A    between atoms: C_10  and  C_11
REMARK    7  A    between atoms: C_11  and  C_12
REMARK                            x       y       z     vdW  Elec       q    Type
REMARK                         _______ _______ _______ _____ _____    ______ ____
ROOT
ATOM      1  C   UNL     1      -0.234  10.478  18.900  0.00  0.00    +0.000 C 
ENDROOT
BRANCH   1   5
ATOM      2  N   UNL     1       2.655  12.354  17.656  0.00  0.00    +0.000 N 
ATOM      3  C   UNL     1       1.923  11.243  17.892  0.00  0.00    +0.000 C 
ATOM      4  O   UNL     1       2.395  10.140  17.656  0.00  0.00    +0.000 OA
ATOM      5  N   UNL     1       0.710  11.499  18.445  0.00  0.00    +0.000 N 
ATOM      6  H   UNL     1       3.520  12.154  17.169  0.00  0.00    +0.000 HD
ATOM      7  H   UNL     1       2.186  13.204  17.388  0.00  0.00    +0.000 HD
ATOM      8  H   UNL     1       0.365  12.446  18.399  0.00  0.00    +0.000 HD
ENDBRANCH   1   5
BRANCH   1   9
ATOM      9  C   UNL     1      -1.569  10.640  18.176  0.00  0.00    +0.000 A 
ATOM     10  C   UNL     1      -2.498  11.625  18.565  0.00  0.00    +0.000 A 
ATOM     11  C   UNL     1      -3.719  11.747  17.900  0.00  0.00    +0.000 A 
ATOM     12  C   UNL     1      -4.028  10.892  16.836  0.00  0.00    +0.000 A 
ATOM     13  C   UNL     1      -3.117   9.922  16.436  0.00  0.00    +0.000 A 
ATOM     14  C   UNL     1      -1.900   9.805  17.101  0.00  0.00    +0.000 A 
ENDBRANCH   1   9
BRANCH   1  15
ATOM     15  C   UNL     1      -0.441  10.406  20.422  0.00  0.00    +0.000 C 
BRANCH  15  16
ATOM     16  C   UNL     1       0.244   9.212  21.054  0.00  0.00    +0.000 C 
ATOM     17  O   UNL     1       0.050   8.835  22.205  0.00  0.00    +0.000 OA
ATOM     18  N   UNL     1       1.170   8.615  20.218  0.00  0.00    +0.000 N 
ATOM     19  H   UNL     1       1.115   8.816  19.226  0.00  0.00    +0.000 HD
BRANCH  18  20
ATOM     20  C   UNL     1       1.931   7.467  20.675  0.00  0.00    +0.000 C 
BRANCH  20  21
ATOM     21  C   UNL     1       2.680   6.770  19.541  0.00  0.00    +0.000 C 
BRANCH  21  22
ATOM     22  C   UNL     1       2.143   5.384  19.268  0.00  0.00    +0.000 A 
ATOM     23  C   UNL     1       2.378   4.759  18.033  0.00  0.00    +0.000 A 
ATOM     24  C   UNL     1       1.876   3.481  17.782  0.00  0.00    +0.000 A 
ATOM     25  C   UNL     1       1.135   2.831  18.761  0.00  0.00    +0.000 A 
ATOM     26  F   UNL     1       0.656   1.604  18.520  0.00  0.00    +0.000 F 
ATOM     27  C   UNL     1       0.883   3.435  19.986  0.00  0.00    +0.000 A 
ATOM     28  C   UNL     1       1.385   4.713  20.240  0.00  0.00    +0.000 A 
ENDBRANCH  21  22
ENDBRANCH  20  21
ENDBRANCH  18  20
ENDBRANCH  15  16
ENDBRANCH   1  15
TORSDOF 7
ENDMDL
MODEL 5
REMARK VINA RESULT:      -7.7      5.195      7.001
REMARK  Name = 
REMARK  7 active torsions:
REMARK  status: ('A' for Active; 'I' for Inactive)
REMARK    1  A    between atoms: N_4  and  C_5
REMARK    2  A    between atoms: C_5  and  C_6
REMARK    3  A    between atoms: C_5  and  C_19
REMARK    4  A    between atoms: C_6  and  C_7
REMARK    5  A    between atoms: N_9  and  C_10
REMARK    6  A    between atoms: C_10  and  C_11
REMARK    7  A    between atoms: C_11  and  C_12
REMARK                            x       y       z     vdW  Elec       q    Type
REMARK                         _______ _______ _______ _____ _____    ______ ____
ROOT
ATOM      1  C   UNL     1       3.190   3.870  18.353  0.00  0.00    +0.000 C 
ENDROOT
BRANCH   1   5
ATOM      2  N   UNL     1       2.533   2.903  21.824  0.00  0.00    +0.000 N 
ATOM      3  C   UNL     1       2.349   2.872  20.485  0.00  0.00    +0.000 C 
ATOM      4  O   UNL     1       1.419   2.234  20.013  0.00  0.00    +0.000 OA
ATOM      5  N   UNL     1       3.231   3.639  19.797  0.00  0.00    +0.000 N 
ATOM      6  H   UNL     1       1.922   2.264  22.316  0.00  0.00    +0.000 HD
ATOM      7  H   UNL     1       3.468   2.988  22.189  0.00  0.00    +0.000 HD
ATOM      8  H   UNL     1       4.062   3.945  20.281  0.00  0.00    +0.000 HD
ENDBRANCH   1   5
BRANCH   1   9
ATOM      9  C   UNL     1       4.601   4.114  17.821  0.00  0.00    +0.000 A 
ATOM     10  C   UNL     1       5.650   4.499  18.678  0.00  0.00    +0.000 A 
ATOM     11  C   UNL     1       6.929   4.732  18.169  0.00  0.00    +0.000 A 
ATOM     12  C   UNL     1       7.179   4.580  16.801  0.00  0.00    +0.000 A 
ATOM     13  C   UNL     1       6.155   4.193  15.945  0.00  0.00    +0.000 A 
ATOM     14  C   UNL     1       4.882   3.959  16.457  0.00  0.00    +0.000 A 
ENDBRANCH   1   9
BRANCH   1  15
ATOM     15  C   UNL     1       2.232   4.981  17.893  0.00  0.00    +0.000 C 
BRANCH  15  16
ATOM     16  C   UNL     1       2.495   6.306  18.579  0.00  0.00    +0.000 C 
ATOM     17  O   UNL     1       2.899   6.418  19.732  0.00  0.00    +0.000 OA
ATOM     18  N   UNL     1       2.170   7.397  17.792  0.00  0.00    +0.000 N 
ATOM     19  H   UNL     1       2.071   7.251  16.794  0.00  0.00    +0.000 HD
BRANCH  18  20
ATOM     20  C   UNL     1       2.343   8.743  18.305  0.00  0.00    +0.000 C 
BRANCH  20  21
ATOM     21  C   UNL     1       1.045   9.547  18.295  0.00  0.00    +0.000 C 
BRANCH  21  22
ATOM     22  C   UNL     1       0.517   9.800  19.689  0.00  0.00    +0.000 A 
ATOM     23  C   UNL     1      -0.280  10.923  19.956  0.00  0.00    +0.000 A 
ATOM     24  C   UNL     1      -0.761  11.156  21.246  0.00  0.00    +0.000 A 
ATOM     25  C   UNL     1      -0.440  10.272  22.268  0.00  0.00    +0.000 A 
ATOM     26  F   UNL     1      -0.904  10.495  23.504  0.00  0.00    +0.000 F 
ATOM     27  C   UNL     1       0.355   9.159  22.026  0.00  0.00    +0.000 A 
ATOM     28  C   UNL     1       0.837   8.923  20.737  0.00  0.00    +0.000 A 
ENDBRANCH  21  22
ENDBRANCH  20  21
ENDBRANCH  18  20
ENDBRANCH  15  16
ENDBRANCH   1  15
TORSDOF 7
ENDMDL
MODEL 6
REMARK VINA RESULT:      -7.7      2.363      3.519
REMARK  Name = 
REMARK  7 active torsions:
REMARK  status: ('A' for Active; 'I' for Inactive)
REMARK    1  A    between atoms: N_4  and  C_5
REMARK    2  A    between atoms: C_5  and  C_6
REMARK    3  A    between atoms: C_5  and  C_19
REMARK    4  A    between atoms: C_6  and  C_7
REMARK    5  A    between atoms: N_9  and  C_10
REMARK    6  A    between atoms: C_10  and  C_11
REMARK    7  A    between atoms: C_11  and  C_12
REMARK                            x       y       z     vdW  Elec       q    Type
REMARK                         _______ _______ _______ _____ _____    ______ ____
ROOT
ATOM      1  C   UNL     1       6.253   5.025  17.595  0.00  0.00    +0.000 C 
ENDROOT
BRANCH   1   5
ATOM      2  N   UNL     1       4.909   2.486  19.867  0.00  0.00    +0.000 N 
ATOM      3  C   UNL     1       4.891   3.646  19.174  0.00  0.00    +0.000 C 
ATOM      4  O   UNL     1       3.981   4.446  19.347  0.00  0.00    +0.000 OA
ATOM      5  N   UNL     1       5.969   3.817  18.369  0.00  0.00    +0.000 N 
ATOM      6  H   UNL     1       4.061   2.336  20.398  0.00  0.00    +0.000 HD
ATOM      7  H   UNL     1       5.314   1.667  19.444  0.00  0.00    +0.000 HD
ATOM      8  H   UNL     1       6.534   3.005  18.166  0.00  0.00    +0.000 HD
ENDBRANCH   1   5
BRANCH   1   9
ATOM      9  C   UNL     1       6.270   4.698  16.103  0.00  0.00    +0.000 A 
ATOM     10  C   UNL     1       7.408   4.947  15.311  0.00  0.00    +0.000 A 
ATOM     11  C   UNL     1       7.398   4.654  13.946  0.00  0.00    +0.000 A 
ATOM     12  C   UNL     1       6.255   4.106  13.355  0.00  0.00    +0.000 A 
ATOM     13  C   UNL     1       5.128   3.847  14.125  0.00  0.00    +0.000 A 
ATOM     14  C   UNL     1       5.143   4.138  15.486  0.00  0.00    +0.000 A 
ENDBRANCH   1   9
BRANCH   1  15
ATOM     15  C   UNL     1       7.527   5.783  18.004  0.00  0.00    +0.000 C 
BRANCH  15  16
ATOM     16  C   UNL     1       7.422   7.277  17.775  0.00  0.00    +0.000 C 
ATOM     17  O   UNL     1       6.574   7.808  17.064  0.00  0.00    +0.000 OA
ATOM     18  N   UNL     1       8.426   7.992  18.402  0.00  0.00    +0.000 N 
ATOM     19  H   UNL     1       8.940   7.537  19.148  0.00  0.00    +0.000 HD
BRANCH  18  20
ATOM     20  C   UNL     1       8.484   9.436  18.270  0.00  0.00    +0.000 C 
BRANCH  20  21
ATOM     21  C   UNL     1       9.238  10.101  19.420  0.00  0.00    +0.000 C 
BRANCH  21  22
ATOM     22  C   UNL     1       9.898  11.394  19.001  0.00  0.00    +0.000 A 
ATOM     23  C   UNL     1       9.907  12.502  19.862  0.00  0.00    +0.000 A 
ATOM     24  C   UNL     1      10.513  13.697  19.468  0.00  0.00    +0.000 A 
ATOM     25  C   UNL     1      11.102  13.787  18.214  0.00  0.00    +0.000 A 
ATOM     26  F   UNL     1      11.684  14.932  17.839  0.00  0.00    +0.000 F 
ATOM     27  C   UNL     1      11.096  12.705  17.343  0.00  0.00    +0.000 A 
ATOM     28  C   UNL     1      10.492  11.508  17.733  0.00  0.00    +0.000 A 
ENDBRANCH  21  22
ENDBRANCH  20  21
ENDBRANCH  18  20
ENDBRANCH  15  16
ENDBRANCH   1  15
TORSDOF 7
ENDMDL
MODEL 7
REMARK VINA RESULT:      -7.6      4.705      6.775
REMARK  Name = 
REMARK  7 active torsions:
REMARK  status: ('A' for Active; 'I' for Inactive)
REMARK    1  A    between atoms: N_4  and  C_5
REMARK    2  A    between atoms: C_5  and  C_6
REMARK    3  A    between atoms: C_5  and  C_19
REMARK    4  A    between atoms: C_6  and  C_7
REMARK    5  A    between atoms: N_9  and  C_10
REMARK    6  A    between atoms: C_10  and  C_11
REMARK    7  A    between atoms: C_11  and  C_12
REMARK                            x       y       z     vdW  Elec       q    Type
REMARK                         _______ _______ _______ _____ _____    ______ ____
ROOT
ATOM      1  C   UNL     1       2.227   6.402  18.799  0.00  0.00    +0.000 C 
ENDROOT
BRANCH   1   5
ATOM      2  N   UNL     1       1.868   8.402  21.846  0.00  0.00    +0.000 N 
ATOM      3  C   UNL     1       1.654   8.094  20.548  0.00  0.00    +0.000 C 
ATOM      4  O   UNL     1       1.051   8.877  19.827  0.00  0.00    +0.000 OA
ATOM      5  N   UNL     1       2.213   6.918  20.168  0.00  0.00    +0.000 N 
ATOM      6  H   UNL     1       1.376   9.238  22.134  0.00  0.00    +0.000 HD
ATOM      7  H   UNL     1       1.910   7.660  22.526  0.00  0.00    +0.000 HD
ATOM      8  H   UNL     1       2.502   6.281  20.895  0.00  0.00    +0.000 HD
ENDBRANCH   1   5
BRANCH   1   9
ATOM      9  C   UNL     1       2.009   4.890  18.808  0.00  0.00    +0.000 A 
ATOM     10  C   UNL     1       1.452   4.237  19.924  0.00  0.00    +0.000 A 
ATOM     11  C   UNL     1       1.275   2.852  19.917  0.00  0.00    +0.000 A 
ATOM     12  C   UNL     1       1.648   2.102  18.797  0.00  0.00    +0.000 A 
ATOM     13  C   UNL     1       2.191   2.735  17.685  0.00  0.00    +0.000 A 
ATOM     14  C   UNL     1       2.364   4.115  17.695  0.00  0.00    +0.000 A 
ENDBRANCH   1   9
BRANCH   1  15
ATOM     15  C   UNL     1       3.469   6.770  17.970  0.00  0.00    +0.000 C 
BRANCH  15  16
ATOM     16  C   UNL     1       4.751   6.204  18.546  0.00  0.00    +0.000 C 
ATOM     17  O   UNL     1       4.817   5.583  19.603  0.00  0.00    +0.000 OA
ATOM     18  N   UNL     1       5.867   6.511  17.789  0.00  0.00    +0.000 N 
ATOM     19  H   UNL     1       5.724   6.810  16.831  0.00  0.00    +0.000 HD
BRANCH  18  20
ATOM     20  C   UNL     1       7.180   6.060  18.210  0.00  0.00    +0.000 C 
BRANCH  20  21
ATOM     21  C   UNL     1       7.534   4.683  17.652  0.00  0.00    +0.000 C 
BRANCH  21  22
ATOM     22  C   UNL     1       6.932   4.446  16.287  0.00  0.00    +0.000 A 
ATOM     23  C   UNL     1       5.775   3.665  16.143  0.00  0.00    +0.000 A 
ATOM     24  C   UNL     1       5.225   3.444  14.879  0.00  0.00    +0.000 A 
ATOM     25  C   UNL     1       5.833   3.998  13.759  0.00  0.00    +0.000 A 
ATOM     26  F   UNL     1       5.303   3.787  12.549  0.00  0.00    +0.000 F 
ATOM     27  C   UNL     1       6.984   4.766  13.879  0.00  0.00    +0.000 A 
ATOM     28  C   UNL     1       7.536   4.990  15.142  0.00  0.00    +0.000 A 
ENDBRANCH  21  22
ENDBRANCH  20  21
ENDBRANCH  18  20
ENDBRANCH  15  16
ENDBRANCH   1  15
TORSDOF 7
ENDMDL
MODEL 8
REMARK VINA RESULT:      -7.6      5.271      7.524
REMARK  Name = 
REMARK  7 active torsions:
REMARK  status: ('A' for Active; 'I' for Inactive)
REMARK    1  A    between atoms: N_4  and  C_5
REMARK    2  A    between atoms: C_5  and  C_6
REMARK    3  A    between atoms: C_5  and  C_19
REMARK    4  A    between atoms: C_6  and  C_7
REMARK    5  A    between atoms: N_9  and  C_10
REMARK    6  A    between atoms: C_10  and  C_11
REMARK    7  A    between atoms: C_11  and  C_12
REMARK                            x       y       z     vdW  Elec       q    Type
REMARK                         _______ _______ _______ _____ _____    ______ ____
ROOT
ATOM      1  C   UNL     1       3.614   5.724  18.669  0.00  0.00    +0.000 C 
ENDROOT
BRANCH   1   5
ATOM      2  N   UNL     1       6.866   4.312  17.749  0.00  0.00    +0.000 N 
ATOM      3  C   UNL     1       5.944   4.821  18.597  0.00  0.00    +0.000 C 
ATOM      4  O   UNL     1       6.248   5.056  19.758  0.00  0.00    +0.000 OA
ATOM      5  N   UNL     1       4.747   5.075  18.011  0.00  0.00    +0.000 N 
ATOM      6  H   UNL     1       7.724   4.052  18.218  0.00  0.00    +0.000 HD
ATOM      7  H   UNL     1       6.566   3.700  17.007  0.00  0.00    +0.000 HD
ATOM      8  H   UNL     1       4.567   4.650  17.113  0.00  0.00    +0.000 HD
ENDBRANCH   1   5
BRANCH   1   9
ATOM      9  C   UNL     1       2.682   4.672  19.266  0.00  0.00    +0.000 A 
ATOM     10  C   UNL     1       2.470   4.584  20.656  0.00  0.00    +0.000 A 
ATOM     11  C   UNL     1       1.625   3.605  21.181  0.00  0.00    +0.000 A 
ATOM     12  C   UNL     1       0.978   2.704  20.329  0.00  0.00    +0.000 A 
ATOM     13  C   UNL     1       1.172   2.784  18.955  0.00  0.00    +0.000 A 
ATOM     14  C   UNL     1       2.013   3.763  18.435  0.00  0.00    +0.000 A 
ENDBRANCH   1   9
BRANCH   1  15
ATOM     15  C   UNL     1       2.829   6.719  17.797  0.00  0.00    +0.000 C 
BRANCH  15  16
ATOM     16  C   UNL     1       2.297   7.899  18.583  0.00  0.00    +0.000 C 
ATOM     17  O   UNL     1       2.085   7.884  19.792  0.00  0.00    +0.000 OA
ATOM     18  N   UNL     1       2.008   8.993  17.788  0.00  0.00    +0.000 N 
ATOM     19  H   UNL     1       2.417   9.029  16.861  0.00  0.00    +0.000 HD
BRANCH  18  20
ATOM     20  C   UNL     1       1.471  10.204  18.380  0.00  0.00    +0.000 C 
BRANCH  20  21
ATOM     21  C   UNL     1      -0.051  10.176  18.495  0.00  0.00    +0.000 C 
BRANCH  21  22
ATOM     22  C   UNL     1      -0.534  10.691  19.831  0.00  0.00    +0.000 A 
ATOM     23  C   UNL     1      -1.409  11.786  19.900  0.00  0.00    +0.000 A 
ATOM     24  C   UNL     1      -1.848  12.262  21.137  0.00  0.00    +0.000 A 
ATOM     25  C   UNL     1      -1.410  11.648  22.304  0.00  0.00    +0.000 A 
ATOM     26  F   UNL     1      -1.834  12.103  23.489  0.00  0.00    +0.000 F 
ATOM     27  C   UNL     1      -0.537  10.568  22.258  0.00  0.00    +0.000 A 
ATOM     28  C   UNL     1      -0.096  10.090  21.022  0.00  0.00    +0.000 A 
ENDBRANCH  21  22
ENDBRANCH  20  21
ENDBRANCH  18  20
ENDBRANCH  15  16
ENDBRANCH   1  15
TORSDOF 7
ENDMDL
MODEL 9
REMARK VINA RESULT:      -7.6      0.744      1.235
REMARK  Name = 
REMARK  7 active torsions:
REMARK  status: ('A' for Active; 'I' for Inactive)
REMARK    1  A    between atoms: N_4  and  C_5
REMARK    2  A    between atoms: C_5  and  C_6
REMARK    3  A    between atoms: C_5  and  C_19
REMARK    4  A    between atoms: C_6  and  C_7
REMARK    5  A    between atoms: N_9  and  C_10
REMARK    6  A    between atoms: C_10  and  C_11
REMARK    7  A    between atoms: C_11  and  C_12
REMARK                            x       y       z     vdW  Elec       q    Type
REMARK                         _______ _______ _______ _____ _____    ______ ____
ROOT
ATOM      1  C   UNL     1       4.483   4.778  18.600  0.00  0.00    +0.000 C 
ENDROOT
BRANCH   1   5
ATOM      2  N   UNL     1       2.628   1.624  18.437  0.00  0.00    +0.000 N 
ATOM      3  C   UNL     1       3.277   2.636  19.055  0.00  0.00    +0.000 C 
ATOM      4  O   UNL     1       3.502   2.573  20.256  0.00  0.00    +0.000 OA
ATOM      5  N   UNL     1       3.671   3.624  18.213  0.00  0.00    +0.000 N 
ATOM      6  H   UNL     1       2.269   0.937  19.087  0.00  0.00    +0.000 HD
ATOM      7  H   UNL     1       2.041   1.829  17.644  0.00  0.00    +0.000 HD
ATOM      8  H   UNL     1       3.250   3.653  17.296  0.00  0.00    +0.000 HD
ENDBRANCH   1   5
BRANCH   1   9
ATOM      9  C   UNL     1       3.623   6.041  18.616  0.00  0.00    +0.000 A 
ATOM     10  C   UNL     1       2.810   6.359  19.721  0.00  0.00    +0.000 A 
ATOM     11  C   UNL     1       2.020   7.510  19.709  0.00  0.00    +0.000 A 
ATOM     12  C   UNL     1       2.035   8.360  18.599  0.00  0.00    +0.000 A 
ATOM     13  C   UNL     1       2.840   8.063  17.506  0.00  0.00    +0.000 A 
ATOM     14  C   UNL     1       3.627   6.916  17.522  0.00  0.00    +0.000 A 
ENDBRANCH   1   9
BRANCH   1  15
ATOM     15  C   UNL     1       5.756   4.995  17.764  0.00  0.00    +0.000 C 
BRANCH  15  16
ATOM     16  C   UNL     1       6.809   5.802  18.495  0.00  0.00    +0.000 C 
ATOM     17  O   UNL     1       7.252   5.517  19.604  0.00  0.00    +0.000 OA
ATOM     18  N   UNL     1       7.185   6.945  17.812  0.00  0.00    +0.000 N 
ATOM     19  H   UNL     1       6.970   7.000  16.823  0.00  0.00    +0.000 HD
BRANCH  18  20
ATOM     20  C   UNL     1       8.173   7.843  18.382  0.00  0.00    +0.000 C 
BRANCH  20  21
ATOM     21  C   UNL     1       8.134   9.233  17.753  0.00  0.00    +0.000 C 
BRANCH  21  22
ATOM     22  C   UNL     1       9.039  10.211  18.466  0.00  0.00    +0.000 A 
ATOM     23  C   UNL     1       9.798  11.141  17.740  0.00  0.00    +0.000 A 
ATOM     24  C   UNL     1      10.638  12.038  18.403  0.00  0.00    +0.000 A 
ATOM     25  C   UNL     1      10.723  12.002  19.789  0.00  0.00    +0.000 A 
ATOM     26  F   UNL     1      11.527  12.864  20.424  0.00  0.00    +0.000 F 
ATOM     27  C   UNL     1       9.987  11.082  20.526  0.00  0.00    +0.000 A 
ATOM     28  C   UNL     1       9.146  10.184  19.866  0.00  0.00    +0.000 A 
ENDBRANCH  21  22
ENDBRANCH  20  21
ENDBRANCH  18  20
ENDBRANCH  15  16
ENDBRANCH   1  15
TORSDOF 7
ENDMDL
