MODEL 1
REMARK VINA RESULT:      -6.4      0.000      0.000
REMARK  Name = 
REMARK  2 active torsions:
REMARK  status: ('A' for Active; 'I' for Inactive)
REMARK    1  A    between atoms: C_4  and  C_5
REMARK    2  A    between atoms: C_5  and  C_6
REMARK                            x       y       z     vdW  Elec       q    Type
REMARK                         _______ _______ _______ _____ _____    ______ ____
ROOT
ATOM      1  C   UNL     1       3.706   6.402  17.834  0.00  0.00    +0.000 C 
ENDROOT
BRANCH   1   5
ATOM      2  C   UNL     1       1.011   3.628  19.754  0.00  0.00    +0.000 A 
ATOM      3  C   UNL     1       1.574   4.672  20.485  0.00  0.00    +0.000 A 
ATOM      4  C   UNL     1       2.448   5.566  19.865  0.00  0.00    +0.000 A 
ATOM      5  C   UNL     1       2.766   5.428  18.505  0.00  0.00    +0.000 A 
ATOM      6  C   UNL     1       2.203   4.365  17.785  0.00  0.00    +0.000 A 
ATOM      7  C   UNL     1       1.326   3.471  18.407  0.00  0.00    +0.000 A 
ENDBRANCH   1   5
BRANCH   1   8
ATOM      8  C   UNL     1       5.012   5.788  17.393  0.00  0.00    +0.000 A 
ATOM      9  C   UNL     1       5.943   5.332  18.332  0.00  0.00    +0.000 A 
ATOM     10  C   UNL     1       7.133   4.783  17.877  0.00  0.00    +0.000 A 
ATOM     11  N   UNL     1       7.456   4.660  16.572  0.00  0.00    +0.000 NA
ATOM     12  C   UNL     1       6.547   5.114  15.682  0.00  0.00    +0.000 A 
ATOM     13  C   UNL     1       5.331   5.676  16.037  0.00  0.00    +0.000 A 
ENDBRANCH   1   8
TORSDOF 2
ENDMDL
MODEL 2
REMARK VINA RESULT:      -6.4      0.104      1.306
REMARK  Name = 
REMARK  2 active torsions:
REMARK  status: ('A' for Active; 'I' for Inactive)
REMARK    1  A    between atoms: C_4  and  C_5
REMARK    2  A    between atoms: C_5  and  C_6
REMARK                            x       y       z     vdW  Elec       q    Type
REMARK                         _______ _______ _______ _____ _____    ______ ____
ROOT
ATOM      1  C   UNL     1       3.602   6.385  17.821  0.00  0.00    +0.000 C 
ENDROOT
BRANCH   1   5
ATOM      2  C   UNL     1       0.973   3.571  19.776  0.00  0.00    +0.000 A 
ATOM      3  C   UNL     1       1.475   4.664  20.482  0.00  0.00    +0.000 A 
ATOM      4  C   UNL     1       2.328   5.570  19.850  0.00  0.00    +0.000 A 
ATOM      5  C   UNL     1       2.685   5.397  18.505  0.00  0.00    +0.000 A 
ATOM      6  C   UNL     1       2.184   4.287  17.811  0.00  0.00    +0.000 A 
ATOM      7  C   UNL     1       1.328   3.381  18.444  0.00  0.00    +0.000 A 
ENDBRANCH   1   5
BRANCH   1   8
ATOM      8  C   UNL     1       4.939   5.808  17.427  0.00  0.00    +0.000 A 
ATOM      9  C   UNL     1       5.288   5.657  16.081  0.00  0.00    +0.000 A 
ATOM     10  C   UNL     1       6.526   5.114  15.770  0.00  0.00    +0.000 A 
ATOM     11  N   UNL     1       7.427   4.715  16.693  0.00  0.00    +0.000 NA
ATOM     12  C   UNL     1       7.068   4.861  17.987  0.00  0.00    +0.000 A 
ATOM     13  C   UNL     1       5.856   5.394  18.398  0.00  0.00    +0.000 A 
ENDBRANCH   1   8
TORSDOF 2
ENDMDL
MODEL 3
REMARK VINA RESULT:      -6.4      0.303      1.865
REMARK  Name = 
REMARK  2 active torsions:
REMARK  status: ('A' for Active; 'I' for Inactive)
REMARK    1  A    between atoms: C_4  and  C_5
REMARK    2  A    between atoms: C_5  and  C_6
REMARK                            x       y       z     vdW  Elec       q    Type
REMARK                         _______ _______ _______ _____ _____    ______ ____
ROOT
ATOM      1  C   UNL     1       3.573   6.238  17.704  0.00  0.00    +0.000 C 
ENDROOT
BRANCH   1   5
ATOM      2  C   UNL     1       0.987   3.578  19.914  0.00  0.00    +0.000 A 
ATOM      3  C   UNL     1       1.219   3.357  18.557  0.00  0.00    +0.000 A 
ATOM      4  C   UNL     1       2.052   4.220  17.842  0.00  0.00    +0.000 A 
ATOM      5  C   UNL     1       2.665   5.310  18.478  0.00  0.00    +0.000 A 
ATOM      6  C   UNL     1       2.413   5.528  19.839  0.00  0.00    +0.000 A 
ATOM      7  C   UNL     1       1.580   4.662  20.554  0.00  0.00    +0.000 A 
ENDBRANCH   1   5
BRANCH   1   8
ATOM      8  C   UNL     1       4.938   5.662  17.419  0.00  0.00    +0.000 A 
ATOM      9  C   UNL     1       5.249   5.143  16.158  0.00  0.00    +0.000 A 
ATOM     10  C   UNL     1       6.515   4.617  15.948  0.00  0.00    +0.000 A 
ATOM     11  N   UNL     1       7.478   4.570  16.893  0.00  0.00    +0.000 NA
ATOM     12  C   UNL     1       7.156   5.068  18.106  0.00  0.00    +0.000 A 
ATOM     13  C   UNL     1       5.919   5.616  18.413  0.00  0.00    +0.000 A 
ENDBRANCH   1   8
TORSDOF 2
ENDMDL
MODEL 4
REMARK VINA RESULT:      -6.4      0.128      1.344
REMARK  Name = 
REMARK  2 active torsions:
REMARK  status: ('A' for Active; 'I' for Inactive)
REMARK    1  A    between atoms: C_4  and  C_5
REMARK    2  A    between atoms: C_5  and  C_6
REMARK                            x       y       z     vdW  Elec       q    Type
REMARK                         _______ _______ _______ _____ _____    ______ ____
ROOT
ATOM      1  C   UNL     1       3.624   6.430  17.959  0.00  0.00    +0.000 C 
ENDROOT
BRANCH   1   5
ATOM      2  C   UNL     1       0.949   3.555  19.755  0.00  0.00    +0.000 A 
ATOM      3  C   UNL     1       1.312   3.429  18.415  0.00  0.00    +0.000 A 
ATOM      4  C   UNL     1       2.173   4.361  17.834  0.00  0.00    +0.000 A 
ATOM      5  C   UNL     1       2.685   5.427  18.588  0.00  0.00    +0.000 A 
ATOM      6  C   UNL     1       2.303   5.550  19.930  0.00  0.00    +0.000 A 
ATOM      7  C   UNL     1       1.441   4.615  20.512  0.00  0.00    +0.000 A 
ENDBRANCH   1   5
BRANCH   1   8
ATOM      8  C   UNL     1       4.931   5.837  17.493  0.00  0.00    +0.000 A 
ATOM      9  C   UNL     1       5.902   5.428  18.413  0.00  0.00    +0.000 A 
ATOM     10  C   UNL     1       7.091   4.896  17.935  0.00  0.00    +0.000 A 
ATOM     11  N   UNL     1       7.377   4.747  16.625  0.00  0.00    +0.000 NA
ATOM     12  C   UNL     1       6.430   5.156  15.752  0.00  0.00    +0.000 A 
ATOM     13  C   UNL     1       5.211   5.697  16.131  0.00  0.00    +0.000 A 
ENDBRANCH   1   8
TORSDOF 2
ENDMDL
MODEL 5
REMARK VINA RESULT:      -6.1      1.150      1.875
REMARK  Name = 
REMARK  2 active torsions:
REMARK  status: ('A' for Active; 'I' for Inactive)
REMARK    1  A    between atoms: C_4  and  C_5
REMARK    2  A    between atoms: C_5  and  C_6
REMARK                            x       y       z     vdW  Elec       q    Type
REMARK                         _______ _______ _______ _____ _____    ______ ____
ROOT
ATOM      1  C   UNL     1       2.592   5.702  17.870  0.00  0.00    +0.000 C 
ENDROOT
BRANCH   1   5
ATOM      2  C   UNL     1       1.307   3.015  20.997  0.00  0.00    +0.000 A 
ATOM      3  C   UNL     1       0.855   2.833  19.692  0.00  0.00    +0.000 A 
ATOM      4  C   UNL     1       1.267   3.705  18.682  0.00  0.00    +0.000 A 
ATOM      5  C   UNL     1       2.140   4.765  18.967  0.00  0.00    +0.000 A 
ATOM      6  C   UNL     1       2.577   4.945  20.286  0.00  0.00    +0.000 A 
ATOM      7  C   UNL     1       2.165   4.071  21.296  0.00  0.00    +0.000 A 
ENDBRANCH   1   5
BRANCH   1   8
ATOM      8  C   UNL     1       3.998   5.444  17.386  0.00  0.00    +0.000 A 
ATOM      9  C   UNL     1       4.992   6.419  17.516  0.00  0.00    +0.000 A 
ATOM     10  C   UNL     1       6.267   6.138  17.047  0.00  0.00    +0.000 A 
ATOM     11  N   UNL     1       6.615   4.971  16.465  0.00  0.00    +0.000 NA
ATOM     12  C   UNL     1       5.639   4.046  16.341  0.00  0.00    +0.000 A 
ATOM     13  C   UNL     1       4.337   4.232  16.779  0.00  0.00    +0.000 A 
ENDBRANCH   1   8
TORSDOF 2
ENDMDL
MODEL 6
REMARK VINA RESULT:      -6.1      1.166      1.463
REMARK  Name = 
REMARK  2 active torsions:
REMARK  status: ('A' for Active; 'I' for Inactive)
REMARK    1  A    between atoms: C_4  and  C_5
REMARK    2  A    between atoms: C_5  and  C_6
REMARK                            x       y       z     vdW  Elec       q    Type
REMARK                         _______ _______ _______ _____ _____    ______ ____
ROOT
ATOM      1  C   UNL     1       2.618   5.761  17.841  0.00  0.00    +0.000 C 
ENDROOT
BRANCH   1   5
ATOM      2  C   UNL     1       1.290   3.015  20.897  0.00  0.00    +0.000 A 
ATOM      3  C   UNL     1       2.135   4.072  21.229  0.00  0.00    +0.000 A 
ATOM      4  C   UNL     1       2.568   4.956  20.240  0.00  0.00    +0.000 A 
ATOM      5  C   UNL     1       2.156   4.796  18.909  0.00  0.00    +0.000 A 
ATOM      6  C   UNL     1       1.316   3.722  18.586  0.00  0.00    +0.000 A 
ATOM      7  C   UNL     1       0.882   2.837  19.577  0.00  0.00    +0.000 A 
ENDBRANCH   1   5
BRANCH   1   8
ATOM      8  C   UNL     1       4.031   5.520  17.369  0.00  0.00    +0.000 A 
ATOM      9  C   UNL     1       4.413   4.279  16.849  0.00  0.00    +0.000 A 
ATOM     10  C   UNL     1       5.726   4.105  16.437  0.00  0.00    +0.000 A 
ATOM     11  N   UNL     1       6.671   5.066  16.506  0.00  0.00    +0.000 NA
ATOM     12  C   UNL     1       6.285   6.254  17.018  0.00  0.00    +0.000 A 
ATOM     13  C   UNL     1       4.998   6.526  17.456  0.00  0.00    +0.000 A 
ENDBRANCH   1   8
TORSDOF 2
ENDMDL
MODEL 7
REMARK VINA RESULT:      -6.1      1.523      2.180
REMARK  Name = 
REMARK  2 active torsions:
REMARK  status: ('A' for Active; 'I' for Inactive)
REMARK    1  A    between atoms: C_4  and  C_5
REMARK    2  A    between atoms: C_5  and  C_6
REMARK                            x       y       z     vdW  Elec       q    Type
REMARK                         _______ _______ _______ _____ _____    ______ ____
ROOT
ATOM      1  C   UNL     1       3.145   3.454  17.157  0.00  0.00    +0.000 C 
ENDROOT
BRANCH   1   5
ATOM      2  C   UNL     1       1.683   3.284  21.217  0.00  0.00    +0.000 A 
ATOM      3  C   UNL     1       0.890   3.836  20.212  0.00  0.00    +0.000 A 
ATOM      4  C   UNL     1       1.365   3.895  18.901  0.00  0.00    +0.000 A 
ATOM      5  C   UNL     1       2.636   3.397  18.579  0.00  0.00    +0.000 A 
ATOM      6  C   UNL     1       3.429   2.857  19.601  0.00  0.00    +0.000 A 
ATOM      7  C   UNL     1       2.952   2.797  20.914  0.00  0.00    +0.000 A 
ENDBRANCH   1   5
BRANCH   1   8
ATOM      8  C   UNL     1       4.211   4.497  16.928  0.00  0.00    +0.000 A 
ATOM      9  C   UNL     1       4.059   5.797  17.420  0.00  0.00    +0.000 A 
ATOM     10  C   UNL     1       5.063   6.723  17.176  0.00  0.00    +0.000 A 
ATOM     11  N   UNL     1       6.190   6.447  16.486  0.00  0.00    +0.000 NA
ATOM     12  C   UNL     1       6.314   5.189  16.013  0.00  0.00    +0.000 A 
ATOM     13  C   UNL     1       5.368   4.194  16.205  0.00  0.00    +0.000 A 
ENDBRANCH   1   8
TORSDOF 2
ENDMDL
MODEL 8
REMARK VINA RESULT:      -6.1      1.514      2.105
REMARK  Name = 
REMARK  2 active torsions:
REMARK  status: ('A' for Active; 'I' for Inactive)
REMARK    1  A    between atoms: C_4  and  C_5
REMARK    2  A    between atoms: C_5  and  C_6
REMARK                            x       y       z     vdW  Elec       q    Type
REMARK                         _______ _______ _______ _____ _____    ______ ____
ROOT
ATOM      1  C   UNL     1       3.160   3.503  17.140  0.00  0.00    +0.000 C 
ENDROOT
BRANCH   1   5
ATOM      2  C   UNL     1       1.739   3.321  21.214  0.00  0.00    +0.000 A 
ATOM      3  C   UNL     1       2.987   2.794  20.886  0.00  0.00    +0.000 A 
ATOM      4  C   UNL     1       3.444   2.849  19.568  0.00  0.00    +0.000 A 
ATOM      5  C   UNL     1       2.659   3.437  18.565  0.00  0.00    +0.000 A 
ATOM      6  C   UNL     1       1.401   3.951  18.905  0.00  0.00    +0.000 A 
ATOM      7  C   UNL     1       0.945   3.897  20.225  0.00  0.00    +0.000 A 
ENDBRANCH   1   5
BRANCH   1   8
ATOM      8  C   UNL     1       4.280   4.493  16.930  0.00  0.00    +0.000 A 
ATOM      9  C   UNL     1       4.139   5.828  17.322  0.00  0.00    +0.000 A 
ATOM     10  C   UNL     1       5.194   6.702  17.099  0.00  0.00    +0.000 A 
ATOM     11  N   UNL     1       6.360   6.344  16.522  0.00  0.00    +0.000 NA
ATOM     12  C   UNL     1       6.473   5.052  16.144  0.00  0.00    +0.000 A 
ATOM     13  C   UNL     1       5.477   4.104  16.324  0.00  0.00    +0.000 A 
ENDBRANCH   1   8
TORSDOF 2
ENDMDL
MODEL 9
REMARK VINA RESULT:      -6.1      1.518      2.200
REMARK  Name = 
REMARK  2 active torsions:
REMARK  status: ('A' for Active; 'I' for Inactive)
REMARK    1  A    between atoms: C_4  and  C_5
REMARK    2  A    between atoms: C_5  and  C_6
REMARK                            x       y       z     vdW  Elec       q    Type
REMARK                         _______ _______ _______ _____ _____    ______ ____
ROOT
ATOM      1  C   UNL     1       3.170   3.497  17.151  0.00  0.00    +0.000 C 
ENDROOT
BRANCH   1   5
ATOM      2  C   UNL     1       1.713   3.312  21.212  0.00  0.00    +0.000 A 
ATOM      3  C   UNL     1       0.935   3.902  20.218  0.00  0.00    +0.000 A 
ATOM      4  C   UNL     1       1.408   3.965  18.906  0.00  0.00    +0.000 A 
ATOM      5  C   UNL     1       2.664   3.435  18.574  0.00  0.00    +0.000 A 
ATOM      6  C   UNL     1       3.442   2.857  19.585  0.00  0.00    +0.000 A 
ATOM      7  C   UNL     1       2.967   2.792  20.898  0.00  0.00    +0.000 A 
ENDBRANCH   1   5
BRANCH   1   8
ATOM      8  C   UNL     1       4.280   4.497  16.939  0.00  0.00    +0.000 A 
ATOM      9  C   UNL     1       5.496   4.108  16.367  0.00  0.00    +0.000 A 
ATOM     10  C   UNL     1       6.489   5.063  16.200  0.00  0.00    +0.000 A 
ATOM     11  N   UNL     1       6.358   6.357  16.560  0.00  0.00    +0.000 NA
ATOM     12  C   UNL     1       5.180   6.710  17.118  0.00  0.00    +0.000 A 
ATOM     13  C   UNL     1       4.128   5.831  17.325  0.00  0.00    +0.000 A 
ENDBRANCH   1   8
TORSDOF 2
ENDMDL
