MODEL 1
REMARK VINA RESULT:      -8.4      0.000      0.000
REMARK  Name = 
REMARK  4 active torsions:
REMARK  status: ('A' for Active; 'I' for Inactive)
REMARK    1  A    between atoms: C_4  and  N_5
REMARK    2  A    between atoms: C_7  and  C_8
REMARK    3  A    between atoms: C_8  and  O_9
REMARK    4  A    between atoms: O_9  and  C_10
REMARK                            x       y       z     vdW  Elec       q    Type
REMARK                         _______ _______ _______ _____ _____    ______ ____
ROOT
ATOM      1  N   UNL     1       1.298   9.295  18.838  0.00  0.00    +0.000 N 
ATOM      2  C   UNL     1       1.849   8.116  19.334  0.00  0.00    +0.000 A 
ATOM      3  C   UNL     1       2.718   7.662  18.372  0.00  0.00    +0.000 A 
ATOM      4  N   UNL     1       2.719   8.537  17.334  0.00  0.00    +0.000 NA
ATOM      5  N   UNL     1       1.855   9.500  17.609  0.00  0.00    +0.000 NA
ENDROOT
BRANCH   1   9
ATOM      6  O   UNL     1      -0.152  11.651  22.686  0.00  0.00    +0.000 OA
ATOM      7  C   UNL     1      -0.407  11.340  21.531  0.00  0.00    +0.000 A 
ATOM      8  C   UNL     1       0.503  10.469  20.778  0.00  0.00    +0.000 A 
ATOM      9  C   UNL     1       0.334  10.100  19.493  0.00  0.00    +0.000 A 
ATOM     10  C   UNL     1      -0.907  10.578  18.827  0.00  0.00    +0.000 A 
ATOM     11  C   UNL     1      -1.308  10.206  17.533  0.00  0.00    +0.000 A 
ATOM     12  C   UNL     1      -2.532  10.634  17.003  0.00  0.00    +0.000 A 
ATOM     13 BR   UNL     1      -3.034  10.095  15.260  0.00  0.00    +0.000 Br
ATOM     14  C   UNL     1      -3.392  11.433  17.747  0.00  0.00    +0.000 A 
ATOM     15  C   UNL     1      -3.021  11.811  19.032  0.00  0.00    +0.000 A 
ATOM     16  C   UNL     1      -1.796  11.379  19.552  0.00  0.00    +0.000 A 
ATOM     17  O   UNL     1      -1.533  11.779  20.874  0.00  0.00    +0.000 OA
ENDBRANCH   1   9
BRANCH   3  18
ATOM     18  C   UNL     1       3.546   6.430  18.349  0.00  0.00    +0.000 C 
BRANCH  18  19
ATOM     19  O   UNL     1       3.302   5.648  19.518  0.00  0.00    +0.000 OA
BRANCH  19  20
ATOM     20  C   UNL     1       2.438   4.603  19.392  0.00  0.00    +0.000 A 
ATOM     21  C   UNL     1       1.565   4.122  20.363  0.00  0.00    +0.000 A 
ATOM     22  C   UNL     1       0.748   3.029  20.072  0.00  0.00    +0.000 A 
ATOM     23  C   UNL     1       0.834   2.453  18.817  0.00  0.00    +0.000 A 
ATOM     24  N   UNL     1       1.669   2.887  17.850  0.00  0.00    +0.000 NA
ATOM     25  C   UNL     1       2.450   3.950  18.165  0.00  0.00    +0.000 A 
ENDBRANCH  19  20
ENDBRANCH  18  19
ENDBRANCH   3  18
TORSDOF 4
ENDMDL
MODEL 2
REMARK VINA RESULT:      -8.4      3.261      8.174
REMARK  Name = 
REMARK  4 active torsions:
REMARK  status: ('A' for Active; 'I' for Inactive)
REMARK    1  A    between atoms: C_4  and  N_5
REMARK    2  A    between atoms: C_7  and  C_8
REMARK    3  A    between atoms: C_8  and  O_9
REMARK    4  A    between atoms: O_9  and  C_10
REMARK                            x       y       z     vdW  Elec       q    Type
REMARK                         _______ _______ _______ _____ _____    ______ ____
ROOT
ATOM      1  N   UNL     1       2.403   7.141  18.543  0.00  0.00    +0.000 N 
ATOM      2  C   UNL     1       2.020   8.258  17.805  0.00  0.00    +0.000 A 
ATOM      3  C   UNL     1       1.489   9.151  18.704  0.00  0.00    +0.000 A 
ATOM      4  N   UNL     1       1.562   8.614  19.949  0.00  0.00    +0.000 NA
ATOM      5  N   UNL     1       2.090   7.406  19.845  0.00  0.00    +0.000 NA
ENDROOT
BRANCH   1   9
ATOM      6  O   UNL     1       2.018   2.603  17.229  0.00  0.00    +0.000 OA
ATOM      7  C   UNL     1       2.758   3.571  17.328  0.00  0.00    +0.000 A 
ATOM      8  C   UNL     1       2.265   4.829  17.902  0.00  0.00    +0.000 A 
ATOM      9  C   UNL     1       2.987   5.961  18.019  0.00  0.00    +0.000 A 
ATOM     10  C   UNL     1       4.406   5.888  17.580  0.00  0.00    +0.000 A 
ATOM     11  C   UNL     1       5.339   6.928  17.728  0.00  0.00    +0.000 A 
ATOM     12  C   UNL     1       6.680   6.756  17.362  0.00  0.00    +0.000 A 
ATOM     13 BR   UNL     1       7.900   8.183  17.594  0.00  0.00    +0.000 Br
ATOM     14  C   UNL     1       7.130   5.545  16.849  0.00  0.00    +0.000 A 
ATOM     15  C   UNL     1       6.229   4.499  16.697  0.00  0.00    +0.000 A 
ATOM     16  C   UNL     1       4.892   4.681  17.065  0.00  0.00    +0.000 A 
ATOM     17  O   UNL     1       4.070   3.550  16.913  0.00  0.00    +0.000 OA
ENDBRANCH   1   9
BRANCH   3  18
ATOM     18  C   UNL     1       0.886  10.486  18.469  0.00  0.00    +0.000 C 
BRANCH  18  19
ATOM     19  O   UNL     1      -0.370  10.588  19.140  0.00  0.00    +0.000 OA
BRANCH  19  20
ATOM     20  C   UNL     1      -1.485  10.632  18.359  0.00  0.00    +0.000 A 
ATOM     21  C   UNL     1      -1.714   9.906  17.194  0.00  0.00    +0.000 A 
ATOM     22  C   UNL     1      -2.915  10.076  16.504  0.00  0.00    +0.000 A 
ATOM     23  C   UNL     1      -3.845  10.969  17.004  0.00  0.00    +0.000 A 
ATOM     24  N   UNL     1      -3.659  11.694  18.127  0.00  0.00    +0.000 NA
ATOM     25  C   UNL     1      -2.483  11.506  18.774  0.00  0.00    +0.000 A 
ENDBRANCH  19  20
ENDBRANCH  18  19
ENDBRANCH   3  18
TORSDOF 4
ENDMDL
MODEL 3
REMARK VINA RESULT:      -8.4      0.935      1.048
REMARK  Name = 
REMARK  4 active torsions:
REMARK  status: ('A' for Active; 'I' for Inactive)
REMARK    1  A    between atoms: C_4  and  N_5
REMARK    2  A    between atoms: C_7  and  C_8
REMARK    3  A    between atoms: C_8  and  O_9
REMARK    4  A    between atoms: O_9  and  C_10
REMARK                            x       y       z     vdW  Elec       q    Type
REMARK                         _______ _______ _______ _____ _____    ______ ____
ROOT
ATOM      1  N   UNL     1       1.312   9.282  18.809  0.00  0.00    +0.000 N 
ATOM      2  C   UNL     1       1.748   8.046  19.279  0.00  0.00    +0.000 A 
ATOM      3  C   UNL     1       2.647   7.577  18.352  0.00  0.00    +0.000 A 
ATOM      4  N   UNL     1       2.776   8.497  17.361  0.00  0.00    +0.000 NA
ATOM      5  N   UNL     1       1.962   9.504  17.629  0.00  0.00    +0.000 NA
ENDROOT
BRANCH   1   9
ATOM      6  O   UNL     1      -0.085  11.788  22.582  0.00  0.00    +0.000 OA
ATOM      7  C   UNL     1      -0.350  11.441  21.440  0.00  0.00    +0.000 A 
ATOM      8  C   UNL     1       0.544  10.533  20.712  0.00  0.00    +0.000 A 
ATOM      9  C   UNL     1       0.362  10.123  19.441  0.00  0.00    +0.000 A 
ATOM     10  C   UNL     1      -0.877  10.593  18.766  0.00  0.00    +0.000 A 
ATOM     11  C   UNL     1      -1.290  10.183  17.487  0.00  0.00    +0.000 A 
ATOM     12  C   UNL     1      -2.512  10.609  16.950  0.00  0.00    +0.000 A 
ATOM     13 BR   UNL     1      -3.031  10.017  15.230  0.00  0.00    +0.000 Br
ATOM     14  C   UNL     1      -3.356  11.444  17.671  0.00  0.00    +0.000 A 
ATOM     15  C   UNL     1      -2.974  11.860  18.940  0.00  0.00    +0.000 A 
ATOM     16  C   UNL     1      -1.751  11.431  19.467  0.00  0.00    +0.000 A 
ATOM     17  O   UNL     1      -1.475  11.872  20.773  0.00  0.00    +0.000 OA
ENDBRANCH   1   9
BRANCH   3  18
ATOM     18  C   UNL     1       3.390   6.292  18.319  0.00  0.00    +0.000 C 
BRANCH  18  19
ATOM     19  O   UNL     1       2.482   5.198  18.184  0.00  0.00    +0.000 OA
BRANCH  19  20
ATOM     20  C   UNL     1       2.369   4.356  19.249  0.00  0.00    +0.000 A 
ATOM     21  C   UNL     1       1.275   4.233  20.101  0.00  0.00    +0.000 A 
ATOM     22  C   UNL     1       1.326   3.322  21.156  0.00  0.00    +0.000 A 
ATOM     23  C   UNL     1       2.472   2.565  21.324  0.00  0.00    +0.000 A 
ATOM     24  N   UNL     1       3.554   2.658  20.522  0.00  0.00    +0.000 NA
ATOM     25  C   UNL     1       3.473   3.552  19.507  0.00  0.00    +0.000 A 
ENDBRANCH  19  20
ENDBRANCH  18  19
ENDBRANCH   3  18
TORSDOF 4
ENDMDL
MODEL 4
REMARK VINA RESULT:      -8.3      2.011      3.123
REMARK  Name = 
REMARK  4 active torsions:
REMARK  status: ('A' for Active; 'I' for Inactive)
REMARK    1  A    between atoms: C_4  and  N_5
REMARK    2  A    between atoms: C_7  and  C_8
REMARK    3  A    between atoms: C_8  and  O_9
REMARK    4  A    between atoms: O_9  and  C_10
REMARK                            x       y       z     vdW  Elec       q    Type
REMARK                         _______ _______ _______ _____ _____    ______ ____
ROOT
ATOM      1  N   UNL     1       1.309   9.161  18.770  0.00  0.00    +0.000 N 
ATOM      2  C   UNL     1       1.642   7.871  19.174  0.00  0.00    +0.000 A 
ATOM      3  C   UNL     1       2.543   7.398  18.250  0.00  0.00    +0.000 A 
ATOM      4  N   UNL     1       2.772   8.367  17.327  0.00  0.00    +0.000 NA
ATOM      5  N   UNL     1       2.018   9.410  17.631  0.00  0.00    +0.000 NA
ENDROOT
BRANCH   1   9
ATOM      6  O   UNL     1       0.033  11.663  22.589  0.00  0.00    +0.000 OA
ATOM      7  C   UNL     1      -0.255  11.340  21.445  0.00  0.00    +0.000 A 
ATOM      8  C   UNL     1       0.601  10.411  20.697  0.00  0.00    +0.000 A 
ATOM      9  C   UNL     1       0.394  10.024  19.423  0.00  0.00    +0.000 A 
ATOM     10  C   UNL     1      -0.835  10.545  18.766  0.00  0.00    +0.000 A 
ATOM     11  C   UNL     1      -1.274  10.165  17.487  0.00  0.00    +0.000 A 
ATOM     12  C   UNL     1      -2.486  10.639  16.967  0.00  0.00    +0.000 A 
ATOM     13 BR   UNL     1      -3.040  10.087  15.244  0.00  0.00    +0.000 Br
ATOM     14  C   UNL     1      -3.294  11.493  17.707  0.00  0.00    +0.000 A 
ATOM     15  C   UNL     1      -2.886  11.879  18.977  0.00  0.00    +0.000 A 
ATOM     16  C   UNL     1      -1.674  11.402  19.487  0.00  0.00    +0.000 A 
ATOM     17  O   UNL     1      -1.370  11.817  20.796  0.00  0.00    +0.000 OA
ENDBRANCH   1   9
BRANCH   3  18
ATOM     18  C   UNL     1       3.198   6.070  18.160  0.00  0.00    +0.000 C 
BRANCH  18  19
ATOM     19  O   UNL     1       4.323   6.131  17.282  0.00  0.00    +0.000 OA
BRANCH  19  20
ATOM     20  C   UNL     1       5.556   6.153  17.861  0.00  0.00    +0.000 A 
ATOM     21  C   UNL     1       6.659   6.891  17.441  0.00  0.00    +0.000 A 
ATOM     22  C   UNL     1       7.859   6.792  18.146  0.00  0.00    +0.000 A 
ATOM     23  C   UNL     1       7.915   5.956  19.246  0.00  0.00    +0.000 A 
ATOM     24  N   UNL     1       6.869   5.222  19.682  0.00  0.00    +0.000 NA
ATOM     25  C   UNL     1       5.718   5.340  18.976  0.00  0.00    +0.000 A 
ENDBRANCH  19  20
ENDBRANCH  18  19
ENDBRANCH   3  18
TORSDOF 4
ENDMDL
MODEL 5
REMARK VINA RESULT:      -8.2      2.147      3.041
REMARK  Name = 
REMARK  4 active torsions:
REMARK  status: ('A' for Active; 'I' for Inactive)
REMARK    1  A    between atoms: C_4  and  N_5
REMARK    2  A    between atoms: C_7  and  C_8
REMARK    3  A    between atoms: C_8  and  O_9
REMARK    4  A    between atoms: O_9  and  C_10
REMARK                            x       y       z     vdW  Elec       q    Type
REMARK                         _______ _______ _______ _____ _____    ______ ____
ROOT
ATOM      1  N   UNL     1       1.373   9.130  18.784  0.00  0.00    +0.000 N 
ATOM      2  C   UNL     1       1.783   7.879  19.238  0.00  0.00    +0.000 A 
ATOM      3  C   UNL     1       2.679   7.407  18.309  0.00  0.00    +0.000 A 
ATOM      4  N   UNL     1       2.832   8.341  17.334  0.00  0.00    +0.000 NA
ATOM      5  N   UNL     1       2.035   9.358  17.613  0.00  0.00    +0.000 NA
ENDROOT
BRANCH   1   9
ATOM      6  O   UNL     1      -0.013  11.586  22.594  0.00  0.00    +0.000 OA
ATOM      7  C   UNL     1      -0.272  11.269  21.442  0.00  0.00    +0.000 A 
ATOM      8  C   UNL     1       0.610  10.357  20.705  0.00  0.00    +0.000 A 
ATOM      9  C   UNL     1       0.434   9.977  19.424  0.00  0.00    +0.000 A 
ATOM     10  C   UNL     1      -0.786  10.489  18.746  0.00  0.00    +0.000 A 
ATOM     11  C   UNL     1      -1.194  10.115  17.454  0.00  0.00    +0.000 A 
ATOM     12  C   UNL     1      -2.400  10.578  16.912  0.00  0.00    +0.000 A 
ATOM     13 BR   UNL     1      -2.912  10.034  15.174  0.00  0.00    +0.000 Br
ATOM     14  C   UNL     1      -3.234  11.417  17.642  0.00  0.00    +0.000 A 
ATOM     15  C   UNL     1      -2.857  11.798  18.923  0.00  0.00    +0.000 A 
ATOM     16  C   UNL     1      -1.651  11.330  19.455  0.00  0.00    +0.000 A 
ATOM     17  O   UNL     1      -1.380  11.738  20.773  0.00  0.00    +0.000 OA
ENDBRANCH   1   9
BRANCH   3  18
ATOM     18  C   UNL     1       3.399   6.110  18.261  0.00  0.00    +0.000 C 
BRANCH  18  19
ATOM     19  O   UNL     1       4.810   6.327  18.241  0.00  0.00    +0.000 OA
BRANCH  19  20
ATOM     20  C   UNL     1       5.499   5.805  17.189  0.00  0.00    +0.000 A 
ATOM     21  C   UNL     1       5.081   5.752  15.863  0.00  0.00    +0.000 A 
ATOM     22  C   UNL     1       5.911   5.171  14.904  0.00  0.00    +0.000 A 
ATOM     23  C   UNL     1       7.132   4.660  15.305  0.00  0.00    +0.000 A 
ATOM     24  N   UNL     1       7.571   4.688  16.581  0.00  0.00    +0.000 NA
ATOM     25  C   UNL     1       6.742   5.259  17.489  0.00  0.00    +0.000 A 
ENDBRANCH  19  20
ENDBRANCH  18  19
ENDBRANCH   3  18
TORSDOF 4
ENDMDL
MODEL 6
REMARK VINA RESULT:      -8.1      1.032      1.272
REMARK  Name = 
REMARK  4 active torsions:
REMARK  status: ('A' for Active; 'I' for Inactive)
REMARK    1  A    between atoms: C_4  and  N_5
REMARK    2  A    between atoms: C_7  and  C_8
REMARK    3  A    between atoms: C_8  and  O_9
REMARK    4  A    between atoms: O_9  and  C_10
REMARK                            x       y       z     vdW  Elec       q    Type
REMARK                         _______ _______ _______ _____ _____    ______ ____
ROOT
ATOM      1  N   UNL     1       1.239   9.376  18.848  0.00  0.00    +0.000 N 
ATOM      2  C   UNL     1       1.720   8.165  19.340  0.00  0.00    +0.000 A 
ATOM      3  C   UNL     1       2.617   7.700  18.409  0.00  0.00    +0.000 A 
ATOM      4  N   UNL     1       2.701   8.599  17.394  0.00  0.00    +0.000 NA
ATOM      5  N   UNL     1       1.862   9.588  17.652  0.00  0.00    +0.000 NA
ENDROOT
BRANCH   1   9
ATOM      6  O   UNL     1      -0.208  11.859  22.618  0.00  0.00    +0.000 OA
ATOM      7  C   UNL     1      -0.463  11.510  21.474  0.00  0.00    +0.000 A 
ATOM      8  C   UNL     1       0.446  10.614  20.750  0.00  0.00    +0.000 A 
ATOM      9  C   UNL     1       0.275  10.203  19.478  0.00  0.00    +0.000 A 
ATOM     10  C   UNL     1      -0.966  10.658  18.797  0.00  0.00    +0.000 A 
ATOM     11  C   UNL     1      -1.368  10.245  17.516  0.00  0.00    +0.000 A 
ATOM     12  C   UNL     1      -2.593  10.655  16.973  0.00  0.00    +0.000 A 
ATOM     13 BR   UNL     1      -3.096  10.059  15.250  0.00  0.00    +0.000 Br
ATOM     14  C   UNL     1      -3.451  11.479  17.692  0.00  0.00    +0.000 A 
ATOM     15  C   UNL     1      -3.080  11.898  18.963  0.00  0.00    +0.000 A 
ATOM     16  C   UNL     1      -1.855  11.484  19.496  0.00  0.00    +0.000 A 
ATOM     17  O   UNL     1      -1.590  11.927  20.803  0.00  0.00    +0.000 OA
ENDBRANCH   1   9
BRANCH   3  18
ATOM     18  C   UNL     1       3.397   6.438  18.394  0.00  0.00    +0.000 C 
BRANCH  18  19
ATOM     19  O   UNL     1       2.782   5.465  19.238  0.00  0.00    +0.000 OA
BRANCH  19  20
ATOM     20  C   UNL     1       2.947   4.157  18.895  0.00  0.00    +0.000 A 
ATOM     21  C   UNL     1       2.287   3.473  17.878  0.00  0.00    +0.000 A 
ATOM     22  C   UNL     1       2.569   2.124  17.663  0.00  0.00    +0.000 A 
ATOM     23  C   UNL     1       3.502   1.504  18.474  0.00  0.00    +0.000 A 
ATOM     24  N   UNL     1       4.161   2.131  19.472  0.00  0.00    +0.000 NA
ATOM     25  C   UNL     1       3.864   3.441  19.655  0.00  0.00    +0.000 A 
ENDBRANCH  19  20
ENDBRANCH  18  19
ENDBRANCH   3  18
TORSDOF 4
ENDMDL
MODEL 7
REMARK VINA RESULT:      -8.1      6.374      9.970
REMARK  Name = 
REMARK  4 active torsions:
REMARK  status: ('A' for Active; 'I' for Inactive)
REMARK    1  A    between atoms: C_4  and  N_5
REMARK    2  A    between atoms: C_7  and  C_8
REMARK    3  A    between atoms: C_8  and  O_9
REMARK    4  A    between atoms: O_9  and  C_10
REMARK                            x       y       z     vdW  Elec       q    Type
REMARK                         _______ _______ _______ _____ _____    ______ ____
ROOT
ATOM      1  N   UNL     1       7.147   6.688  17.490  0.00  0.00    +0.000 N 
ATOM      2  C   UNL     1       7.235   8.031  17.131  0.00  0.00    +0.000 A 
ATOM      3  C   UNL     1       8.071   8.621  18.048  0.00  0.00    +0.000 A 
ATOM      4  N   UNL     1       8.498   7.675  18.924  0.00  0.00    +0.000 NA
ATOM      5  N   UNL     1       7.929   6.527  18.598  0.00  0.00    +0.000 NA
ENDROOT
BRANCH   1   9
ATOM      6  O   UNL     1       6.584   3.636  13.908  0.00  0.00    +0.000 OA
ATOM      7  C   UNL     1       6.104   4.095  14.935  0.00  0.00    +0.000 A 
ATOM      8  C   UNL     1       6.800   5.157  15.671  0.00  0.00    +0.000 A 
ATOM      9  C   UNL     1       6.375   5.701  16.829  0.00  0.00    +0.000 A 
ATOM     10  C   UNL     1       5.070   5.213  17.348  0.00  0.00    +0.000 A 
ATOM     11  C   UNL     1       4.417   5.739  18.476  0.00  0.00    +0.000 A 
ATOM     12  C   UNL     1       3.149   5.280  18.858  0.00  0.00    +0.000 A 
ATOM     13 BR   UNL     1       2.305   6.031  20.375  0.00  0.00    +0.000 Br
ATOM     14  C   UNL     1       2.496   4.296  18.126  0.00  0.00    +0.000 A 
ATOM     15  C   UNL     1       3.118   3.763  17.004  0.00  0.00    +0.000 A 
ATOM     16  C   UNL     1       4.384   4.227  16.631  0.00  0.00    +0.000 A 
ATOM     17  O   UNL     1       4.910   3.655  15.459  0.00  0.00    +0.000 OA
ENDBRANCH   1   9
BRANCH   3  18
ATOM     18  C   UNL     1       8.486  10.040  18.175  0.00  0.00    +0.000 C 
BRANCH  18  19
ATOM     19  O   UNL     1       9.407  10.192  19.255  0.00  0.00    +0.000 OA
BRANCH  19  20
ATOM     20  C   UNL     1      10.391  11.121  19.101  0.00  0.00    +0.000 A 
ATOM     21  C   UNL     1      11.248  11.599  20.088  0.00  0.00    +0.000 A 
ATOM     22  C   UNL     1      12.201  12.564  19.761  0.00  0.00    +0.000 A 
ATOM     23  C   UNL     1      12.264  13.019  18.456  0.00  0.00    +0.000 A 
ATOM     24  N   UNL     1      11.449  12.583  17.472  0.00  0.00    +0.000 NA
ATOM     25  C   UNL     1      10.534  11.646  17.821  0.00  0.00    +0.000 A 
ENDBRANCH  19  20
ENDBRANCH  18  19
ENDBRANCH   3  18
TORSDOF 4
ENDMDL
MODEL 8
REMARK VINA RESULT:      -8.0      2.812      7.855
REMARK  Name = 
REMARK  4 active torsions:
REMARK  status: ('A' for Active; 'I' for Inactive)
REMARK    1  A    between atoms: C_4  and  N_5
REMARK    2  A    between atoms: C_7  and  C_8
REMARK    3  A    between atoms: C_8  and  O_9
REMARK    4  A    between atoms: O_9  and  C_10
REMARK                            x       y       z     vdW  Elec       q    Type
REMARK                         _______ _______ _______ _____ _____    ______ ____
ROOT
ATOM      1  N   UNL     1       2.693   7.606  18.457  0.00  0.00    +0.000 N 
ATOM      2  C   UNL     1       2.138   8.701  17.800  0.00  0.00    +0.000 A 
ATOM      3  C   UNL     1       1.303   9.311  18.705  0.00  0.00    +0.000 A 
ATOM      4  N   UNL     1       1.358   8.631  19.879  0.00  0.00    +0.000 NA
ATOM      5  N   UNL     1       2.174   7.603  19.720  0.00  0.00    +0.000 NA
ENDROOT
BRANCH   1   9
ATOM      6  O   UNL     1       6.770   6.697  16.216  0.00  0.00    +0.000 OA
ATOM      7  C   UNL     1       5.762   6.223  16.721  0.00  0.00    +0.000 A 
ATOM      8  C   UNL     1       4.730   7.100  17.286  0.00  0.00    +0.000 A 
ATOM      9  C   UNL     1       3.606   6.677  17.897  0.00  0.00    +0.000 A 
ATOM     10  C   UNL     1       3.388   5.207  17.936  0.00  0.00    +0.000 A 
ATOM     11  C   UNL     1       2.227   4.588  18.429  0.00  0.00    +0.000 A 
ATOM     12  C   UNL     1       2.061   3.199  18.358  0.00  0.00    +0.000 A 
ATOM     13 BR   UNL     1       0.473   2.414  19.023  0.00  0.00    +0.000 Br
ATOM     14  C   UNL     1       3.039   2.392  17.789  0.00  0.00    +0.000 A 
ATOM     15  C   UNL     1       4.194   2.979  17.290  0.00  0.00    +0.000 A 
ATOM     16  C   UNL     1       4.351   4.367  17.366  0.00  0.00    +0.000 A 
ATOM     17  O   UNL     1       5.534   4.867  16.795  0.00  0.00    +0.000 OA
ENDBRANCH   1   9
BRANCH   3  18
ATOM     18  C   UNL     1       0.424  10.494  18.534  0.00  0.00    +0.000 C 
BRANCH  18  19
ATOM     19  O   UNL     1      -0.893  10.205  19.003  0.00  0.00    +0.000 OA
BRANCH  19  20
ATOM     20  C   UNL     1      -1.924  10.489  18.159  0.00  0.00    +0.000 A 
ATOM     21  C   UNL     1      -3.015  11.312  18.424  0.00  0.00    +0.000 A 
ATOM     22  C   UNL     1      -3.994  11.490  17.446  0.00  0.00    +0.000 A 
ATOM     23  C   UNL     1      -3.849  10.837  16.236  0.00  0.00    +0.000 A 
ATOM     24  N   UNL     1      -2.808  10.028  15.942  0.00  0.00    +0.000 NA
ATOM     25  C   UNL     1      -1.875   9.876  16.913  0.00  0.00    +0.000 A 
ENDBRANCH  19  20
ENDBRANCH  18  19
ENDBRANCH   3  18
TORSDOF 4
ENDMDL
MODEL 9
REMARK VINA RESULT:      -8.0      0.847      1.111
REMARK  Name = 
REMARK  4 active torsions:
REMARK  status: ('A' for Active; 'I' for Inactive)
REMARK    1  A    between atoms: C_4  and  N_5
REMARK    2  A    between atoms: C_7  and  C_8
REMARK    3  A    between atoms: C_8  and  O_9
REMARK    4  A    between atoms: O_9  and  C_10
REMARK                            x       y       z     vdW  Elec       q    Type
REMARK                         _______ _______ _______ _____ _____    ______ ____
ROOT
ATOM      1  N   UNL     1       1.367   9.236  18.835  0.00  0.00    +0.000 N 
ATOM      2  C   UNL     1       1.891   8.053  19.350  0.00  0.00    +0.000 A 
ATOM      3  C   UNL     1       2.764   7.575  18.403  0.00  0.00    +0.000 A 
ATOM      4  N   UNL     1       2.793   8.440  17.356  0.00  0.00    +0.000 NA
ATOM      5  N   UNL     1       1.942   9.419  17.611  0.00  0.00    +0.000 NA
ENDROOT
BRANCH   1   9
ATOM      6  O   UNL     1      -0.082  11.672  22.634  0.00  0.00    +0.000 OA
ATOM      7  C   UNL     1      -0.332  11.346  21.482  0.00  0.00    +0.000 A 
ATOM      8  C   UNL     1       0.572  10.451  20.750  0.00  0.00    +0.000 A 
ATOM      9  C   UNL     1       0.407  10.064  19.470  0.00  0.00    +0.000 A 
ATOM     10  C   UNL     1      -0.822  10.546  18.787  0.00  0.00    +0.000 A 
ATOM     11  C   UNL     1      -1.218  10.159  17.496  0.00  0.00    +0.000 A 
ATOM     12  C   UNL     1      -2.433  10.594  16.950  0.00  0.00    +0.000 A 
ATOM     13 BR   UNL     1      -2.929  10.033  15.213  0.00  0.00    +0.000 Br
ATOM     14  C   UNL     1      -3.288  11.415  17.675  0.00  0.00    +0.000 A 
ATOM     15  C   UNL     1      -2.922  11.809  18.957  0.00  0.00    +0.000 A 
ATOM     16  C   UNL     1      -1.707  11.370  19.492  0.00  0.00    +0.000 A 
ATOM     17  O   UNL     1      -1.448  11.788  20.809  0.00  0.00    +0.000 OA
ENDBRANCH   1   9
BRANCH   3  18
ATOM     18  C   UNL     1       3.571   6.329  18.403  0.00  0.00    +0.000 C 
BRANCH  18  19
ATOM     19  O   UNL     1       3.016   5.380  17.492  0.00  0.00    +0.000 OA
BRANCH  19  20
ATOM     20  C   UNL     1       2.738   4.141  17.986  0.00  0.00    +0.000 A 
ATOM     21  C   UNL     1       3.621   3.071  18.098  0.00  0.00    +0.000 A 
ATOM     22  C   UNL     1       3.168   1.860  18.621  0.00  0.00    +0.000 A 
ATOM     23  C   UNL     1       1.846   1.760  19.014  0.00  0.00    +0.000 A 
ATOM     24  N   UNL     1       0.959   2.772  18.918  0.00  0.00    +0.000 NA
ATOM     25  C   UNL     1       1.429   3.936  18.406  0.00  0.00    +0.000 A 
ENDBRANCH  19  20
ENDBRANCH  18  19
ENDBRANCH   3  18
TORSDOF 4
ENDMDL
