MODEL 1
REMARK VINA RESULT:      -7.3      0.000      0.000
REMARK  Name = 
REMARK  8 active torsions:
REMARK  status: ('A' for Active; 'I' for Inactive)
REMARK    1  A    between atoms: C_1  and  C_2
REMARK    2  A    between atoms: C_6  and  C_7
REMARK    3  A    between atoms: C_8  and  N_9
REMARK    4  A    between atoms: C_10  and  C_12
REMARK    5  A    between atoms: C_12  and  N_13
REMARK    6  A    between atoms: N_13  and  C_14
REMARK    7  A    between atoms: C_20  and  C_21
REMARK    8  A    between atoms: C_22  and  C_23
REMARK                            x       y       z     vdW  Elec       q    Type
REMARK                         _______ _______ _______ _____ _____    ______ ____
ROOT
ATOM      1  C   UNL     1       3.291   4.237  20.392  0.00  0.00    +0.000 C 
ENDROOT
BRANCH   1   3
ATOM      2  N   UNL     1       2.856   6.607  19.952  0.00  0.00    +0.000 N 
ATOM      3  C   UNL     1       2.559   5.307  19.573  0.00  0.00    +0.000 C 
ATOM      4  O   UNL     1       1.780   4.980  18.677  0.00  0.00    +0.000 OA
ATOM      5  H   UNL     1       3.225   6.702  20.890  0.00  0.00    +0.000 HD
BRANCH   2  13
ATOM      6  C   UNL     1       3.567   7.593  17.221  0.00  0.00    +0.000 C 
ATOM      7  C   UNL     1       2.528   8.222  18.111  0.00  0.00    +0.000 A 
ATOM      8  C   UNL     1       1.927   9.413  17.662  0.00  0.00    +0.000 A 
ATOM      9  C   UNL     1       1.035  10.117  18.462  0.00  0.00    +0.000 A 
ATOM     10  C   UNL     1       0.726   9.645  19.732  0.00  0.00    +0.000 A 
ATOM     11  C   UNL     1       1.313   8.466  20.221  0.00  0.00    +0.000 A 
ATOM     12  C   UNL     1       0.892   7.980  21.582  0.00  0.00    +0.000 C 
ATOM     13  C   UNL     1       2.216   7.744  19.404  0.00  0.00    +0.000 A 
ENDBRANCH   2  13
ENDBRANCH   1   3
BRANCH   1  14
ATOM     14  N   UNL     1       4.302   3.550  19.590  0.00  0.00    +0.000 N 
ATOM     15  H   UNL     1       3.911   2.893  18.925  0.00  0.00    +0.000 HD
BRANCH  14  16
ATOM     16  C   UNL     1       5.353   4.303  19.073  0.00  0.00    +0.000 A 
ATOM     17  N   UNL     1       6.207   4.903  19.935  0.00  0.00    +0.000 NA
ATOM     18  C   UNL     1       7.257   5.583  19.450  0.00  0.00    +0.000 A 
ATOM     19  N   UNL     1       7.590   5.754  18.177  0.00  0.00    +0.000 NA
ATOM     20  C   UNL     1       6.731   5.156  17.338  0.00  0.00    +0.000 A 
ATOM     21  S   UNL     1       6.992   5.244  15.663  0.00  0.00    +0.000 S 
ATOM     22  C   UNL     1       5.595   4.327  15.321  0.00  0.00    +0.000 A 
ATOM     23  C   UNL     1       5.240   4.047  13.896  0.00  0.00    +0.000 C 
ATOM     24  C   UNL     1       4.928   3.934  16.477  0.00  0.00    +0.000 A 
ATOM     25  C   UNL     1       3.683   3.104  16.476  0.00  0.00    +0.000 C 
ATOM     26  C   UNL     1       5.598   4.429  17.679  0.00  0.00    +0.000 A 
ENDBRANCH  14  16
ENDBRANCH   1  14
TORSDOF 4
ENDMDL
MODEL 2
REMARK VINA RESULT:      -7.2      0.108      1.784
REMARK  Name = 
REMARK  8 active torsions:
REMARK  status: ('A' for Active; 'I' for Inactive)
REMARK    1  A    between atoms: C_1  and  C_2
REMARK    2  A    between atoms: C_6  and  C_7
REMARK    3  A    between atoms: C_8  and  N_9
REMARK    4  A    between atoms: C_10  and  C_12
REMARK    5  A    between atoms: C_12  and  N_13
REMARK    6  A    between atoms: N_13  and  C_14
REMARK    7  A    between atoms: C_20  and  C_21
REMARK    8  A    between atoms: C_22  and  C_23
REMARK                            x       y       z     vdW  Elec       q    Type
REMARK                         _______ _______ _______ _____ _____    ______ ____
ROOT
ATOM      1  C   UNL     1       3.298   4.170  20.400  0.00  0.00    +0.000 C 
ENDROOT
BRANCH   1   3
ATOM      2  N   UNL     1       2.923   6.556  19.988  0.00  0.00    +0.000 N 
ATOM      3  C   UNL     1       2.562   5.269  19.621  0.00  0.00    +0.000 C 
ATOM      4  O   UNL     1       1.729   4.973  18.765  0.00  0.00    +0.000 OA
ATOM      5  H   UNL     1       3.342   6.634  20.907  0.00  0.00    +0.000 HD
BRANCH   2  13
ATOM      6  C   UNL     1       0.834   7.991  21.573  0.00  0.00    +0.000 C 
ATOM      7  C   UNL     1       1.313   8.417  20.211  0.00  0.00    +0.000 A 
ATOM      8  C   UNL     1       0.659   9.507  19.607  0.00  0.00    +0.000 A 
ATOM      9  C   UNL     1       0.966   9.905  18.311  0.00  0.00    +0.000 A 
ATOM     10  C   UNL     1       1.934   9.217  17.590  0.00  0.00    +0.000 A 
ATOM     11  C   UNL     1       2.602   8.117  18.153  0.00  0.00    +0.000 A 
ATOM     12  C   UNL     1       3.679   7.452  17.339  0.00  0.00    +0.000 C 
ATOM     13  C   UNL     1       2.296   7.717  19.476  0.00  0.00    +0.000 A 
ENDBRANCH   2  13
ENDBRANCH   1   3
BRANCH   1  14
ATOM     14  N   UNL     1       4.297   3.504  19.566  0.00  0.00    +0.000 N 
ATOM     15  H   UNL     1       3.896   2.867  18.889  0.00  0.00    +0.000 HD
BRANCH  14  16
ATOM     16  C   UNL     1       5.343   4.269  19.058  0.00  0.00    +0.000 A 
ATOM     17  N   UNL     1       6.187   4.873  19.927  0.00  0.00    +0.000 NA
ATOM     18  C   UNL     1       7.234   5.564  19.451  0.00  0.00    +0.000 A 
ATOM     19  N   UNL     1       7.572   5.743  18.180  0.00  0.00    +0.000 NA
ATOM     20  C   UNL     1       6.723   5.141  17.334  0.00  0.00    +0.000 A 
ATOM     21  S   UNL     1       6.993   5.237  15.661  0.00  0.00    +0.000 S 
ATOM     22  C   UNL     1       5.606   4.309  15.307  0.00  0.00    +0.000 A 
ATOM     23  C   UNL     1       5.262   4.031  13.879  0.00  0.00    +0.000 C 
ATOM     24  C   UNL     1       4.936   3.905  16.458  0.00  0.00    +0.000 A 
ATOM     25  C   UNL     1       3.699   3.064  16.448  0.00  0.00    +0.000 C 
ATOM     26  C   UNL     1       5.595   4.402  17.666  0.00  0.00    +0.000 A 
ENDBRANCH  14  16
ENDBRANCH   1  14
TORSDOF 4
ENDMDL
MODEL 3
REMARK VINA RESULT:      -7.0      2.722      4.609
REMARK  Name = 
REMARK  8 active torsions:
REMARK  status: ('A' for Active; 'I' for Inactive)
REMARK    1  A    between atoms: C_1  and  C_2
REMARK    2  A    between atoms: C_6  and  C_7
REMARK    3  A    between atoms: C_8  and  N_9
REMARK    4  A    between atoms: C_10  and  C_12
REMARK    5  A    between atoms: C_12  and  N_13
REMARK    6  A    between atoms: N_13  and  C_14
REMARK    7  A    between atoms: C_20  and  C_21
REMARK    8  A    between atoms: C_22  and  C_23
REMARK                            x       y       z     vdW  Elec       q    Type
REMARK                         _______ _______ _______ _____ _____    ______ ____
ROOT
ATOM      1  C   UNL     1       1.765   8.660  17.793  0.00  0.00    +0.000 C 
ENDROOT
BRANCH   1   3
ATOM      2  N   UNL     1       1.264   9.954  19.812  0.00  0.00    +0.000 N 
ATOM      3  C   UNL     1       0.833   9.627  18.535  0.00  0.00    +0.000 C 
ATOM      4  O   UNL     1      -0.196  10.035  17.998  0.00  0.00    +0.000 OA
ATOM      5  H   UNL     1       1.914   9.295  20.223  0.00  0.00    +0.000 HD
BRANCH   2  13
ATOM      6  C   UNL     1       1.452  12.937  19.755  0.00  0.00    +0.000 C 
ATOM      7  C   UNL     1       0.573  12.155  20.696  0.00  0.00    +0.000 A 
ATOM      8  C   UNL     1      -0.129  12.880  21.677  0.00  0.00    +0.000 A 
ATOM      9  C   UNL     1      -0.882  12.233  22.651  0.00  0.00    +0.000 A 
ATOM     10  C   UNL     1      -0.947  10.845  22.663  0.00  0.00    +0.000 A 
ATOM     11  C   UNL     1      -0.253  10.086  21.707  0.00  0.00    +0.000 A 
ATOM     12  C   UNL     1      -0.412   8.589  21.742  0.00  0.00    +0.000 C 
ATOM     13  C   UNL     1       0.508  10.744  20.711  0.00  0.00    +0.000 A 
ENDBRANCH   2  13
ENDBRANCH   1   3
BRANCH   1  14
ATOM     14  N   UNL     1       2.554   7.859  18.726  0.00  0.00    +0.000 N 
ATOM     15  H   UNL     1       2.063   7.641  19.585  0.00  0.00    +0.000 HD
BRANCH  14  16
ATOM     16  C   UNL     1       3.285   6.789  18.218  0.00  0.00    +0.000 A 
ATOM     17  N   UNL     1       4.068   6.995  17.133  0.00  0.00    +0.000 NA
ATOM     18  C   UNL     1       4.822   5.987  16.669  0.00  0.00    +0.000 A 
ATOM     19  N   UNL     1       4.911   4.755  17.154  0.00  0.00    +0.000 NA
ATOM     20  C   UNL     1       4.125   4.569  18.225  0.00  0.00    +0.000 A 
ATOM     21  S   UNL     1       4.109   3.061  19.004  0.00  0.00    +0.000 S 
ATOM     22  C   UNL     1       2.965   3.583  20.156  0.00  0.00    +0.000 A 
ATOM     23  C   UNL     1       2.493   2.622  21.200  0.00  0.00    +0.000 C 
ATOM     24  C   UNL     1       2.599   4.912  19.969  0.00  0.00    +0.000 A 
ATOM     25  C   UNL     1       1.628   5.638  20.844  0.00  0.00    +0.000 C 
ATOM     26  C   UNL     1       3.283   5.501  18.818  0.00  0.00    +0.000 A 
ENDBRANCH  14  16
ENDBRANCH   1  14
TORSDOF 4
ENDMDL
MODEL 4
REMARK VINA RESULT:      -6.9      2.773      4.620
REMARK  Name = 
REMARK  8 active torsions:
REMARK  status: ('A' for Active; 'I' for Inactive)
REMARK    1  A    between atoms: C_1  and  C_2
REMARK    2  A    between atoms: C_6  and  C_7
REMARK    3  A    between atoms: C_8  and  N_9
REMARK    4  A    between atoms: C_10  and  C_12
REMARK    5  A    between atoms: C_12  and  N_13
REMARK    6  A    between atoms: N_13  and  C_14
REMARK    7  A    between atoms: C_20  and  C_21
REMARK    8  A    between atoms: C_22  and  C_23
REMARK                            x       y       z     vdW  Elec       q    Type
REMARK                         _______ _______ _______ _____ _____    ______ ____
ROOT
ATOM      1  C   UNL     1       2.598   8.708  17.652  0.00  0.00    +0.000 C 
ENDROOT
BRANCH   1   3
ATOM      2  N   UNL     1       0.523   9.431  18.734  0.00  0.00    +0.000 N 
ATOM      3  C   UNL     1       1.708   9.853  18.152  0.00  0.00    +0.000 C 
ATOM      4  O   UNL     1       2.063  11.023  18.011  0.00  0.00    +0.000 OA
ATOM      5  H   UNL     1       0.228   8.499  18.471  0.00  0.00    +0.000 HD
BRANCH   2  13
ATOM      6  C   UNL     1      -1.798  10.080  16.965  0.00  0.00    +0.000 C 
ATOM      7  C   UNL     1      -1.603  10.632  18.353  0.00  0.00    +0.000 A 
ATOM      8  C   UNL     1      -2.527  11.595  18.801  0.00  0.00    +0.000 A 
ATOM      9  C   UNL     1      -2.365  12.233  20.026  0.00  0.00    +0.000 A 
ATOM     10  C   UNL     1      -1.274  11.922  20.827  0.00  0.00    +0.000 A 
ATOM     11  C   UNL     1      -0.324  10.975  20.411  0.00  0.00    +0.000 A 
ATOM     12  C   UNL     1       0.803  10.643  21.351  0.00  0.00    +0.000 C 
ATOM     13  C   UNL     1      -0.492  10.319  19.167  0.00  0.00    +0.000 A 
ENDBRANCH   2  13
ENDBRANCH   1   3
BRANCH   1  14
ATOM     14  N   UNL     1       2.566   7.569  18.569  0.00  0.00    +0.000 N 
ATOM     15  H   UNL     1       1.635   7.344  18.898  0.00  0.00    +0.000 HD
BRANCH  14  16
ATOM     16  C   UNL     1       3.330   6.450  18.253  0.00  0.00    +0.000 A 
ATOM     17  N   UNL     1       4.213   6.535  17.230  0.00  0.00    +0.000 NA
ATOM     18  C   UNL     1       4.997   5.482  16.953  0.00  0.00    +0.000 A 
ATOM     19  N   UNL     1       5.027   4.311  17.577  0.00  0.00    +0.000 NA
ATOM     20  C   UNL     1       4.144   4.245  18.584  0.00  0.00    +0.000 A 
ATOM     21  S   UNL     1       4.039   2.832  19.519  0.00  0.00    +0.000 S 
ATOM     22  C   UNL     1       2.798   3.479  20.495  0.00  0.00    +0.000 A 
ATOM     23  C   UNL     1       2.222   2.639  21.589  0.00  0.00    +0.000 C 
ATOM     24  C   UNL     1       2.465   4.779  20.128  0.00  0.00    +0.000 A 
ATOM     25  C   UNL     1       1.424   5.597  20.823  0.00  0.00    +0.000 C 
ATOM     26  C   UNL     1       3.260   5.236  18.988  0.00  0.00    +0.000 A 
ENDBRANCH  14  16
ENDBRANCH   1  14
TORSDOF 4
ENDMDL
MODEL 5
REMARK VINA RESULT:      -6.9      3.356      7.618
REMARK  Name = 
REMARK  8 active torsions:
REMARK  status: ('A' for Active; 'I' for Inactive)
REMARK    1  A    between atoms: C_1  and  C_2
REMARK    2  A    between atoms: C_6  and  C_7
REMARK    3  A    between atoms: C_8  and  N_9
REMARK    4  A    between atoms: C_10  and  C_12
REMARK    5  A    between atoms: C_12  and  N_13
REMARK    6  A    between atoms: N_13  and  C_14
REMARK    7  A    between atoms: C_20  and  C_21
REMARK    8  A    between atoms: C_22  and  C_23
REMARK                            x       y       z     vdW  Elec       q    Type
REMARK                         _______ _______ _______ _____ _____    ______ ____
ROOT
ATOM      1  C   UNL     1       1.009   6.628  21.200  0.00  0.00    +0.000 C 
ENDROOT
BRANCH   1   3
ATOM      2  N   UNL     1       1.899   5.448  19.246  0.00  0.00    +0.000 N 
ATOM      3  C   UNL     1       1.853   5.480  20.631  0.00  0.00    +0.000 C 
ATOM      4  O   UNL     1       2.408   4.681  21.387  0.00  0.00    +0.000 OA
ATOM      5  H   UNL     1       1.142   5.937  18.784  0.00  0.00    +0.000 HD
BRANCH   2  13
ATOM      6  C   UNL     1       0.630   2.753  18.996  0.00  0.00    +0.000 C 
ATOM      7  C   UNL     1       1.944   3.138  18.370  0.00  0.00    +0.000 A 
ATOM      8  C   UNL     1       2.666   2.127  17.708  0.00  0.00    +0.000 A 
ATOM      9  C   UNL     1       3.934   2.367  17.191  0.00  0.00    +0.000 A 
ATOM     10  C   UNL     1       4.508   3.625  17.327  0.00  0.00    +0.000 A 
ATOM     11  C   UNL     1       3.825   4.658  17.990  0.00  0.00    +0.000 A 
ATOM     12  C   UNL     1       4.479   6.012  18.053  0.00  0.00    +0.000 C 
ATOM     13  C   UNL     1       2.530   4.416  18.510  0.00  0.00    +0.000 A 
ENDBRANCH   2  13
ENDBRANCH   1   3
BRANCH   1  14
ATOM     14  N   UNL     1       1.734   7.896  21.151  0.00  0.00    +0.000 N 
ATOM     15  H   UNL     1       2.740   7.784  21.108  0.00  0.00    +0.000 HD
BRANCH  14  16
ATOM     16  C   UNL     1       1.250   8.896  20.312  0.00  0.00    +0.000 A 
ATOM     17  N   UNL     1       1.601   8.872  19.004  0.00  0.00    +0.000 NA
ATOM     18  C   UNL     1       1.095   9.795  18.174  0.00  0.00    +0.000 A 
ATOM     19  N   UNL     1       0.254  10.777  18.474  0.00  0.00    +0.000 NA
ATOM     20  C   UNL     1      -0.079  10.787  19.773  0.00  0.00    +0.000 A 
ATOM     21  S   UNL     1      -1.161  11.959  20.355  0.00  0.00    +0.000 S 
ATOM     22  C   UNL     1      -1.072  11.358  21.949  0.00  0.00    +0.000 A 
ATOM     23  C   UNL     1      -1.860  12.033  23.025  0.00  0.00    +0.000 C 
ATOM     24  C   UNL     1      -0.233  10.253  22.048  0.00  0.00    +0.000 A 
ATOM     25  C   UNL     1       0.017   9.511  23.323  0.00  0.00    +0.000 C 
ATOM     26  C   UNL     1       0.364   9.914  20.757  0.00  0.00    +0.000 A 
ENDBRANCH  14  16
ENDBRANCH   1  14
TORSDOF 4
ENDMDL
MODEL 6
REMARK VINA RESULT:      -6.9      2.561      4.316
REMARK  Name = 
REMARK  8 active torsions:
REMARK  status: ('A' for Active; 'I' for Inactive)
REMARK    1  A    between atoms: C_1  and  C_2
REMARK    2  A    between atoms: C_6  and  C_7
REMARK    3  A    between atoms: C_8  and  N_9
REMARK    4  A    between atoms: C_10  and  C_12
REMARK    5  A    between atoms: C_12  and  N_13
REMARK    6  A    between atoms: N_13  and  C_14
REMARK    7  A    between atoms: C_20  and  C_21
REMARK    8  A    between atoms: C_22  and  C_23
REMARK                            x       y       z     vdW  Elec       q    Type
REMARK                         _______ _______ _______ _____ _____    ______ ____
ROOT
ATOM      1  C   UNL     1       1.660   8.630  17.798  0.00  0.00    +0.000 C 
ENDROOT
BRANCH   1   3
ATOM      2  N   UNL     1       1.185   9.877  19.853  0.00  0.00    +0.000 N 
ATOM      3  C   UNL     1       0.744   9.589  18.570  0.00  0.00    +0.000 C 
ATOM      4  O   UNL     1      -0.283  10.023  18.048  0.00  0.00    +0.000 OA
ATOM      5  H   UNL     1       1.828   9.200  20.243  0.00  0.00    +0.000 HD
BRANCH   2  13
ATOM      6  C   UNL     1       1.337  12.862  19.810  0.00  0.00    +0.000 C 
ATOM      7  C   UNL     1       0.491  12.065  20.768  0.00  0.00    +0.000 A 
ATOM      8  C   UNL     1      -0.193  12.776  21.771  0.00  0.00    +0.000 A 
ATOM      9  C   UNL     1      -0.914  12.114  22.759  0.00  0.00    +0.000 A 
ATOM     10  C   UNL     1      -0.963  10.726  22.764  0.00  0.00    +0.000 A 
ATOM     11  C   UNL     1      -0.285   9.980  21.787  0.00  0.00    +0.000 A 
ATOM     12  C   UNL     1      -0.426   8.482  21.816  0.00  0.00    +0.000 C 
ATOM     13  C   UNL     1       0.443  10.653  20.775  0.00  0.00    +0.000 A 
ENDBRANCH   2  13
ENDBRANCH   1   3
BRANCH   1  14
ATOM     14  N   UNL     1       2.748   8.138  18.642  0.00  0.00    +0.000 N 
ATOM     15  H   UNL     1       3.024   8.792  19.364  0.00  0.00    +0.000 HD
BRANCH  14  16
ATOM     16  C   UNL     1       2.695   6.817  19.078  0.00  0.00    +0.000 A 
ATOM     17  N   UNL     1       1.921   6.518  20.148  0.00  0.00    +0.000 NA
ATOM     18  C   UNL     1       1.815   5.240  20.542  0.00  0.00    +0.000 A 
ATOM     19  N   UNL     1       2.393   4.177  19.998  0.00  0.00    +0.000 NA
ATOM     20  C   UNL     1       3.159   4.494  18.944  0.00  0.00    +0.000 A 
ATOM     21  S   UNL     1       3.973   3.268  18.097  0.00  0.00    +0.000 S 
ATOM     22  C   UNL     1       4.667   4.379  17.004  0.00  0.00    +0.000 A 
ATOM     23  C   UNL     1       5.577   3.872  15.932  0.00  0.00    +0.000 C 
ATOM     24  C   UNL     1       4.272   5.687  17.264  0.00  0.00    +0.000 A 
ATOM     25  C   UNL     1       4.712   6.864  16.452  0.00  0.00    +0.000 C 
ATOM     26  C   UNL     1       3.379   5.760  18.420  0.00  0.00    +0.000 A 
ENDBRANCH  14  16
ENDBRANCH   1  14
TORSDOF 4
ENDMDL
MODEL 7
REMARK VINA RESULT:      -6.9      2.546      4.442
REMARK  Name = 
REMARK  8 active torsions:
REMARK  status: ('A' for Active; 'I' for Inactive)
REMARK    1  A    between atoms: C_1  and  C_2
REMARK    2  A    between atoms: C_6  and  C_7
REMARK    3  A    between atoms: C_8  and  N_9
REMARK    4  A    between atoms: C_10  and  C_12
REMARK    5  A    between atoms: C_12  and  N_13
REMARK    6  A    between atoms: N_13  and  C_14
REMARK    7  A    between atoms: C_20  and  C_21
REMARK    8  A    between atoms: C_22  and  C_23
REMARK                            x       y       z     vdW  Elec       q    Type
REMARK                         _______ _______ _______ _____ _____    ______ ____
ROOT
ATOM      1  C   UNL     1       1.641   8.696  17.692  0.00  0.00    +0.000 C 
ENDROOT
BRANCH   1   3
ATOM      2  N   UNL     1       1.297   9.887  19.805  0.00  0.00    +0.000 N 
ATOM      3  C   UNL     1       0.773   9.627  18.548  0.00  0.00    +0.000 C 
ATOM      4  O   UNL     1      -0.291  10.065  18.109  0.00  0.00    +0.000 OA
ATOM      5  H   UNL     1       1.971   9.206  20.133  0.00  0.00    +0.000 HD
BRANCH   2  13
ATOM      6  C   UNL     1      -0.432   8.520  21.825  0.00  0.00    +0.000 C 
ATOM      7  C   UNL     1      -0.200  10.007  21.767  0.00  0.00    +0.000 A 
ATOM      8  C   UNL     1      -0.929  10.810  22.664  0.00  0.00    +0.000 A 
ATOM      9  C   UNL     1      -0.856  12.198  22.612  0.00  0.00    +0.000 A 
ATOM     10  C   UNL     1      -0.053  12.811  21.659  0.00  0.00    +0.000 A 
ATOM     11  C   UNL     1       0.682  12.045  20.739  0.00  0.00    +0.000 A 
ATOM     12  C   UNL     1       1.576  12.771  19.770  0.00  0.00    +0.000 C 
ATOM     13  C   UNL     1       0.614  10.632  20.796  0.00  0.00    +0.000 A 
ENDBRANCH   2  13
ENDBRANCH   1   3
BRANCH   1  14
ATOM     14  N   UNL     1       2.798   8.208  18.441  0.00  0.00    +0.000 N 
ATOM     15  H   UNL     1       3.160   8.881  19.106  0.00  0.00    +0.000 HD
BRANCH  14  16
ATOM     16  C   UNL     1       2.760   6.906  18.931  0.00  0.00    +0.000 A 
ATOM     17  N   UNL     1       1.999   6.645  20.020  0.00  0.00    +0.000 NA
ATOM     18  C   UNL     1       1.908   5.384  20.468  0.00  0.00    +0.000 A 
ATOM     19  N   UNL     1       2.490   4.304  19.962  0.00  0.00    +0.000 NA
ATOM     20  C   UNL     1       3.242   4.583  18.888  0.00  0.00    +0.000 A 
ATOM     21  S   UNL     1       4.059   3.330  18.084  0.00  0.00    +0.000 S 
ATOM     22  C   UNL     1       4.732   4.401  16.940  0.00  0.00    +0.000 A 
ATOM     23  C   UNL     1       5.636   3.857  15.880  0.00  0.00    +0.000 C 
ATOM     24  C   UNL     1       4.329   5.715  17.149  0.00  0.00    +0.000 A 
ATOM     25  C   UNL     1       4.751   6.861  16.285  0.00  0.00    +0.000 C 
ATOM     26  C   UNL     1       3.447   5.829  18.310  0.00  0.00    +0.000 A 
ENDBRANCH  14  16
ENDBRANCH   1  14
TORSDOF 4
ENDMDL
MODEL 8
REMARK VINA RESULT:      -6.9      2.844      4.684
REMARK  Name = 
REMARK  8 active torsions:
REMARK  status: ('A' for Active; 'I' for Inactive)
REMARK    1  A    between atoms: C_1  and  C_2
REMARK    2  A    between atoms: C_6  and  C_7
REMARK    3  A    between atoms: C_8  and  N_9
REMARK    4  A    between atoms: C_10  and  C_12
REMARK    5  A    between atoms: C_12  and  N_13
REMARK    6  A    between atoms: N_13  and  C_14
REMARK    7  A    between atoms: C_20  and  C_21
REMARK    8  A    between atoms: C_22  and  C_23
REMARK                            x       y       z     vdW  Elec       q    Type
REMARK                         _______ _______ _______ _____ _____    ______ ____
ROOT
ATOM      1  C   UNL     1       2.340   8.464  17.736  0.00  0.00    +0.000 C 
ENDROOT
BRANCH   1   3
ATOM      2  N   UNL     1       0.755  10.325  17.886  0.00  0.00    +0.000 N 
ATOM      3  C   UNL     1       1.366   9.293  18.582  0.00  0.00    +0.000 C 
ATOM      4  O   UNL     1       1.191   9.026  19.771  0.00  0.00    +0.000 OA
ATOM      5  H   UNL     1       1.243  10.621  17.050  0.00  0.00    +0.000 HD
BRANCH   2  13
ATOM      6  C   UNL     1       1.887  12.654  19.380  0.00  0.00    +0.000 C 
ATOM      7  C   UNL     1       0.415  12.392  19.197  0.00  0.00    +0.000 A 
ATOM      8  C   UNL     1      -0.482  13.250  19.861  0.00  0.00    +0.000 A 
ATOM      9  C   UNL     1      -1.853  13.022  19.832  0.00  0.00    +0.000 A 
ATOM     10  C   UNL     1      -2.356  11.928  19.139  0.00  0.00    +0.000 A 
ATOM     11  C   UNL     1      -1.493  11.042  18.472  0.00  0.00    +0.000 A 
ATOM     12  C   UNL     1      -2.106   9.910  17.693  0.00  0.00    +0.000 C 
ATOM     13  C   UNL     1      -0.097  11.278  18.495  0.00  0.00    +0.000 A 
ENDBRANCH   2  13
ENDBRANCH   1   3
BRANCH   1  14
ATOM     14  N   UNL     1       3.149   7.578  18.571  0.00  0.00    +0.000 N 
ATOM     15  H   UNL     1       2.819   7.512  19.526  0.00  0.00    +0.000 HD
BRANCH  14  16
ATOM     16  C   UNL     1       3.551   6.357  18.037  0.00  0.00    +0.000 A 
ATOM     17  N   UNL     1       4.362   6.359  16.953  0.00  0.00    +0.000 NA
ATOM     18  C   UNL     1       4.804   5.190  16.464  0.00  0.00    +0.000 A 
ATOM     19  N   UNL     1       4.542   3.972  16.922  0.00  0.00    +0.000 NA
ATOM     20  C   UNL     1       3.734   3.991  17.992  0.00  0.00    +0.000 A 
ATOM     21  S   UNL     1       3.293   2.531  18.738  0.00  0.00    +0.000 S 
ATOM     22  C   UNL     1       2.340   3.329  19.907  0.00  0.00    +0.000 A 
ATOM     23  C   UNL     1       1.616   2.516  20.932  0.00  0.00    +0.000 C 
ATOM     24  C   UNL     1       2.363   4.711  19.750  0.00  0.00    +0.000 A 
ATOM     25  C   UNL     1       1.633   5.661  20.645  0.00  0.00    +0.000 C 
ATOM     26  C   UNL     1       3.187   5.108  18.608  0.00  0.00    +0.000 A 
ENDBRANCH  14  16
ENDBRANCH   1  14
TORSDOF 4
ENDMDL
MODEL 9
REMARK VINA RESULT:      -6.9      2.647      4.663
REMARK  Name = 
REMARK  8 active torsions:
REMARK  status: ('A' for Active; 'I' for Inactive)
REMARK    1  A    between atoms: C_1  and  C_2
REMARK    2  A    between atoms: C_6  and  C_7
REMARK    3  A    between atoms: C_8  and  N_9
REMARK    4  A    between atoms: C_10  and  C_12
REMARK    5  A    between atoms: C_12  and  N_13
REMARK    6  A    between atoms: N_13  and  C_14
REMARK    7  A    between atoms: C_20  and  C_21
REMARK    8  A    between atoms: C_22  and  C_23
REMARK                            x       y       z     vdW  Elec       q    Type
REMARK                         _______ _______ _______ _____ _____    ______ ____
ROOT
ATOM      1  C   UNL     1       2.179   8.054  17.641  0.00  0.00    +0.000 C 
ENDROOT
BRANCH   1   3
ATOM      2  N   UNL     1       0.679   9.038  19.309  0.00  0.00    +0.000 N 
ATOM      3  C   UNL     1       1.701   9.294  18.408  0.00  0.00    +0.000 C 
ATOM      4  O   UNL     1       2.209  10.394  18.191  0.00  0.00    +0.000 OA
ATOM      5  H   UNL     1       0.154   8.192  19.127  0.00  0.00    +0.000 HD
BRANCH   2  13
ATOM      6  C   UNL     1       1.259   9.447  22.213  0.00  0.00    +0.000 C 
ATOM      7  C   UNL     1       0.282  10.269  21.415  0.00  0.00    +0.000 A 
ATOM      8  C   UNL     1      -0.479  11.226  22.112  0.00  0.00    +0.000 A 
ATOM      9  C   UNL     1      -1.476  11.958  21.475  0.00  0.00    +0.000 A 
ATOM     10  C   UNL     1      -1.734  11.744  20.127  0.00  0.00    +0.000 A 
ATOM     11  C   UNL     1      -1.004  10.790  19.399  0.00  0.00    +0.000 A 
ATOM     12  C   UNL     1      -1.295  10.649  17.929  0.00  0.00    +0.000 C 
ATOM     13  C   UNL     1       0.016  10.051  20.044  0.00  0.00    +0.000 A 
ENDBRANCH   2  13
ENDBRANCH   1   3
BRANCH   1  14
ATOM     14  N   UNL     1       3.271   7.382  18.344  0.00  0.00    +0.000 N 
ATOM     15  H   UNL     1       3.248   7.518  19.347  0.00  0.00    +0.000 HD
BRANCH  14  16
ATOM     16  C   UNL     1       3.591   6.081  17.967  0.00  0.00    +0.000 A 
ATOM     17  N   UNL     1       4.389   5.896  16.888  0.00  0.00    +0.000 NA
ATOM     18  C   UNL     1       4.754   4.651  16.550  0.00  0.00    +0.000 A 
ATOM     19  N   UNL     1       4.424   3.519  17.159  0.00  0.00    +0.000 NA
ATOM     20  C   UNL     1       3.631   3.722  18.222  0.00  0.00    +0.000 A 
ATOM     21  S   UNL     1       3.112   2.397  19.148  0.00  0.00    +0.000 S 
ATOM     22  C   UNL     1       2.223   3.393  20.211  0.00  0.00    +0.000 A 
ATOM     23  C   UNL     1       1.463   2.762  21.333  0.00  0.00    +0.000 C 
ATOM     24  C   UNL     1       2.327   4.740  19.879  0.00  0.00    +0.000 A 
ATOM     25  C   UNL     1       1.666   5.839  20.650  0.00  0.00    +0.000 C 
ATOM     26  C   UNL     1       3.160   4.939  18.694  0.00  0.00    +0.000 A 
ENDBRANCH  14  16
ENDBRANCH   1  14
TORSDOF 4
ENDMDL
