MODEL 1
REMARK VINA RESULT:      -7.3      0.000      0.000
REMARK  Name = 
REMARK  3 active torsions:
REMARK  status: ('A' for Active; 'I' for Inactive)
REMARK    1  A    between atoms: C_2  and  C_17
REMARK    2  A    between atoms: N_3  and  C_4
REMARK    3  A    between atoms: C_9  and  C_11
REMARK                            x       y       z     vdW  Elec       q    Type
REMARK                         _______ _______ _______ _____ _____    ______ ____
ROOT
ATOM      1  C   UNL     1       6.441   6.500  17.071  0.00  0.00    +0.000 C 
ATOM      2  C   UNL     1       6.963   5.695  15.884  0.00  0.00    +0.000 C 
ATOM      3  C   UNL     1       5.499   5.917  16.065  0.00  0.00    +0.000 C 
ATOM      4  C   UNL     1       4.691   4.833  16.714  0.00  0.00    +0.000 C 
ATOM      5  N   UNL     1       4.917   5.033  18.135  0.00  0.00    +0.000 N 
ATOM      6  C   UNL     1       4.124   4.578  19.183  0.00  0.00    +0.000 C 
ATOM      7  O   UNL     1       4.350   4.925  20.340  0.00  0.00    +0.000 OA
ATOM      8  C   UNL     1       6.088   5.851  18.404  0.00  0.00    +0.000 C 
ENDROOT
BRANCH   6   9
ATOM      9  C   UNL     1       2.986   3.732  18.858  0.00  0.00    +0.000 A 
ATOM     10  C   UNL     1       1.675   4.070  18.567  0.00  0.00    +0.000 A 
ATOM     11  C   UNL     1       0.992   2.862  18.287  0.00  0.00    +0.000 A 
ATOM     12  C   UNL     1       1.910   1.856  18.464  0.00  0.00    +0.000 A 
ATOM     13  O   UNL     1       3.111   2.369  18.824  0.00  0.00    +0.000 OA
ENDBRANCH   6   9
BRANCH   1  16
ATOM     14  O   UNL     1       8.454   7.233  18.776  0.00  0.00    +0.000 OA
ATOM     15  C   UNL     1       7.962   8.105  18.063  0.00  0.00    +0.000 C 
ATOM     16  N   UNL     1       6.960   7.845  17.139  0.00  0.00    +0.000 N 
ATOM     17  H   UNL     1       6.462   8.595  16.678  0.00  0.00    +0.000 HD
BRANCH  15  18
ATOM     18  C   UNL     1       8.428   9.500  18.232  0.00  0.00    +0.000 A 
ATOM     19  C   UNL     1       9.442   9.731  19.178  0.00  0.00    +0.000 A 
ATOM     20  C   UNL     1       9.962  11.011  19.365  0.00  0.00    +0.000 A 
ATOM     21  C   UNL     1       9.476  12.065  18.598  0.00  0.00    +0.000 A 
ATOM     22  C   UNL     1       8.480  11.826  17.650  0.00  0.00    +0.000 A 
ATOM     23  F   UNL     1       8.033  12.844  16.904  0.00  0.00    +0.000 F 
ATOM     24  C   UNL     1       7.950  10.554  17.456  0.00  0.00    +0.000 A 
ENDBRANCH  15  18
ENDBRANCH   1  16
TORSDOF 3
ENDMDL
MODEL 2
REMARK VINA RESULT:      -7.3      6.936      8.212
REMARK  Name = 
REMARK  3 active torsions:
REMARK  status: ('A' for Active; 'I' for Inactive)
REMARK    1  A    between atoms: C_2  and  C_17
REMARK    2  A    between atoms: N_3  and  C_4
REMARK    3  A    between atoms: C_9  and  C_11
REMARK                            x       y       z     vdW  Elec       q    Type
REMARK                         _______ _______ _______ _____ _____    ______ ____
ROOT
ATOM      1  C   UNL     1       1.066   9.697  19.202  0.00  0.00    +0.000 C 
ATOM      2  C   UNL     1       2.038  10.556  18.398  0.00  0.00    +0.000 C 
ATOM      3  C   UNL     1       1.475   9.302  17.818  0.00  0.00    +0.000 C 
ATOM      4  C   UNL     1       2.304   8.055  17.883  0.00  0.00    +0.000 C 
ATOM      5  N   UNL     1       2.079   7.556  19.229  0.00  0.00    +0.000 N 
ATOM      6  C   UNL     1       2.277   6.258  19.687  0.00  0.00    +0.000 C 
ATOM      7  O   UNL     1       1.924   5.929  20.817  0.00  0.00    +0.000 OA
ATOM      8  C   UNL     1       1.538   8.572  20.116  0.00  0.00    +0.000 C 
ENDROOT
BRANCH   6   9
ATOM      9  C   UNL     1       2.856   5.293  18.766  0.00  0.00    +0.000 A 
ATOM     10  C   UNL     1       2.242   4.360  17.947  0.00  0.00    +0.000 A 
ATOM     11  C   UNL     1       3.272   3.703  17.230  0.00  0.00    +0.000 A 
ATOM     12  C   UNL     1       4.452   4.239  17.683  0.00  0.00    +0.000 A 
ATOM     13  O   UNL     1       4.212   5.187  18.621  0.00  0.00    +0.000 OA
ENDBRANCH   6   9
BRANCH   1  16
ATOM     14  O   UNL     1       0.933  11.155  21.515  0.00  0.00    +0.000 OA
ATOM     15  C   UNL     1      -0.083  11.079  20.828  0.00  0.00    +0.000 C 
ATOM     16  N   UNL     1      -0.125  10.396  19.620  0.00  0.00    +0.000 N 
ATOM     17  H   UNL     1      -1.002  10.213  19.150  0.00  0.00    +0.000 HD
BRANCH  15  18
ATOM     18  C   UNL     1      -1.326  11.706  21.333  0.00  0.00    +0.000 A 
ATOM     19  C   UNL     1      -2.167  12.319  20.388  0.00  0.00    +0.000 A 
ATOM     20  C   UNL     1      -3.375  12.896  20.780  0.00  0.00    +0.000 A 
ATOM     21  C   UNL     1      -3.751  12.851  22.119  0.00  0.00    +0.000 A 
ATOM     22  C   UNL     1      -2.918  12.227  23.048  0.00  0.00    +0.000 A 
ATOM     23  F   UNL     1      -3.298  12.173  24.331  0.00  0.00    +0.000 F 
ATOM     24  C   UNL     1      -1.708  11.652  22.671  0.00  0.00    +0.000 A 
ENDBRANCH  15  18
ENDBRANCH   1  16
TORSDOF 3
ENDMDL
MODEL 3
REMARK VINA RESULT:      -7.2      0.990      1.410
REMARK  Name = 
REMARK  3 active torsions:
REMARK  status: ('A' for Active; 'I' for Inactive)
REMARK    1  A    between atoms: C_2  and  C_17
REMARK    2  A    between atoms: N_3  and  C_4
REMARK    3  A    between atoms: C_9  and  C_11
REMARK                            x       y       z     vdW  Elec       q    Type
REMARK                         _______ _______ _______ _____ _____    ______ ____
ROOT
ATOM      1  C   UNL     1       6.545   6.602  17.056  0.00  0.00    +0.000 C 
ATOM      2  C   UNL     1       7.021   5.837  15.824  0.00  0.00    +0.000 C 
ATOM      3  C   UNL     1       5.567   6.085  16.047  0.00  0.00    +0.000 C 
ATOM      4  C   UNL     1       4.747   4.994  16.667  0.00  0.00    +0.000 C 
ATOM      5  N   UNL     1       5.008   5.126  18.090  0.00  0.00    +0.000 N 
ATOM      6  C   UNL     1       4.226   4.645  19.134  0.00  0.00    +0.000 C 
ATOM      7  O   UNL     1       4.486   4.935  20.299  0.00  0.00    +0.000 OA
ATOM      8  C   UNL     1       6.204   5.903  18.367  0.00  0.00    +0.000 C 
ENDROOT
BRANCH   6   9
ATOM      9  C   UNL     1       3.061   3.841  18.798  0.00  0.00    +0.000 A 
ATOM     10  C   UNL     1       1.729   4.202  18.685  0.00  0.00    +0.000 A 
ATOM     11  C   UNL     1       1.020   3.039  18.298  0.00  0.00    +0.000 A 
ATOM     12  C   UNL     1       1.949   2.029  18.239  0.00  0.00    +0.000 A 
ATOM     13  O   UNL     1       3.180   2.499  18.555  0.00  0.00    +0.000 OA
ENDBRANCH   6   9
BRANCH   1  16
ATOM     14  O   UNL     1       8.516   7.242  18.844  0.00  0.00    +0.000 OA
ATOM     15  C   UNL     1       8.074   8.142  18.134  0.00  0.00    +0.000 C 
ATOM     16  N   UNL     1       7.098   7.929  17.171  0.00  0.00    +0.000 N 
ATOM     17  H   UNL     1       6.638   8.703  16.708  0.00  0.00    +0.000 HD
BRANCH  15  18
ATOM     18  C   UNL     1       8.572   9.520  18.348  0.00  0.00    +0.000 A 
ATOM     19  C   UNL     1       8.089  10.520  17.486  0.00  0.00    +0.000 A 
ATOM     20  C   UNL     1       8.480  11.848  17.650  0.00  0.00    +0.000 A 
ATOM     21  C   UNL     1       9.349  12.183  18.684  0.00  0.00    +0.000 A 
ATOM     22  C   UNL     1       9.812  11.187  19.544  0.00  0.00    +0.000 A 
ATOM     23  F   UNL     1      10.633  11.522  20.547  0.00  0.00    +0.000 F 
ATOM     24  C   UNL     1       9.433   9.857  19.389  0.00  0.00    +0.000 A 
ENDBRANCH  15  18
ENDBRANCH   1  16
TORSDOF 3
ENDMDL
MODEL 4
REMARK VINA RESULT:      -7.2      4.783      6.617
REMARK  Name = 
REMARK  3 active torsions:
REMARK  status: ('A' for Active; 'I' for Inactive)
REMARK    1  A    between atoms: C_2  and  C_17
REMARK    2  A    between atoms: N_3  and  C_4
REMARK    3  A    between atoms: C_9  and  C_11
REMARK                            x       y       z     vdW  Elec       q    Type
REMARK                         _______ _______ _______ _____ _____    ______ ____
ROOT
ATOM      1  C   UNL     1       4.368   5.642  17.576  0.00  0.00    +0.000 C 
ATOM      2  C   UNL     1       5.013   4.997  18.800  0.00  0.00    +0.000 C 
ATOM      3  C   UNL     1       3.531   5.134  18.707  0.00  0.00    +0.000 C 
ATOM      4  C   UNL     1       2.880   6.294  19.400  0.00  0.00    +0.000 C 
ATOM      5  N   UNL     1       3.059   7.399  18.475  0.00  0.00    +0.000 N 
ATOM      6  C   UNL     1       2.328   8.581  18.427  0.00  0.00    +0.000 C 
ATOM      7  O   UNL     1       2.490   9.384  17.512  0.00  0.00    +0.000 OA
ATOM      8  C   UNL     1       4.098   7.140  17.492  0.00  0.00    +0.000 C 
ENDROOT
BRANCH   6   9
ATOM      9  C   UNL     1       1.327   8.804  19.459  0.00  0.00    +0.000 A 
ATOM     10  C   UNL     1       1.232   8.283  20.739  0.00  0.00    +0.000 A 
ATOM     11  C   UNL     1       0.082   8.860  21.332  0.00  0.00    +0.000 A 
ATOM     12  C   UNL     1      -0.480   9.662  20.369  0.00  0.00    +0.000 A 
ATOM     13  O   UNL     1       0.254   9.622  19.231  0.00  0.00    +0.000 OA
ENDBRANCH   6   9
BRANCH   1  16
ATOM     14  O   UNL     1       6.624   6.210  16.133  0.00  0.00    +0.000 OA
ATOM     15  C   UNL     1       5.846   5.376  15.674  0.00  0.00    +0.000 C 
ATOM     16  N   UNL     1       4.689   4.985  16.332  0.00  0.00    +0.000 N 
ATOM     17  H   UNL     1       3.987   4.421  15.872  0.00  0.00    +0.000 HD
BRANCH  15  18
ATOM     18  C   UNL     1       6.134   4.800  14.341  0.00  0.00    +0.000 A 
ATOM     19  C   UNL     1       7.364   5.135  13.746  0.00  0.00    +0.000 A 
ATOM     20  C   UNL     1       7.725   4.600  12.511  0.00  0.00    +0.000 A 
ATOM     21  C   UNL     1       6.861   3.717  11.869  0.00  0.00    +0.000 A 
ATOM     22  C   UNL     1       5.649   3.378  12.472  0.00  0.00    +0.000 A 
ATOM     23  F   UNL     1       4.834   2.514  11.855  0.00  0.00    +0.000 F 
ATOM     24  C   UNL     1       5.275   3.908  13.702  0.00  0.00    +0.000 A 
ENDBRANCH  15  18
ENDBRANCH   1  16
TORSDOF 3
ENDMDL
MODEL 5
REMARK VINA RESULT:      -7.2      6.857      8.056
REMARK  Name = 
REMARK  3 active torsions:
REMARK  status: ('A' for Active; 'I' for Inactive)
REMARK    1  A    between atoms: C_2  and  C_17
REMARK    2  A    between atoms: N_3  and  C_4
REMARK    3  A    between atoms: C_9  and  C_11
REMARK                            x       y       z     vdW  Elec       q    Type
REMARK                         _______ _______ _______ _____ _____    ______ ____
ROOT
ATOM      1  C   UNL     1       1.055   9.639  19.212  0.00  0.00    +0.000 C 
ATOM      2  C   UNL     1       2.039  10.482  18.403  0.00  0.00    +0.000 C 
ATOM      3  C   UNL     1       1.452   9.238  17.825  0.00  0.00    +0.000 C 
ATOM      4  C   UNL     1       2.259   7.977  17.887  0.00  0.00    +0.000 C 
ATOM      5  N   UNL     1       2.031   7.481  19.233  0.00  0.00    +0.000 N 
ATOM      6  C   UNL     1       2.208   6.180  19.690  0.00  0.00    +0.000 C 
ATOM      7  O   UNL     1       1.855   5.857  20.821  0.00  0.00    +0.000 OA
ATOM      8  C   UNL     1       1.512   8.506  20.123  0.00  0.00    +0.000 C 
ENDROOT
BRANCH   6   9
ATOM      9  C   UNL     1       2.767   5.205  18.766  0.00  0.00    +0.000 A 
ATOM     10  C   UNL     1       2.133   4.334  17.896  0.00  0.00    +0.000 A 
ATOM     11  C   UNL     1       3.150   3.633  17.203  0.00  0.00    +0.000 A 
ATOM     12  C   UNL     1       4.341   4.084  17.719  0.00  0.00    +0.000 A 
ATOM     13  O   UNL     1       4.119   5.019  18.673  0.00  0.00    +0.000 OA
ENDBRANCH   6   9
BRANCH   1  16
ATOM     14  O   UNL     1       0.931  11.031  21.565  0.00  0.00    +0.000 OA
ATOM     15  C   UNL     1      -0.077  11.005  20.863  0.00  0.00    +0.000 C 
ATOM     16  N   UNL     1      -0.121  10.359  19.635  0.00  0.00    +0.000 N 
ATOM     17  H   UNL     1      -0.996  10.215  19.148  0.00  0.00    +0.000 HD
BRANCH  15  18
ATOM     18  C   UNL     1      -1.309  11.651  21.370  0.00  0.00    +0.000 A 
ATOM     19  C   UNL     1      -1.525  11.623  22.759  0.00  0.00    +0.000 A 
ATOM     20  C   UNL     1      -2.641  12.245  23.317  0.00  0.00    +0.000 A 
ATOM     21  C   UNL     1      -3.540  12.908  22.488  0.00  0.00    +0.000 A 
ATOM     22  C   UNL     1      -3.312  12.943  21.112  0.00  0.00    +0.000 A 
ATOM     23  F   UNL     1      -4.174  13.599  20.324  0.00  0.00    +0.000 F 
ATOM     24  C   UNL     1      -2.204  12.323  20.542  0.00  0.00    +0.000 A 
ENDBRANCH  15  18
ENDBRANCH   1  16
TORSDOF 3
ENDMDL
MODEL 6
REMARK VINA RESULT:      -7.1      4.350      9.852
REMARK  Name = 
REMARK  3 active torsions:
REMARK  status: ('A' for Active; 'I' for Inactive)
REMARK    1  A    between atoms: C_2  and  C_17
REMARK    2  A    between atoms: N_3  and  C_4
REMARK    3  A    between atoms: C_9  and  C_11
REMARK                            x       y       z     vdW  Elec       q    Type
REMARK                         _______ _______ _______ _____ _____    ______ ____
ROOT
ATOM      1  C   UNL     1       9.763  11.081  19.883  0.00  0.00    +0.000 C 
ATOM      2  C   UNL     1       9.487  11.538  21.314  0.00  0.00    +0.000 C 
ATOM      3  C   UNL     1       8.973  12.322  20.154  0.00  0.00    +0.000 C 
ATOM      4  C   UNL     1       9.757  13.517  19.700  0.00  0.00    +0.000 C 
ATOM      5  N   UNL     1      10.809  12.950  18.874  0.00  0.00    +0.000 N 
ATOM      6  C   UNL     1      11.561  13.606  17.906  0.00  0.00    +0.000 C 
ATOM      7  O   UNL     1      12.333  12.984  17.180  0.00  0.00    +0.000 OA
ATOM      8  C   UNL     1      10.997  11.528  19.109  0.00  0.00    +0.000 C 
ENDROOT
BRANCH   6   9
ATOM      9  C   UNL     1      11.358  15.037  17.741  0.00  0.00    +0.000 A 
ATOM     10  C   UNL     1      10.404  15.725  17.009  0.00  0.00    +0.000 A 
ATOM     11  C   UNL     1      10.638  17.105  17.226  0.00  0.00    +0.000 A 
ATOM     12  C   UNL     1      11.743  17.181  18.038  0.00  0.00    +0.000 A 
ATOM     13  O   UNL     1      12.194  15.939  18.340  0.00  0.00    +0.000 OA
ENDBRANCH   6   9
BRANCH   1  16
ATOM     14  O   UNL     1       8.421  10.466  17.578  0.00  0.00    +0.000 OA
ATOM     15  C   UNL     1       8.584   9.568  18.401  0.00  0.00    +0.000 C 
ATOM     16  N   UNL     1       9.277   9.755  19.589  0.00  0.00    +0.000 N 
ATOM     17  H   UNL     1       9.266   9.054  20.319  0.00  0.00    +0.000 HD
BRANCH  15  18
ATOM     18  C   UNL     1       7.976   8.245  18.133  0.00  0.00    +0.000 A 
ATOM     19  C   UNL     1       8.396   7.169  18.936  0.00  0.00    +0.000 A 
ATOM     20  C   UNL     1       7.841   5.901  18.771  0.00  0.00    +0.000 A 
ATOM     21  C   UNL     1       6.854   5.706  17.810  0.00  0.00    +0.000 A 
ATOM     22  C   UNL     1       6.431   6.782  17.028  0.00  0.00    +0.000 A 
ATOM     23  F   UNL     1       5.469   6.588  16.118  0.00  0.00    +0.000 F 
ATOM     24  C   UNL     1       6.981   8.051  17.178  0.00  0.00    +0.000 A 
ENDBRANCH  15  18
ENDBRANCH   1  16
TORSDOF 3
ENDMDL
MODEL 7
REMARK VINA RESULT:      -7.1      6.860      8.732
REMARK  Name = 
REMARK  3 active torsions:
REMARK  status: ('A' for Active; 'I' for Inactive)
REMARK    1  A    between atoms: C_2  and  C_17
REMARK    2  A    between atoms: N_3  and  C_4
REMARK    3  A    between atoms: C_9  and  C_11
REMARK                            x       y       z     vdW  Elec       q    Type
REMARK                         _______ _______ _______ _____ _____    ______ ____
ROOT
ATOM      1  C   UNL     1       0.835   9.969  19.066  0.00  0.00    +0.000 C 
ATOM      2  C   UNL     1       1.869  10.936  18.495  0.00  0.00    +0.000 C 
ATOM      3  C   UNL     1       1.546   9.664  17.785  0.00  0.00    +0.000 C 
ATOM      4  C   UNL     1       2.452   8.487  17.990  0.00  0.00    +0.000 C 
ATOM      5  N   UNL     1       2.007   7.919  19.251  0.00  0.00    +0.000 N 
ATOM      6  C   UNL     1       2.222   6.625  19.711  0.00  0.00    +0.000 C 
ATOM      7  O   UNL     1       1.681   6.224  20.738  0.00  0.00    +0.000 OA
ATOM      8  C   UNL     1       1.212   8.852  20.032  0.00  0.00    +0.000 C 
ENDROOT
BRANCH   6   9
ATOM      9  C   UNL     1       3.057   5.747  18.905  0.00  0.00    +0.000 A 
ATOM     10  C   UNL     1       2.711   4.866  17.894  0.00  0.00    +0.000 A 
ATOM     11  C   UNL     1       3.916   4.290  17.422  0.00  0.00    +0.000 A 
ATOM     12  C   UNL     1       4.919   4.818  18.198  0.00  0.00    +0.000 A 
ATOM     13  O   UNL     1       4.409   5.684  19.106  0.00  0.00    +0.000 OA
ENDBRANCH   6   9
BRANCH   1  16
ATOM     14  O   UNL     1      -1.213   9.619  17.284  0.00  0.00    +0.000 OA
ATOM     15  C   UNL     1      -1.423  10.329  18.264  0.00  0.00    +0.000 C 
ATOM     16  N   UNL     1      -0.472  10.552  19.250  0.00  0.00    +0.000 N 
ATOM     17  H   UNL     1      -0.608  11.258  19.961  0.00  0.00    +0.000 HD
BRANCH  15  18
ATOM     18  C   UNL     1      -2.733  11.011  18.374  0.00  0.00    +0.000 A 
ATOM     19  C   UNL     1      -3.734  10.633  17.463  0.00  0.00    +0.000 A 
ATOM     20  C   UNL     1      -5.006  11.201  17.528  0.00  0.00    +0.000 A 
ATOM     21  C   UNL     1      -5.284  12.143  18.514  0.00  0.00    +0.000 A 
ATOM     22  C   UNL     1      -4.290  12.502  19.424  0.00  0.00    +0.000 A 
ATOM     23  F   UNL     1      -4.573  13.396  20.380  0.00  0.00    +0.000 F 
ATOM     24  C   UNL     1      -3.015  11.947  19.367  0.00  0.00    +0.000 A 
ENDBRANCH  15  18
ENDBRANCH   1  16
TORSDOF 3
ENDMDL
MODEL 8
REMARK VINA RESULT:      -7.0      7.585      9.073
REMARK  Name = 
REMARK  3 active torsions:
REMARK  status: ('A' for Active; 'I' for Inactive)
REMARK    1  A    between atoms: C_2  and  C_17
REMARK    2  A    between atoms: N_3  and  C_4
REMARK    3  A    between atoms: C_9  and  C_11
REMARK                            x       y       z     vdW  Elec       q    Type
REMARK                         _______ _______ _______ _____ _____    ______ ____
ROOT
ATOM      1  C   UNL     1      -0.010  10.150  18.888  0.00  0.00    +0.000 C 
ATOM      2  C   UNL     1       0.469  11.497  19.424  0.00  0.00    +0.000 C 
ATOM      3  C   UNL     1      -0.855  10.946  19.832  0.00  0.00    +0.000 C 
ATOM      4  C   UNL     1      -2.078  11.430  19.114  0.00  0.00    +0.000 C 
ATOM      5  N   UNL     1      -2.104  10.639  17.895  0.00  0.00    +0.000 N 
ATOM      6  C   UNL     1      -3.199  10.396  17.075  0.00  0.00    +0.000 C 
ATOM      7  O   UNL     1      -3.123   9.601  16.142  0.00  0.00    +0.000 OA
ATOM      8  C   UNL     1      -0.818  10.027  17.602  0.00  0.00    +0.000 C 
ENDROOT
BRANCH   6   9
ATOM      9  C   UNL     1      -4.451  11.066  17.395  0.00  0.00    +0.000 A 
ATOM     10  C   UNL     1      -5.402  10.769  18.358  0.00  0.00    +0.000 A 
ATOM     11  C   UNL     1      -6.405  11.764  18.263  0.00  0.00    +0.000 A 
ATOM     12  C   UNL     1      -6.032  12.583  17.225  0.00  0.00    +0.000 A 
ATOM     13  O   UNL     1      -4.864  12.159  16.685  0.00  0.00    +0.000 OA
ENDBRANCH   6   9
BRANCH   1  16
ATOM     14  O   UNL     1       1.988   9.352  17.195  0.00  0.00    +0.000 OA
ATOM     15  C   UNL     1       1.836   8.720  18.238  0.00  0.00    +0.000 C 
ATOM     16  N   UNL     1       0.878   9.053  19.186  0.00  0.00    +0.000 N 
ATOM     17  H   UNL     1       0.665   8.434  19.957  0.00  0.00    +0.000 HD
BRANCH  15  18
ATOM     18  C   UNL     1       2.681   7.527  18.471  0.00  0.00    +0.000 A 
ATOM     19  C   UNL     1       3.780   7.340  17.614  0.00  0.00    +0.000 A 
ATOM     20  C   UNL     1       4.646   6.262  17.795  0.00  0.00    +0.000 A 
ATOM     21  C   UNL     1       4.421   5.372  18.841  0.00  0.00    +0.000 A 
ATOM     22  C   UNL     1       3.337   5.573  19.696  0.00  0.00    +0.000 A 
ATOM     23  F   UNL     1       3.140   4.721  20.709  0.00  0.00    +0.000 F 
ATOM     24  C   UNL     1       2.463   6.642  19.524  0.00  0.00    +0.000 A 
ENDBRANCH  15  18
ENDBRANCH   1  16
TORSDOF 3
ENDMDL
MODEL 9
REMARK VINA RESULT:      -6.9      6.900      8.616
REMARK  Name = 
REMARK  3 active torsions:
REMARK  status: ('A' for Active; 'I' for Inactive)
REMARK    1  A    between atoms: C_2  and  C_17
REMARK    2  A    between atoms: N_3  and  C_4
REMARK    3  A    between atoms: C_9  and  C_11
REMARK                            x       y       z     vdW  Elec       q    Type
REMARK                         _______ _______ _______ _____ _____    ______ ____
ROOT
ATOM      1  C   UNL     1       0.973   9.865  19.081  0.00  0.00    +0.000 C 
ATOM      2  C   UNL     1       1.978  10.822  18.445  0.00  0.00    +0.000 C 
ATOM      3  C   UNL     1       1.590   9.559  17.752  0.00  0.00    +0.000 C 
ATOM      4  C   UNL     1       2.492   8.369  17.887  0.00  0.00    +0.000 C 
ATOM      5  N   UNL     1       2.127   7.798  19.173  0.00  0.00    +0.000 N 
ATOM      6  C   UNL     1       2.357   6.499  19.609  0.00  0.00    +0.000 C 
ATOM      7  O   UNL     1       1.883   6.098  20.670  0.00  0.00    +0.000 OA
ATOM      8  C   UNL     1       1.401   8.736  20.012  0.00  0.00    +0.000 C 
ENDROOT
BRANCH   6   9
ATOM      9  C   UNL     1       3.122   5.615  18.743  0.00  0.00    +0.000 A 
ATOM     10  C   UNL     1       2.693   4.710  17.787  0.00  0.00    +0.000 A 
ATOM     11  C   UNL     1       3.855   4.140  17.211  0.00  0.00    +0.000 A 
ATOM     12  C   UNL     1       4.921   4.696  17.876  0.00  0.00    +0.000 A 
ATOM     13  O   UNL     1       4.488   5.574  18.812  0.00  0.00    +0.000 OA
ENDBRANCH   6   9
BRANCH   1  16
ATOM     14  O   UNL     1      -1.159   9.664  17.377  0.00  0.00    +0.000 OA
ATOM     15  C   UNL     1      -1.310  10.319  18.406  0.00  0.00    +0.000 C 
ATOM     16  N   UNL     1      -0.310  10.462  19.358  0.00  0.00    +0.000 N 
ATOM     17  H   UNL     1      -0.398  11.128  20.115  0.00  0.00    +0.000 HD
BRANCH  15  18
ATOM     18  C   UNL     1      -2.596  11.021  18.615  0.00  0.00    +0.000 A 
ATOM     19  C   UNL     1      -2.646  11.983  19.639  0.00  0.00    +0.000 A 
ATOM     20  C   UNL     1      -3.810  12.715  19.870  0.00  0.00    +0.000 A 
ATOM     21  C   UNL     1      -4.926  12.495  19.070  0.00  0.00    +0.000 A 
ATOM     22  C   UNL     1      -4.865  11.549  18.046  0.00  0.00    +0.000 A 
ATOM     23  F   UNL     1      -5.939  11.358  17.270  0.00  0.00    +0.000 F 
ATOM     24  C   UNL     1      -3.711  10.809  17.807  0.00  0.00    +0.000 A 
ENDBRANCH  15  18
ENDBRANCH   1  16
TORSDOF 3
ENDMDL
