MODEL 1
REMARK VINA RESULT:      -7.8      0.000      0.000
REMARK  Name = 
REMARK  13 active torsions:
REMARK  status: ('A' for Active; 'I' for Inactive)
REMARK    1  A    between atoms: C_1  and  C_2
REMARK    2  A    between atoms: C_2  and  C_3
REMARK    3  A    between atoms: N_5  and  C_6
REMARK    4  A    between atoms: N_5  and  C_7
REMARK    5  A    between atoms: C_7  and  C_8
REMARK    6  A    between atoms: C_8  and  C_9
REMARK    7  A    between atoms: C_13  and  O_14
REMARK    8  A    between atoms: O_14  and  C_15
REMARK    9  A    between atoms: C_16  and  C_17
REMARK   10  A    between atoms: N_18  and  N_19
REMARK   11  A    between atoms: N_19  and  C_20
REMARK   12  A    between atoms: C_23  and  C_24
REMARK   13  A    between atoms: C_24  and  O_26
REMARK                            x       y       z     vdW  Elec       q    Type
REMARK                         _______ _______ _______ _____ _____    ______ ____
ROOT
ATOM      1  C   UNL     1       4.199   4.089  16.560  0.00  0.00    +0.000 A 
ATOM      2  C   UNL     1       4.776   3.782  15.318  0.00  0.00    +0.000 A 
ATOM      3  C   UNL     1       5.925   4.399  14.913  0.00  0.00    +0.000 A 
ATOM      4  C   UNL     1       6.560   5.324  15.690  0.00  0.00    +0.000 A 
ATOM      5  C   UNL     1       6.031   5.714  16.925  0.00  0.00    +0.000 A 
ATOM      6  C   UNL     1       4.801   5.116  17.352  0.00  0.00    +0.000 A 
ATOM      7  O   UNL     1       7.695   5.755  15.063  0.00  0.00    +0.000 OA
ATOM      8  C   UNL     1       7.705   4.956  13.862  0.00  0.00    +0.000 C 
ATOM      9  O   UNL     1       6.537   4.140  13.729  0.00  0.00    +0.000 OA
ENDROOT
BRANCH   5  10
ATOM     10  O   UNL     1       6.615   6.635  17.760  0.00  0.00    +0.000 OA
ATOM     11  C   UNL     1       7.672   6.171  18.601  0.00  0.00    +0.000 C 
ENDBRANCH   5  10
BRANCH   6  12
ATOM     12  C   UNL     1       4.170   5.619  18.629  0.00  0.00    +0.000 C 
ATOM     13  N   UNL     1       3.046   6.274  18.663  0.00  0.00    +0.000 NA
BRANCH  13  14
ATOM     14  N   UNL     1       2.593   6.674  19.886  0.00  0.00    +0.000 N 
ATOM     15  H   UNL     1       2.288   5.964  20.555  0.00  0.00    +0.000 HD
BRANCH  14  16
ATOM     16  C   UNL     1       1.827   7.861  19.975  0.00  0.00    +0.000 A 
ATOM     17  C   UNL     1       1.683   8.766  18.918  0.00  0.00    +0.000 A 
ATOM     18  C   UNL     1       0.932   9.951  19.043  0.00  0.00    +0.000 A 
ATOM     19  C   UNL     1       0.363  10.282  20.271  0.00  0.00    +0.000 A 
ATOM     20  C   UNL     1       0.521   9.410  21.353  0.00  0.00    +0.000 A 
ATOM     21  C   UNL     1       1.245   8.215  21.203  0.00  0.00    +0.000 A 
BRANCH  19  22
ATOM     22  C   UNL     1      -0.469  11.503  20.461  0.00  0.00    +0.000 C 
ATOM     23  O   UNL     1      -0.432  12.453  19.696  0.00  0.00    +0.000 OA
BRANCH  22  24
ATOM     24  O   UNL     1      -1.295  11.455  21.527  0.00  0.00    +0.000 OA
ATOM     25  H   UNL     1      -2.216  11.720  21.349  0.00  0.00    +0.000 HD
ENDBRANCH  22  24
ENDBRANCH  19  22
ENDBRANCH  14  16
ENDBRANCH  13  14
ENDBRANCH   6  12
BRANCH   1  26
ATOM     26  C   UNL     1       2.938   3.336  16.964  0.00  0.00    +0.000 C 
BRANCH  26  27
ATOM     27  C   UNL     1       3.110   2.087  17.852  0.00  0.00    +0.000 C 
BRANCH  27  30
ATOM     28  C   UNL     1       1.838   2.435  19.906  0.00  0.00    +0.000 C 
ATOM     29  O   UNL     1       0.814   2.577  19.233  0.00  0.00    +0.000 OA
ATOM     30  N   UNL     1       3.089   2.258  19.311  0.00  0.00    +0.000 N 
ATOM     31  C   UNL     1       4.359   2.183  20.032  0.00  0.00    +0.000 C 
BRANCH  28  33
ATOM     32  C   UNL     1       2.162   3.809  21.992  0.00  0.00    +0.000 C 
ATOM     33  C   UNL     1       1.772   2.450  21.422  0.00  0.00    +0.000 C 
ENDBRANCH  28  33
ENDBRANCH  27  30
ENDBRANCH  26  27
ENDBRANCH   1  26
TORSDOF 10
ENDMDL
MODEL 2
REMARK VINA RESULT:      -7.7      0.507      1.045
REMARK  Name = 
REMARK  13 active torsions:
REMARK  status: ('A' for Active; 'I' for Inactive)
REMARK    1  A    between atoms: C_1  and  C_2
REMARK    2  A    between atoms: C_2  and  C_3
REMARK    3  A    between atoms: N_5  and  C_6
REMARK    4  A    between atoms: N_5  and  C_7
REMARK    5  A    between atoms: C_7  and  C_8
REMARK    6  A    between atoms: C_8  and  C_9
REMARK    7  A    between atoms: C_13  and  O_14
REMARK    8  A    between atoms: O_14  and  C_15
REMARK    9  A    between atoms: C_16  and  C_17
REMARK   10  A    between atoms: N_18  and  N_19
REMARK   11  A    between atoms: N_19  and  C_20
REMARK   12  A    between atoms: C_23  and  C_24
REMARK   13  A    between atoms: C_24  and  O_26
REMARK                            x       y       z     vdW  Elec       q    Type
REMARK                         _______ _______ _______ _____ _____    ______ ____
ROOT
ATOM      1  C   UNL     1       4.166   4.192  16.657  0.00  0.00    +0.000 A 
ATOM      2  C   UNL     1       4.728   3.865  15.413  0.00  0.00    +0.000 A 
ATOM      3  C   UNL     1       5.899   4.437  15.007  0.00  0.00    +0.000 A 
ATOM      4  C   UNL     1       6.572   5.335  15.784  0.00  0.00    +0.000 A 
ATOM      5  C   UNL     1       6.062   5.743  17.020  0.00  0.00    +0.000 A 
ATOM      6  C   UNL     1       4.810   5.194  17.449  0.00  0.00    +0.000 A 
ATOM      7  O   UNL     1       7.722   5.722  15.156  0.00  0.00    +0.000 OA
ATOM      8  C   UNL     1       7.699   4.926  13.953  0.00  0.00    +0.000 C 
ATOM      9  O   UNL     1       6.499   4.156  13.822  0.00  0.00    +0.000 OA
ENDROOT
BRANCH   5  10
ATOM     10  O   UNL     1       6.682   6.639  17.856  0.00  0.00    +0.000 OA
ATOM     11  C   UNL     1       7.798   6.161  18.607  0.00  0.00    +0.000 C 
ENDBRANCH   5  10
BRANCH   6  12
ATOM     12  C   UNL     1       4.201   5.718  18.728  0.00  0.00    +0.000 C 
ATOM     13  N   UNL     1       2.992   6.194  18.804  0.00  0.00    +0.000 NA
BRANCH  13  14
ATOM     14  N   UNL     1       2.572   6.640  20.023  0.00  0.00    +0.000 N 
ATOM     15  H   UNL     1       2.259   5.958  20.716  0.00  0.00    +0.000 HD
BRANCH  14  16
ATOM     16  C   UNL     1       1.838   7.849  20.091  0.00  0.00    +0.000 A 
ATOM     17  C   UNL     1       1.063   8.219  21.196  0.00  0.00    +0.000 A 
ATOM     18  C   UNL     1       0.326   9.419  21.226  0.00  0.00    +0.000 A 
ATOM     19  C   UNL     1       0.303  10.244  20.104  0.00  0.00    +0.000 A 
ATOM     20  C   UNL     1       1.043   9.880  18.974  0.00  0.00    +0.000 A 
ATOM     21  C   UNL     1       1.800   8.696  18.971  0.00  0.00    +0.000 A 
BRANCH  19  22
ATOM     22  C   UNL     1      -0.431  11.540  20.083  0.00  0.00    +0.000 C 
ATOM     23  O   UNL     1       0.064  12.585  20.471  0.00  0.00    +0.000 OA
BRANCH  22  24
ATOM     24  O   UNL     1      -1.673  11.469  19.561  0.00  0.00    +0.000 OA
ATOM     25  H   UNL     1      -1.711  11.409  18.589  0.00  0.00    +0.000 HD
ENDBRANCH  22  24
ENDBRANCH  19  22
ENDBRANCH  14  16
ENDBRANCH  13  14
ENDBRANCH   6  12
BRANCH   1  26
ATOM     26  C   UNL     1       2.878   3.488  17.062  0.00  0.00    +0.000 C 
BRANCH  26  27
ATOM     27  C   UNL     1       2.999   2.261  17.987  0.00  0.00    +0.000 C 
BRANCH  27  30
ATOM     28  C   UNL     1       2.065   2.980  20.125  0.00  0.00    +0.000 C 
ATOM     29  O   UNL     1       1.039   3.338  19.543  0.00  0.00    +0.000 OA
ATOM     30  N   UNL     1       3.171   2.487  19.429  0.00  0.00    +0.000 N 
ATOM     31  C   UNL     1       4.456   2.138  20.033  0.00  0.00    +0.000 C 
BRANCH  28  33
ATOM     32  C   UNL     1       1.085   2.237  22.323  0.00  0.00    +0.000 C 
ATOM     33  C   UNL     1       2.163   3.067  21.637  0.00  0.00    +0.000 C 
ENDBRANCH  28  33
ENDBRANCH  27  30
ENDBRANCH  26  27
ENDBRANCH   1  26
TORSDOF 10
ENDMDL
MODEL 3
REMARK VINA RESULT:      -7.7      0.923      1.497
REMARK  Name = 
REMARK  13 active torsions:
REMARK  status: ('A' for Active; 'I' for Inactive)
REMARK    1  A    between atoms: C_1  and  C_2
REMARK    2  A    between atoms: C_2  and  C_3
REMARK    3  A    between atoms: N_5  and  C_6
REMARK    4  A    between atoms: N_5  and  C_7
REMARK    5  A    between atoms: C_7  and  C_8
REMARK    6  A    between atoms: C_8  and  C_9
REMARK    7  A    between atoms: C_13  and  O_14
REMARK    8  A    between atoms: O_14  and  C_15
REMARK    9  A    between atoms: C_16  and  C_17
REMARK   10  A    between atoms: N_18  and  N_19
REMARK   11  A    between atoms: N_19  and  C_20
REMARK   12  A    between atoms: C_23  and  C_24
REMARK   13  A    between atoms: C_24  and  O_26
REMARK                            x       y       z     vdW  Elec       q    Type
REMARK                         _______ _______ _______ _____ _____    ______ ____
ROOT
ATOM      1  C   UNL     1       4.349   4.140  16.436  0.00  0.00    +0.000 A 
ATOM      2  C   UNL     1       4.886   3.747  15.201  0.00  0.00    +0.000 A 
ATOM      3  C   UNL     1       6.023   4.329  14.720  0.00  0.00    +0.000 A 
ATOM      4  C   UNL     1       6.685   5.301  15.412  0.00  0.00    +0.000 A 
ATOM      5  C   UNL     1       6.197   5.776  16.634  0.00  0.00    +0.000 A 
ATOM      6  C   UNL     1       4.979   5.215  17.138  0.00  0.00    +0.000 A 
ATOM      7  O   UNL     1       7.802   5.682  14.724  0.00  0.00    +0.000 OA
ATOM      8  C   UNL     1       7.772   4.805  13.579  0.00  0.00    +0.000 C 
ATOM      9  O   UNL     1       6.598   3.987  13.538  0.00  0.00    +0.000 OA
ENDROOT
BRANCH   5  10
ATOM     10  O   UNL     1       6.808   6.748  17.387  0.00  0.00    +0.000 OA
ATOM     11  C   UNL     1       7.747   6.312  18.371  0.00  0.00    +0.000 C 
ENDBRANCH   5  10
BRANCH   6  12
ATOM     12  C   UNL     1       4.389   5.806  18.397  0.00  0.00    +0.000 C 
ATOM     13  N   UNL     1       3.111   5.972  18.580  0.00  0.00    +0.000 NA
BRANCH  13  14
ATOM     14  N   UNL     1       2.716   6.523  19.764  0.00  0.00    +0.000 N 
ATOM     15  H   UNL     1       2.412   5.904  20.518  0.00  0.00    +0.000 HD
BRANCH  14  16
ATOM     16  C   UNL     1       1.994   7.740  19.743  0.00  0.00    +0.000 A 
ATOM     17  C   UNL     1       1.237   8.206  20.824  0.00  0.00    +0.000 A 
ATOM     18  C   UNL     1       0.510   9.411  20.766  0.00  0.00    +0.000 A 
ATOM     19  C   UNL     1       0.477  10.141  19.581  0.00  0.00    +0.000 A 
ATOM     20  C   UNL     1       1.197   9.680  18.474  0.00  0.00    +0.000 A 
ATOM     21  C   UNL     1       1.945   8.493  18.558  0.00  0.00    +0.000 A 
BRANCH  19  22
ATOM     22  C   UNL     1      -0.247  11.438  19.464  0.00  0.00    +0.000 C 
ATOM     23  O   UNL     1      -0.519  12.133  20.429  0.00  0.00    +0.000 OA
BRANCH  22  24
ATOM     24  O   UNL     1      -0.542  11.799  18.197  0.00  0.00    +0.000 OA
ATOM     25  H   UNL     1       0.226  12.043  17.647  0.00  0.00    +0.000 HD
ENDBRANCH  22  24
ENDBRANCH  19  22
ENDBRANCH  14  16
ENDBRANCH  13  14
ENDBRANCH   6  12
BRANCH   1  26
ATOM     26  C   UNL     1       3.099   3.422  16.929  0.00  0.00    +0.000 C 
BRANCH  26  27
ATOM     27  C   UNL     1       3.296   2.198  17.845  0.00  0.00    +0.000 C 
BRANCH  27  30
ATOM     28  C   UNL     1       3.371   2.391  20.277  0.00  0.00    +0.000 C 
ATOM     29  O   UNL     1       4.600   2.467  20.221  0.00  0.00    +0.000 OA
ATOM     30  N   UNL     1       2.596   2.172  19.137  0.00  0.00    +0.000 N 
ATOM     31  C   UNL     1       1.148   1.970  19.131  0.00  0.00    +0.000 C 
BRANCH  28  33
ATOM     32  C   UNL     1       2.226   3.972  21.869  0.00  0.00    +0.000 C 
ATOM     33  C   UNL     1       2.649   2.532  21.605  0.00  0.00    +0.000 C 
ENDBRANCH  28  33
ENDBRANCH  27  30
ENDBRANCH  26  27
ENDBRANCH   1  26
TORSDOF 10
ENDMDL
MODEL 4
REMARK VINA RESULT:      -7.5      0.890      1.220
REMARK  Name = 
REMARK  13 active torsions:
REMARK  status: ('A' for Active; 'I' for Inactive)
REMARK    1  A    between atoms: C_1  and  C_2
REMARK    2  A    between atoms: C_2  and  C_3
REMARK    3  A    between atoms: N_5  and  C_6
REMARK    4  A    between atoms: N_5  and  C_7
REMARK    5  A    between atoms: C_7  and  C_8
REMARK    6  A    between atoms: C_8  and  C_9
REMARK    7  A    between atoms: C_13  and  O_14
REMARK    8  A    between atoms: O_14  and  C_15
REMARK    9  A    between atoms: C_16  and  C_17
REMARK   10  A    between atoms: N_18  and  N_19
REMARK   11  A    between atoms: N_19  and  C_20
REMARK   12  A    between atoms: C_23  and  C_24
REMARK   13  A    between atoms: C_24  and  O_26
REMARK                            x       y       z     vdW  Elec       q    Type
REMARK                         _______ _______ _______ _____ _____    ______ ____
ROOT
ATOM      1  C   UNL     1       4.243   4.150  16.439  0.00  0.00    +0.000 A 
ATOM      2  C   UNL     1       4.795   3.859  15.182  0.00  0.00    +0.000 A 
ATOM      3  C   UNL     1       5.970   4.433  14.789  0.00  0.00    +0.000 A 
ATOM      4  C   UNL     1       6.656   5.297  15.593  0.00  0.00    +0.000 A 
ATOM      5  C   UNL     1       6.156   5.667  16.846  0.00  0.00    +0.000 A 
ATOM      6  C   UNL     1       4.901   5.116  17.262  0.00  0.00    +0.000 A 
ATOM      7  O   UNL     1       7.807   5.694  14.972  0.00  0.00    +0.000 OA
ATOM      8  C   UNL     1       7.769   4.940  13.743  0.00  0.00    +0.000 C 
ATOM      9  O   UNL     1       6.561   4.187  13.591  0.00  0.00    +0.000 OA
ENDROOT
BRANCH   5  10
ATOM     10  O   UNL     1       6.790   6.528  17.709  0.00  0.00    +0.000 OA
ATOM     11  C   UNL     1       6.864   7.900  17.319  0.00  0.00    +0.000 C 
ENDBRANCH   5  10
BRANCH   6  12
ATOM     12  C   UNL     1       4.305   5.602  18.562  0.00  0.00    +0.000 C 
ATOM     13  N   UNL     1       3.237   6.344  18.627  0.00  0.00    +0.000 NA
BRANCH  13  14
ATOM     14  N   UNL     1       2.811   6.717  19.868  0.00  0.00    +0.000 N 
ATOM     15  H   UNL     1       2.614   5.991  20.560  0.00  0.00    +0.000 HD
BRANCH  14  16
ATOM     16  C   UNL     1       1.933   7.822  19.984  0.00  0.00    +0.000 A 
ATOM     17  C   UNL     1       1.704   8.736  18.950  0.00  0.00    +0.000 A 
ATOM     18  C   UNL     1       0.842   9.840  19.103  0.00  0.00    +0.000 A 
ATOM     19  C   UNL     1       0.241  10.081  20.337  0.00  0.00    +0.000 A 
ATOM     20  C   UNL     1       0.481   9.201  21.397  0.00  0.00    +0.000 A 
ATOM     21  C   UNL     1       1.317   8.086  21.219  0.00  0.00    +0.000 A 
BRANCH  19  22
ATOM     22  C   UNL     1      -0.705  11.212  20.555  0.00  0.00    +0.000 C 
ATOM     23  O   UNL     1      -1.307  11.377  21.602  0.00  0.00    +0.000 OA
BRANCH  22  24
ATOM     24  O   UNL     1      -0.808  12.061  19.510  0.00  0.00    +0.000 OA
ATOM     25  H   UNL     1      -0.989  12.988  19.748  0.00  0.00    +0.000 HD
ENDBRANCH  22  24
ENDBRANCH  19  22
ENDBRANCH  14  16
ENDBRANCH  13  14
ENDBRANCH   6  12
BRANCH   1  26
ATOM     26  C   UNL     1       2.949   3.445  16.827  0.00  0.00    +0.000 C 
BRANCH  26  27
ATOM     27  C   UNL     1       3.060   2.206  17.736  0.00  0.00    +0.000 C 
BRANCH  27  30
ATOM     28  C   UNL     1       3.221   2.360  20.167  0.00  0.00    +0.000 C 
ATOM     29  O   UNL     1       4.449   2.303  20.078  0.00  0.00    +0.000 OA
ATOM     30  N   UNL     1       2.396   2.239  19.047  0.00  0.00    +0.000 N 
ATOM     31  C   UNL     1       0.935   2.195  19.080  0.00  0.00    +0.000 C 
BRANCH  28  33
ATOM     32  C   UNL     1       2.154   4.015  21.738  0.00  0.00    +0.000 C 
ATOM     33  C   UNL     1       2.555   2.561  21.517  0.00  0.00    +0.000 C 
ENDBRANCH  28  33
ENDBRANCH  27  30
ENDBRANCH  26  27
ENDBRANCH   1  26
TORSDOF 10
ENDMDL
MODEL 5
REMARK VINA RESULT:      -7.3      0.931      1.441
REMARK  Name = 
REMARK  13 active torsions:
REMARK  status: ('A' for Active; 'I' for Inactive)
REMARK    1  A    between atoms: C_1  and  C_2
REMARK    2  A    between atoms: C_2  and  C_3
REMARK    3  A    between atoms: N_5  and  C_6
REMARK    4  A    between atoms: N_5  and  C_7
REMARK    5  A    between atoms: C_7  and  C_8
REMARK    6  A    between atoms: C_8  and  C_9
REMARK    7  A    between atoms: C_13  and  O_14
REMARK    8  A    between atoms: O_14  and  C_15
REMARK    9  A    between atoms: C_16  and  C_17
REMARK   10  A    between atoms: N_18  and  N_19
REMARK   11  A    between atoms: N_19  and  C_20
REMARK   12  A    between atoms: C_23  and  C_24
REMARK   13  A    between atoms: C_24  and  O_26
REMARK                            x       y       z     vdW  Elec       q    Type
REMARK                         _______ _______ _______ _____ _____    ______ ____
ROOT
ATOM      1  C   UNL     1       4.051   4.289  16.637  0.00  0.00    +0.000 A 
ATOM      2  C   UNL     1       4.669   3.793  15.479  0.00  0.00    +0.000 A 
ATOM      3  C   UNL     1       5.828   4.347  15.018  0.00  0.00    +0.000 A 
ATOM      4  C   UNL     1       6.435   5.389  15.657  0.00  0.00    +0.000 A 
ATOM      5  C   UNL     1       5.866   5.966  16.797  0.00  0.00    +0.000 A 
ATOM      6  C   UNL     1       4.624   5.434  17.274  0.00  0.00    +0.000 A 
ATOM      7  O   UNL     1       7.589   5.723  15.006  0.00  0.00    +0.000 OA
ATOM      8  C   UNL     1       7.641   4.745  13.948  0.00  0.00    +0.000 C 
ATOM      9  O   UNL     1       6.480   3.908  13.910  0.00  0.00    +0.000 OA
ENDROOT
BRANCH   5  10
ATOM     10  O   UNL     1       6.418   7.013  17.493  0.00  0.00    +0.000 OA
ATOM     11  C   UNL     1       7.606   6.742  18.237  0.00  0.00    +0.000 C 
ENDBRANCH   5  10
BRANCH   6  12
ATOM     12  C   UNL     1       3.950   6.128  18.434  0.00  0.00    +0.000 C 
ATOM     13  N   UNL     1       3.000   7.006  18.290  0.00  0.00    +0.000 NA
BRANCH  13  14
ATOM     14  N   UNL     1       2.484   7.560  19.425  0.00  0.00    +0.000 N 
ATOM     15  H   UNL     1       2.309   6.957  20.231  0.00  0.00    +0.000 HD
BRANCH  14  16
ATOM     16  C   UNL     1       1.519   8.589  19.304  0.00  0.00    +0.000 A 
ATOM     17  C   UNL     1       0.837   9.138  20.395  0.00  0.00    +0.000 A 
ATOM     18  C   UNL     1      -0.134  10.146  20.242  0.00  0.00    +0.000 A 
ATOM     19  C   UNL     1      -0.487  10.577  18.965  0.00  0.00    +0.000 A 
ATOM     20  C   UNL     1       0.155  10.019  17.855  0.00  0.00    +0.000 A 
ATOM     21  C   UNL     1       1.146   9.038  18.026  0.00  0.00    +0.000 A 
BRANCH  19  22
ATOM     22  C   UNL     1      -1.484  11.661  18.737  0.00  0.00    +0.000 C 
ATOM     23  O   UNL     1      -2.682  11.501  18.895  0.00  0.00    +0.000 OA
BRANCH  22  24
ATOM     24  O   UNL     1      -0.945  12.846  18.380  0.00  0.00    +0.000 OA
ATOM     25  H   UNL     1      -0.506  13.334  19.100  0.00  0.00    +0.000 HD
ENDBRANCH  22  24
ENDBRANCH  19  22
ENDBRANCH  14  16
ENDBRANCH  13  14
ENDBRANCH   6  12
BRANCH   1  26
ATOM     26  C   UNL     1       2.780   3.599  17.116  0.00  0.00    +0.000 C 
BRANCH  26  27
ATOM     27  C   UNL     1       2.940   2.359  18.017  0.00  0.00    +0.000 C 
BRANCH  27  30
ATOM     28  C   UNL     1       2.046   2.962  20.207  0.00  0.00    +0.000 C 
ATOM     29  O   UNL     1       0.975   3.259  19.675  0.00  0.00    +0.000 OA
ATOM     30  N   UNL     1       3.154   2.565  19.457  0.00  0.00    +0.000 N 
ATOM     31  C   UNL     1       4.484   2.293  20.001  0.00  0.00    +0.000 C 
BRANCH  28  33
ATOM     32  C   UNL     1       1.050   2.320  22.430  0.00  0.00    +0.000 C 
ATOM     33  C   UNL     1       2.199   3.022  21.716  0.00  0.00    +0.000 C 
ENDBRANCH  28  33
ENDBRANCH  27  30
ENDBRANCH  26  27
ENDBRANCH   1  26
TORSDOF 10
ENDMDL
MODEL 6
REMARK VINA RESULT:      -7.2      3.603      6.688
REMARK  Name = 
REMARK  13 active torsions:
REMARK  status: ('A' for Active; 'I' for Inactive)
REMARK    1  A    between atoms: C_1  and  C_2
REMARK    2  A    between atoms: C_2  and  C_3
REMARK    3  A    between atoms: N_5  and  C_6
REMARK    4  A    between atoms: N_5  and  C_7
REMARK    5  A    between atoms: C_7  and  C_8
REMARK    6  A    between atoms: C_8  and  C_9
REMARK    7  A    between atoms: C_13  and  O_14
REMARK    8  A    between atoms: O_14  and  C_15
REMARK    9  A    between atoms: C_16  and  C_17
REMARK   10  A    between atoms: N_18  and  N_19
REMARK   11  A    between atoms: N_19  and  C_20
REMARK   12  A    between atoms: C_23  and  C_24
REMARK   13  A    between atoms: C_24  and  O_26
REMARK                            x       y       z     vdW  Elec       q    Type
REMARK                         _______ _______ _______ _____ _____    ______ ____
ROOT
ATOM      1  C   UNL     1       3.377   6.614  17.805  0.00  0.00    +0.000 A 
ATOM      2  C   UNL     1       2.347   5.704  18.089  0.00  0.00    +0.000 A 
ATOM      3  C   UNL     1       2.547   4.361  17.951  0.00  0.00    +0.000 A 
ATOM      4  C   UNL     1       3.744   3.848  17.543  0.00  0.00    +0.000 A 
ATOM      5  C   UNL     1       4.811   4.687  17.205  0.00  0.00    +0.000 A 
ATOM      6  C   UNL     1       4.611   6.103  17.296  0.00  0.00    +0.000 A 
ATOM      7  O   UNL     1       3.681   2.483  17.523  0.00  0.00    +0.000 OA
ATOM      8  C   UNL     1       2.348   2.229  18.011  0.00  0.00    +0.000 C 
ATOM      9  O   UNL     1       1.596   3.430  18.218  0.00  0.00    +0.000 OA
ENDROOT
BRANCH   5  10
ATOM     10  O   UNL     1       6.043   4.244  16.790  0.00  0.00    +0.000 OA
ATOM     11  C   UNL     1       6.156   3.820  15.431  0.00  0.00    +0.000 C 
ENDBRANCH   5  10
BRANCH   6  12
ATOM     12  C   UNL     1       5.721   7.011  16.822  0.00  0.00    +0.000 C 
ATOM     13  N   UNL     1       6.735   7.351  17.565  0.00  0.00    +0.000 NA
BRANCH  13  14
ATOM     14  N   UNL     1       7.663   8.184  17.011  0.00  0.00    +0.000 N 
ATOM     15  H   UNL     1       8.362   7.791  16.377  0.00  0.00    +0.000 HD
BRANCH  14  16
ATOM     16  C   UNL     1       8.184   9.242  17.794  0.00  0.00    +0.000 A 
ATOM     17  C   UNL     1       8.146  10.584  17.399  0.00  0.00    +0.000 A 
ATOM     18  C   UNL     1       8.692  11.614  18.189  0.00  0.00    +0.000 A 
ATOM     19  C   UNL     1       9.354  11.298  19.373  0.00  0.00    +0.000 A 
ATOM     20  C   UNL     1       9.436   9.961  19.774  0.00  0.00    +0.000 A 
ATOM     21  C   UNL     1       8.857   8.948  18.991  0.00  0.00    +0.000 A 
BRANCH  19  22
ATOM     22  C   UNL     1       9.926  12.343  20.269  0.00  0.00    +0.000 C 
ATOM     23  O   UNL     1      10.158  13.480  19.894  0.00  0.00    +0.000 OA
BRANCH  22  24
ATOM     24  O   UNL     1      10.127  11.937  21.540  0.00  0.00    +0.000 OA
ATOM     25  H   UNL     1       9.726  11.078  21.769  0.00  0.00    +0.000 HD
ENDBRANCH  22  24
ENDBRANCH  19  22
ENDBRANCH  14  16
ENDBRANCH  13  14
ENDBRANCH   6  12
BRANCH   1  26
ATOM     26  C   UNL     1       3.095   8.096  18.017  0.00  0.00    +0.000 C 
BRANCH  26  27
ATOM     27  C   UNL     1       1.621   8.527  18.148  0.00  0.00    +0.000 C 
BRANCH  27  30
ATOM     28  C   UNL     1       1.170   8.812  20.530  0.00  0.00    +0.000 C 
ATOM     29  O   UNL     1       1.277   7.594  20.683  0.00  0.00    +0.000 OA
ATOM     30  N   UNL     1       1.246   9.403  19.267  0.00  0.00    +0.000 N 
ATOM     31  C   UNL     1       1.030  10.822  18.989  0.00  0.00    +0.000 C 
BRANCH  28  33
ATOM     32  C   UNL     1      -0.268   9.297  22.540  0.00  0.00    +0.000 C 
ATOM     33  C   UNL     1       0.946   9.723  21.723  0.00  0.00    +0.000 C 
ENDBRANCH  28  33
ENDBRANCH  27  30
ENDBRANCH  26  27
ENDBRANCH   1  26
TORSDOF 10
ENDMDL
MODEL 7
REMARK VINA RESULT:      -7.1      0.880      1.368
REMARK  Name = 
REMARK  13 active torsions:
REMARK  status: ('A' for Active; 'I' for Inactive)
REMARK    1  A    between atoms: C_1  and  C_2
REMARK    2  A    between atoms: C_2  and  C_3
REMARK    3  A    between atoms: N_5  and  C_6
REMARK    4  A    between atoms: N_5  and  C_7
REMARK    5  A    between atoms: C_7  and  C_8
REMARK    6  A    between atoms: C_8  and  C_9
REMARK    7  A    between atoms: C_13  and  O_14
REMARK    8  A    between atoms: O_14  and  C_15
REMARK    9  A    between atoms: C_16  and  C_17
REMARK   10  A    between atoms: N_18  and  N_19
REMARK   11  A    between atoms: N_19  and  C_20
REMARK   12  A    between atoms: C_23  and  C_24
REMARK   13  A    between atoms: C_24  and  O_26
REMARK                            x       y       z     vdW  Elec       q    Type
REMARK                         _______ _______ _______ _____ _____    ______ ____
ROOT
ATOM      1  C   UNL     1       4.607   3.964  16.046  0.00  0.00    +0.000 A 
ATOM      2  C   UNL     1       5.149   3.607  14.801  0.00  0.00    +0.000 A 
ATOM      3  C   UNL     1       6.215   4.286  14.286  0.00  0.00    +0.000 A 
ATOM      4  C   UNL     1       6.799   5.325  14.951  0.00  0.00    +0.000 A 
ATOM      5  C   UNL     1       6.298   5.767  16.179  0.00  0.00    +0.000 A 
ATOM      6  C   UNL     1       5.150   5.102  16.720  0.00  0.00    +0.000 A 
ATOM      7  O   UNL     1       7.858   5.799  14.230  0.00  0.00    +0.000 OA
ATOM      8  C   UNL     1       7.884   4.909  13.097  0.00  0.00    +0.000 C 
ATOM      9  O   UNL     1       6.790   3.984  13.094  0.00  0.00    +0.000 OA
ENDROOT
BRANCH   5  10
ATOM     10  O   UNL     1       6.834   6.802  16.906  0.00  0.00    +0.000 OA
ATOM     11  C   UNL     1       7.648   6.455  18.027  0.00  0.00    +0.000 C 
ENDBRANCH   5  10
BRANCH   6  12
ATOM     12  C   UNL     1       4.538   5.651  17.987  0.00  0.00    +0.000 C 
ATOM     13  N   UNL     1       3.379   6.243  18.025  0.00  0.00    +0.000 NA
BRANCH  13  14
ATOM     14  N   UNL     1       2.949   6.697  19.237  0.00  0.00    +0.000 N 
ATOM     15  H   UNL     1       2.716   6.017  19.963  0.00  0.00    +0.000 HD
BRANCH  14  16
ATOM     16  C   UNL     1       2.111   7.838  19.281  0.00  0.00    +0.000 A 
ATOM     17  C   UNL     1       1.490   8.293  20.449  0.00  0.00    +0.000 A 
ATOM     18  C   UNL     1       0.643   9.419  20.457  0.00  0.00    +0.000 A 
ATOM     19  C   UNL     1       0.351  10.072  19.263  0.00  0.00    +0.000 A 
ATOM     20  C   UNL     1       0.932   9.616  18.075  0.00  0.00    +0.000 A 
ATOM     21  C   UNL     1       1.802   8.512  18.088  0.00  0.00    +0.000 A 
BRANCH  19  22
ATOM     22  C   UNL     1      -0.511  11.286  19.208  0.00  0.00    +0.000 C 
ATOM     23  O   UNL     1      -1.299  11.577  20.093  0.00  0.00    +0.000 OA
BRANCH  22  24
ATOM     24  O   UNL     1      -0.318  12.058  18.118  0.00  0.00    +0.000 OA
ATOM     25  H   UNL     1      -0.793  12.909  18.125  0.00  0.00    +0.000 HD
ENDBRANCH  22  24
ENDBRANCH  19  22
ENDBRANCH  14  16
ENDBRANCH  13  14
ENDBRANCH   6  12
BRANCH   1  26
ATOM     26  C   UNL     1       3.441   3.139  16.577  0.00  0.00    +0.000 C 
BRANCH  26  27
ATOM     27  C   UNL     1       3.743   2.120  17.693  0.00  0.00    +0.000 C 
BRANCH  27  30
ATOM     28  C   UNL     1       2.019   2.773  19.294  0.00  0.00    +0.000 C 
ATOM     29  O   UNL     1       1.218   2.893  18.364  0.00  0.00    +0.000 OA
ATOM     30  N   UNL     1       3.362   2.460  19.072  0.00  0.00    +0.000 N 
ATOM     31  C   UNL     1       4.393   2.399  20.106  0.00  0.00    +0.000 C 
BRANCH  28  33
ATOM     32  C   UNL     1       0.937   4.337  20.945  0.00  0.00    +0.000 C 
ATOM     33  C   UNL     1       1.568   2.967  20.730  0.00  0.00    +0.000 C 
ENDBRANCH  28  33
ENDBRANCH  27  30
ENDBRANCH  26  27
ENDBRANCH   1  26
TORSDOF 10
ENDMDL
MODEL 8
REMARK VINA RESULT:      -7.0      2.086      3.263
REMARK  Name = 
REMARK  13 active torsions:
REMARK  status: ('A' for Active; 'I' for Inactive)
REMARK    1  A    between atoms: C_1  and  C_2
REMARK    2  A    between atoms: C_2  and  C_3
REMARK    3  A    between atoms: N_5  and  C_6
REMARK    4  A    between atoms: N_5  and  C_7
REMARK    5  A    between atoms: C_7  and  C_8
REMARK    6  A    between atoms: C_8  and  C_9
REMARK    7  A    between atoms: C_13  and  O_14
REMARK    8  A    between atoms: O_14  and  C_15
REMARK    9  A    between atoms: C_16  and  C_17
REMARK   10  A    between atoms: N_18  and  N_19
REMARK   11  A    between atoms: N_19  and  C_20
REMARK   12  A    between atoms: C_23  and  C_24
REMARK   13  A    between atoms: C_24  and  O_26
REMARK                            x       y       z     vdW  Elec       q    Type
REMARK                         _______ _______ _______ _____ _____    ______ ____
ROOT
ATOM      1  C   UNL     1       3.355   5.961  19.432  0.00  0.00    +0.000 A 
ATOM      2  C   UNL     1       4.421   5.081  19.677  0.00  0.00    +0.000 A 
ATOM      3  C   UNL     1       5.484   5.022  18.822  0.00  0.00    +0.000 A 
ATOM      4  C   UNL     1       5.562   5.810  17.710  0.00  0.00    +0.000 A 
ATOM      5  C   UNL     1       4.526   6.687  17.375  0.00  0.00    +0.000 A 
ATOM      6  C   UNL     1       3.377   6.735  18.230  0.00  0.00    +0.000 A 
ATOM      7  O   UNL     1       6.737   5.573  17.056  0.00  0.00    +0.000 OA
ATOM      8  C   UNL     1       7.379   4.607  17.914  0.00  0.00    +0.000 C 
ATOM      9  O   UNL     1       6.549   4.199  19.006  0.00  0.00    +0.000 OA
ENDROOT
BRANCH   5  10
ATOM     10  O   UNL     1       4.535   7.512  16.276  0.00  0.00    +0.000 OA
ATOM     11  C   UNL     1       4.908   6.925  15.028  0.00  0.00    +0.000 C 
ENDBRANCH   5  10
BRANCH   6  12
ATOM     12  C   UNL     1       2.210   7.595  17.808  0.00  0.00    +0.000 C 
ATOM     13  N   UNL     1       2.088   8.849  18.137  0.00  0.00    +0.000 NA
BRANCH  13  14
ATOM     14  N   UNL     1       0.979   9.506  17.692  0.00  0.00    +0.000 N 
ATOM     15  H   UNL     1       1.018   9.986  16.790  0.00  0.00    +0.000 HD
BRANCH  14  16
ATOM     16  C   UNL     1       0.170  10.193  18.630  0.00  0.00    +0.000 A 
ATOM     17  C   UNL     1      -0.957  10.941  18.273  0.00  0.00    +0.000 A 
ATOM     18  C   UNL     1      -1.730  11.631  19.227  0.00  0.00    +0.000 A 
ATOM     19  C   UNL     1      -1.337  11.636  20.563  0.00  0.00    +0.000 A 
ATOM     20  C   UNL     1      -0.193  10.924  20.940  0.00  0.00    +0.000 A 
ATOM     21  C   UNL     1       0.548  10.212  19.982  0.00  0.00    +0.000 A 
BRANCH  19  22
ATOM     22  C   UNL     1      -2.127  12.320  21.624  0.00  0.00    +0.000 C 
ATOM     23  O   UNL     1      -1.897  12.181  22.814  0.00  0.00    +0.000 OA
BRANCH  22  24
ATOM     24  O   UNL     1      -3.093  13.140  21.158  0.00  0.00    +0.000 OA
ATOM     25  H   UNL     1      -2.780  13.865  20.587  0.00  0.00    +0.000 HD
ENDBRANCH  22  24
ENDBRANCH  19  22
ENDBRANCH  14  16
ENDBRANCH  13  14
ENDBRANCH   6  12
BRANCH   1  26
ATOM     26  C   UNL     1       2.220   6.002  20.447  0.00  0.00    +0.000 C 
BRANCH  26  27
ATOM     27  C   UNL     1       1.078   4.980  20.277  0.00  0.00    +0.000 C 
BRANCH  27  30
ATOM     28  C   UNL     1       1.482   3.158  18.703  0.00  0.00    +0.000 C 
ATOM     29  O   UNL     1       1.121   3.891  17.780  0.00  0.00    +0.000 OA
ATOM     30  N   UNL     1       1.430   3.574  20.036  0.00  0.00    +0.000 N 
ATOM     31  C   UNL     1       1.743   2.734  21.191  0.00  0.00    +0.000 C 
BRANCH  28  33
ATOM     32  C   UNL     1       3.479   1.768  18.050  0.00  0.00    +0.000 C 
ATOM     33  C   UNL     1       2.001   1.760  18.420  0.00  0.00    +0.000 C 
ENDBRANCH  28  33
ENDBRANCH  27  30
ENDBRANCH  26  27
ENDBRANCH   1  26
TORSDOF 10
ENDMDL
MODEL 9
REMARK VINA RESULT:      -7.0      3.512      6.922
REMARK  Name = 
REMARK  13 active torsions:
REMARK  status: ('A' for Active; 'I' for Inactive)
REMARK    1  A    between atoms: C_1  and  C_2
REMARK    2  A    between atoms: C_2  and  C_3
REMARK    3  A    between atoms: N_5  and  C_6
REMARK    4  A    between atoms: N_5  and  C_7
REMARK    5  A    between atoms: C_7  and  C_8
REMARK    6  A    between atoms: C_8  and  C_9
REMARK    7  A    between atoms: C_13  and  O_14
REMARK    8  A    between atoms: O_14  and  C_15
REMARK    9  A    between atoms: C_16  and  C_17
REMARK   10  A    between atoms: N_18  and  N_19
REMARK   11  A    between atoms: N_19  and  C_20
REMARK   12  A    between atoms: C_23  and  C_24
REMARK   13  A    between atoms: C_24  and  O_26
REMARK                            x       y       z     vdW  Elec       q    Type
REMARK                         _______ _______ _______ _____ _____    ______ ____
ROOT
ATOM      1  C   UNL     1       3.357   6.621  17.757  0.00  0.00    +0.000 A 
ATOM      2  C   UNL     1       2.295   5.750  18.047  0.00  0.00    +0.000 A 
ATOM      3  C   UNL     1       2.465   4.398  17.975  0.00  0.00    +0.000 A 
ATOM      4  C   UNL     1       3.661   3.838  17.629  0.00  0.00    +0.000 A 
ATOM      5  C   UNL     1       4.759   4.635  17.289  0.00  0.00    +0.000 A 
ATOM      6  C   UNL     1       4.593   6.058  17.311  0.00  0.00    +0.000 A 
ATOM      7  O   UNL     1       3.564   2.476  17.668  0.00  0.00    +0.000 OA
ATOM      8  C   UNL     1       2.210   2.276  18.123  0.00  0.00    +0.000 C 
ATOM      9  O   UNL     1       1.483   3.503  18.252  0.00  0.00    +0.000 OA
ENDROOT
BRANCH   5  10
ATOM     10  O   UNL     1       5.992   4.144  16.934  0.00  0.00    +0.000 OA
ATOM     11  C   UNL     1       6.189   3.820  15.557  0.00  0.00    +0.000 C 
ENDBRANCH   5  10
BRANCH   6  12
ATOM     12  C   UNL     1       5.740   6.917  16.834  0.00  0.00    +0.000 C 
ATOM     13  N   UNL     1       6.667   7.377  17.623  0.00  0.00    +0.000 NA
BRANCH  13  14
ATOM     14  N   UNL     1       7.643   8.146  17.059  0.00  0.00    +0.000 N 
ATOM     15  H   UNL     1       8.347   7.696  16.472  0.00  0.00    +0.000 HD
BRANCH  14  16
ATOM     16  C   UNL     1       8.174   9.228  17.802  0.00  0.00    +0.000 A 
ATOM     17  C   UNL     1       8.163  10.552  17.351  0.00  0.00    +0.000 A 
ATOM     18  C   UNL     1       8.720  11.604  18.103  0.00  0.00    +0.000 A 
ATOM     19  C   UNL     1       9.366  11.328  19.306  0.00  0.00    +0.000 A 
ATOM     20  C   UNL     1       9.421  10.007  19.763  0.00  0.00    +0.000 A 
ATOM     21  C   UNL     1       8.831   8.972  19.017  0.00  0.00    +0.000 A 
BRANCH  19  22
ATOM     22  C   UNL     1       9.948  12.399  20.163  0.00  0.00    +0.000 C 
ATOM     23  O   UNL     1      10.085  13.549  19.781  0.00  0.00    +0.000 OA
BRANCH  22  24
ATOM     24  O   UNL     1      10.271  11.999  21.411  0.00  0.00    +0.000 OA
ATOM     25  H   UNL     1       9.530  11.976  22.043  0.00  0.00    +0.000 HD
ENDBRANCH  22  24
ENDBRANCH  19  22
ENDBRANCH  14  16
ENDBRANCH  13  14
ENDBRANCH   6  12
BRANCH   1  26
ATOM     26  C   UNL     1       3.106   8.117  17.893  0.00  0.00    +0.000 C 
BRANCH  26  27
ATOM     27  C   UNL     1       1.662   8.573  18.183  0.00  0.00    +0.000 C 
BRANCH  27  30
ATOM     28  C   UNL     1       1.039  10.466  19.593  0.00  0.00    +0.000 C 
ATOM     29  O   UNL     1       1.149  11.212  18.618  0.00  0.00    +0.000 OA
ATOM     30  N   UNL     1       1.352   9.107  19.517  0.00  0.00    +0.000 N 
ATOM     31  C   UNL     1       1.346   8.179  20.646  0.00  0.00    +0.000 C 
BRANCH  28  33
ATOM     32  C   UNL     1      -0.191  12.324  20.768  0.00  0.00    +0.000 C 
ATOM     33  C   UNL     1       0.557  11.006  20.927  0.00  0.00    +0.000 C 
ENDBRANCH  28  33
ENDBRANCH  27  30
ENDBRANCH  26  27
ENDBRANCH   1  26
TORSDOF 10
ENDMDL
