MODEL 1
REMARK VINA RESULT:      -7.6      0.000      0.000
REMARK  Name = 
REMARK  2 active torsions:
REMARK  status: ('A' for Active; 'I' for Inactive)
REMARK    1  A    between atoms: C_4  and  C_5
REMARK    2  A    between atoms: C_9  and  C_11
REMARK                            x       y       z     vdW  Elec       q    Type
REMARK                         _______ _______ _______ _____ _____    ______ ____
ROOT
ATOM      1  C   UNL     1       4.704   3.806  18.739  0.00  0.00    +0.000 C 
ATOM      2  C   UNL     1       5.446   5.133  18.998  0.00  0.00    +0.000 C 
ATOM      3  C   UNL     1       5.468   6.149  17.849  0.00  0.00    +0.000 C 
ATOM      4  N   UNL     1       5.523   5.509  16.540  0.00  0.00    +0.000 N 
ATOM      5  C   UNL     1       6.726   5.501  15.809  0.00  0.00    +0.000 C 
ATOM      6  O   UNL     1       7.751   5.978  16.289  0.00  0.00    +0.000 OA
ATOM      7  C   UNL     1       4.418   4.579  16.330  0.00  0.00    +0.000 C 
ATOM      8  C   UNL     1       4.600   3.394  17.263  0.00  0.00    +0.000 C 
ENDROOT
BRANCH   1  12
ATOM      9  N   UNL     1       1.597   2.393  22.211  0.00  0.00    +0.000 N 
ATOM     10  C   UNL     1       2.034   2.987  21.087  0.00  0.00    +0.000 A 
ATOM     11  N   UNL     1       3.247   2.846  20.588  0.00  0.00    +0.000 NA
ATOM     12  C   UNL     1       3.376   3.624  19.440  0.00  0.00    +0.000 A 
ATOM     13  C   UNL     1       2.228   4.314  19.087  0.00  0.00    +0.000 A 
ATOM     14  S   UNL     1       0.978   4.015  20.206  0.00  0.00    +0.000 S 
ATOM     15  H   UNL     1       2.105   1.581  22.528  0.00  0.00    +0.000 HD
ATOM     16  H   UNL     1       0.597   2.366  22.373  0.00  0.00    +0.000 HD
ENDBRANCH   1  12
BRANCH   5  17
ATOM     17  C   UNL     1       6.739   4.898  14.490  0.00  0.00    +0.000 A 
ATOM     18  C   UNL     1       6.092   3.791  13.978  0.00  0.00    +0.000 A 
ATOM     19  N   UNL     1       6.413   3.612  12.653  0.00  0.00    +0.000 NA
ATOM     20  C   UNL     1       7.274   4.575  12.418  0.00  0.00    +0.000 A 
ATOM     21  O   UNL     1       7.549   5.372  13.481  0.00  0.00    +0.000 OA
ENDBRANCH   5  17
TORSDOF 2
ENDMDL
MODEL 2
REMARK VINA RESULT:      -7.4      2.123      3.596
REMARK  Name = 
REMARK  2 active torsions:
REMARK  status: ('A' for Active; 'I' for Inactive)
REMARK    1  A    between atoms: C_4  and  C_5
REMARK    2  A    between atoms: C_9  and  C_11
REMARK                            x       y       z     vdW  Elec       q    Type
REMARK                         _______ _______ _______ _____ _____    ______ ____
ROOT
ATOM      1  C   UNL     1       3.510   4.727  17.791  0.00  0.00    +0.000 C 
ATOM      2  C   UNL     1       4.345   3.973  16.735  0.00  0.00    +0.000 C 
ATOM      3  C   UNL     1       5.860   3.912  16.966  0.00  0.00    +0.000 C 
ATOM      4  N   UNL     1       6.376   5.121  17.597  0.00  0.00    +0.000 N 
ATOM      5  C   UNL     1       7.096   6.062  16.836  0.00  0.00    +0.000 C 
ATOM      6  O   UNL     1       7.244   5.905  15.627  0.00  0.00    +0.000 OA
ATOM      7  C   UNL     1       5.715   5.410  18.866  0.00  0.00    +0.000 C 
ATOM      8  C   UNL     1       4.275   5.800  18.582  0.00  0.00    +0.000 C 
ENDROOT
BRANCH   1  12
ATOM      9  N   UNL     1       1.938   2.836  21.993  0.00  0.00    +0.000 N 
ATOM     10  C   UNL     1       1.978   3.102  20.676  0.00  0.00    +0.000 A 
ATOM     11  N   UNL     1       2.955   3.751  20.071  0.00  0.00    +0.000 NA
ATOM     12  C   UNL     1       2.663   3.882  18.716  0.00  0.00    +0.000 A 
ATOM     13  C   UNL     1       1.471   3.291  18.330  0.00  0.00    +0.000 A 
ATOM     14  S   UNL     1       0.689   2.584  19.667  0.00  0.00    +0.000 S 
ATOM     15  H   UNL     1       2.813   2.868  22.494  0.00  0.00    +0.000 HD
ATOM     16  H   UNL     1       1.284   2.132  22.314  0.00  0.00    +0.000 HD
ENDBRANCH   1  12
BRANCH   5  17
ATOM     17  C   UNL     1       7.638   7.231  17.501  0.00  0.00    +0.000 A 
ATOM     18  C   UNL     1       8.387   7.370  18.652  0.00  0.00    +0.000 A 
ATOM     19  N   UNL     1       8.678   8.693  18.884  0.00  0.00    +0.000 NA
ATOM     20  C   UNL     1       8.062   9.315  17.905  0.00  0.00    +0.000 A 
ATOM     21  O   UNL     1       7.385   8.508  17.048  0.00  0.00    +0.000 OA
ENDBRANCH   5  17
TORSDOF 2
ENDMDL
MODEL 3
REMARK VINA RESULT:      -7.2      2.522      2.759
REMARK  Name = 
REMARK  2 active torsions:
REMARK  status: ('A' for Active; 'I' for Inactive)
REMARK    1  A    between atoms: C_4  and  C_5
REMARK    2  A    between atoms: C_9  and  C_11
REMARK                            x       y       z     vdW  Elec       q    Type
REMARK                         _______ _______ _______ _____ _____    ______ ____
ROOT
ATOM      1  C   UNL     1       3.947   5.668  18.287  0.00  0.00    +0.000 C 
ATOM      2  C   UNL     1       5.303   5.589  19.019  0.00  0.00    +0.000 C 
ATOM      3  C   UNL     1       6.526   6.135  18.270  0.00  0.00    +0.000 C 
ATOM      4  N   UNL     1       6.443   5.912  16.832  0.00  0.00    +0.000 N 
ATOM      5  C   UNL     1       7.221   4.908  16.226  0.00  0.00    +0.000 C 
ATOM      6  O   UNL     1       7.931   4.172  16.908  0.00  0.00    +0.000 OA
ATOM      7  C   UNL     1       5.234   6.489  16.250  0.00  0.00    +0.000 C 
ATOM      8  C   UNL     1       4.034   5.706  16.754  0.00  0.00    +0.000 C 
ENDROOT
BRANCH   1  12
ATOM      9  N   UNL     1       1.274   8.143  21.517  0.00  0.00    +0.000 N 
ATOM     10  C   UNL     1       1.814   7.807  20.333  0.00  0.00    +0.000 A 
ATOM     11  N   UNL     1       2.531   6.721  20.116  0.00  0.00    +0.000 NA
ATOM     12  C   UNL     1       2.963   6.700  18.793  0.00  0.00    +0.000 A 
ATOM     13  C   UNL     1       2.526   7.772  18.033  0.00  0.00    +0.000 A 
ATOM     14  S   UNL     1       1.586   8.835  18.976  0.00  0.00    +0.000 S 
ATOM     15  H   UNL     1       1.156   7.404  22.193  0.00  0.00    +0.000 HD
ATOM     16  H   UNL     1       0.549   8.851  21.523  0.00  0.00    +0.000 HD
ENDBRANCH   1  12
BRANCH   5  17
ATOM     17  C   UNL     1       7.154   4.742  14.787  0.00  0.00    +0.000 A 
ATOM     18  C   UNL     1       6.419   3.883  13.994  0.00  0.00    +0.000 A 
ATOM     19  N   UNL     1       6.686   4.104  12.664  0.00  0.00    +0.000 NA
ATOM     20  C   UNL     1       7.602   5.044  12.691  0.00  0.00    +0.000 A 
ATOM     21  O   UNL     1       7.963   5.459  13.933  0.00  0.00    +0.000 OA
ENDBRANCH   5  17
TORSDOF 2
ENDMDL
MODEL 4
REMARK VINA RESULT:      -7.2      2.441      3.823
REMARK  Name = 
REMARK  2 active torsions:
REMARK  status: ('A' for Active; 'I' for Inactive)
REMARK    1  A    between atoms: C_4  and  C_5
REMARK    2  A    between atoms: C_9  and  C_11
REMARK                            x       y       z     vdW  Elec       q    Type
REMARK                         _______ _______ _______ _____ _____    ______ ____
ROOT
ATOM      1  C   UNL     1       3.411   5.060  17.371  0.00  0.00    +0.000 C 
ATOM      2  C   UNL     1       4.326   4.202  16.473  0.00  0.00    +0.000 C 
ATOM      3  C   UNL     1       5.791   4.064  16.908  0.00  0.00    +0.000 C 
ATOM      4  N   UNL     1       6.297   5.272  17.547  0.00  0.00    +0.000 N 
ATOM      5  C   UNL     1       7.170   6.127  16.850  0.00  0.00    +0.000 C 
ATOM      6  O   UNL     1       7.466   5.898  15.680  0.00  0.00    +0.000 OA
ATOM      7  C   UNL     1       5.495   5.667  18.702  0.00  0.00    +0.000 C 
ATOM      8  C   UNL     1       4.133   6.125  18.209  0.00  0.00    +0.000 C 
ENDROOT
BRANCH   1  12
ATOM      9  N   UNL     1       0.564   1.371  18.782  0.00  0.00    +0.000 N 
ATOM     10  C   UNL     1       1.164   2.573  18.813  0.00  0.00    +0.000 A 
ATOM     11  N   UNL     1       1.899   3.070  17.837  0.00  0.00    +0.000 NA
ATOM     12  C   UNL     1       2.396   4.316  18.210  0.00  0.00    +0.000 A 
ATOM     13  C   UNL     1       1.988   4.740  19.465  0.00  0.00    +0.000 A 
ATOM     14  S   UNL     1       0.995   3.569  20.202  0.00  0.00    +0.000 S 
ATOM     15  H   UNL     1       0.419   0.954  17.874  0.00  0.00    +0.000 HD
ATOM     16  H   UNL     1      -0.166   1.188  19.461  0.00  0.00    +0.000 HD
ENDBRANCH   1  12
BRANCH   5  17
ATOM     17  C   UNL     1       7.696   7.297  17.528  0.00  0.00    +0.000 A 
ATOM     18  C   UNL     1       8.416   7.435  18.698  0.00  0.00    +0.000 A 
ATOM     19  N   UNL     1       8.701   8.758  18.938  0.00  0.00    +0.000 NA
ATOM     20  C   UNL     1       8.110   9.380  17.944  0.00  0.00    +0.000 A 
ATOM     21  O   UNL     1       7.455   8.574  17.070  0.00  0.00    +0.000 OA
ENDBRANCH   5  17
TORSDOF 2
ENDMDL
MODEL 5
REMARK VINA RESULT:      -7.0      2.484      2.910
REMARK  Name = 
REMARK  2 active torsions:
REMARK  status: ('A' for Active; 'I' for Inactive)
REMARK    1  A    between atoms: C_4  and  C_5
REMARK    2  A    between atoms: C_9  and  C_11
REMARK                            x       y       z     vdW  Elec       q    Type
REMARK                         _______ _______ _______ _____ _____    ______ ____
ROOT
ATOM      1  C   UNL     1       4.110   5.408  18.678  0.00  0.00    +0.000 C 
ATOM      2  C   UNL     1       5.520   5.387  19.306  0.00  0.00    +0.000 C 
ATOM      3  C   UNL     1       6.656   5.998  18.477  0.00  0.00    +0.000 C 
ATOM      4  N   UNL     1       6.476   5.787  17.046  0.00  0.00    +0.000 N 
ATOM      5  C   UNL     1       7.255   4.828  16.371  0.00  0.00    +0.000 C 
ATOM      6  O   UNL     1       8.046   4.120  16.987  0.00  0.00    +0.000 OA
ATOM      7  C   UNL     1       5.202   6.312  16.563  0.00  0.00    +0.000 C 
ATOM      8  C   UNL     1       4.082   5.466  17.144  0.00  0.00    +0.000 C 
ENDROOT
BRANCH   1  12
ATOM      9  N   UNL     1       1.251   9.342  18.912  0.00  0.00    +0.000 N 
ATOM     10  C   UNL     1       1.810   8.175  19.278  0.00  0.00    +0.000 A 
ATOM     11  N   UNL     1       2.812   7.593  18.649  0.00  0.00    +0.000 NA
ATOM     12  C   UNL     1       3.120   6.386  19.270  0.00  0.00    +0.000 A 
ATOM     13  C   UNL     1       2.347   6.106  20.386  0.00  0.00    +0.000 A 
ATOM     14  S   UNL     1       1.208   7.343  20.655  0.00  0.00    +0.000 S 
ATOM     15  H   UNL     1       1.799   9.945  18.317  0.00  0.00    +0.000 HD
ATOM     16  H   UNL     1       0.666   9.819  19.588  0.00  0.00    +0.000 HD
ENDBRANCH   1  12
BRANCH   5  17
ATOM     17  C   UNL     1       7.088   4.674  14.938  0.00  0.00    +0.000 A 
ATOM     18  C   UNL     1       6.294   3.827  14.191  0.00  0.00    +0.000 A 
ATOM     19  N   UNL     1       6.472   4.056  12.847  0.00  0.00    +0.000 NA
ATOM     20  C   UNL     1       7.395   4.989  12.819  0.00  0.00    +0.000 A 
ATOM     21  O   UNL     1       7.842   5.392  14.036  0.00  0.00    +0.000 OA
ENDBRANCH   5  17
TORSDOF 2
ENDMDL
MODEL 6
REMARK VINA RESULT:      -7.0      0.997      1.088
REMARK  Name = 
REMARK  2 active torsions:
REMARK  status: ('A' for Active; 'I' for Inactive)
REMARK    1  A    between atoms: C_4  and  C_5
REMARK    2  A    between atoms: C_9  and  C_11
REMARK                            x       y       z     vdW  Elec       q    Type
REMARK                         _______ _______ _______ _____ _____    ______ ____
ROOT
ATOM      1  C   UNL     1       4.412   3.248  18.798  0.00  0.00    +0.000 C 
ATOM      2  C   UNL     1       5.593   4.108  19.294  0.00  0.00    +0.000 C 
ATOM      3  C   UNL     1       6.028   5.271  18.394  0.00  0.00    +0.000 C 
ATOM      4  N   UNL     1       5.874   4.966  16.977  0.00  0.00    +0.000 N 
ATOM      5  C   UNL     1       7.004   4.672  16.191  0.00  0.00    +0.000 C 
ATOM      6  O   UNL     1       8.120   4.611  16.701  0.00  0.00    +0.000 OA
ATOM      7  C   UNL     1       4.505   4.589  16.636  0.00  0.00    +0.000 C 
ATOM      8  C   UNL     1       4.201   3.246  17.276  0.00  0.00    +0.000 C 
ENDROOT
BRANCH   1  12
ATOM      9  N   UNL     1       1.006   2.522  22.201  0.00  0.00    +0.000 N 
ATOM     10  C   UNL     1       1.615   3.068  21.134  0.00  0.00    +0.000 A 
ATOM     11  N   UNL     1       2.718   2.603  20.580  0.00  0.00    +0.000 NA
ATOM     12  C   UNL     1       3.095   3.424  19.521  0.00  0.00    +0.000 A 
ATOM     13  C   UNL     1       2.232   4.482  19.285  0.00  0.00    +0.000 A 
ATOM     14  S   UNL     1       0.950   4.474  20.407  0.00  0.00    +0.000 S 
ATOM     15  H   UNL     1       1.224   1.559  22.409  0.00  0.00    +0.000 HD
ATOM     16  H   UNL     1       0.051   2.799  22.393  0.00  0.00    +0.000 HD
ENDBRANCH   1  12
BRANCH   5  17
ATOM     17  C   UNL     1       6.826   4.420  14.774  0.00  0.00    +0.000 A 
ATOM     18  C   UNL     1       7.301   5.076  13.656  0.00  0.00    +0.000 A 
ATOM     19  N   UNL     1       6.866   4.455  12.509  0.00  0.00    +0.000 NA
ATOM     20  C   UNL     1       6.108   3.483  12.959  0.00  0.00    +0.000 A 
ATOM     21  O   UNL     1       6.005   3.414  14.311  0.00  0.00    +0.000 OA
ENDBRANCH   5  17
TORSDOF 2
ENDMDL
MODEL 7
REMARK VINA RESULT:      -7.0      1.105      1.209
REMARK  Name = 
REMARK  2 active torsions:
REMARK  status: ('A' for Active; 'I' for Inactive)
REMARK    1  A    between atoms: C_4  and  C_5
REMARK    2  A    between atoms: C_9  and  C_11
REMARK                            x       y       z     vdW  Elec       q    Type
REMARK                         _______ _______ _______ _____ _____    ______ ____
ROOT
ATOM      1  C   UNL     1       4.822   3.786  18.985  0.00  0.00    +0.000 C 
ATOM      2  C   UNL     1       5.428   5.191  19.180  0.00  0.00    +0.000 C 
ATOM      3  C   UNL     1       5.313   6.165  18.001  0.00  0.00    +0.000 C 
ATOM      4  N   UNL     1       5.400   5.489  16.711  0.00  0.00    +0.000 N 
ATOM      5  C   UNL     1       6.577   5.581  15.945  0.00  0.00    +0.000 C 
ATOM      6  O   UNL     1       7.559   6.177  16.378  0.00  0.00    +0.000 OA
ATOM      7  C   UNL     1       4.392   4.444  16.563  0.00  0.00    +0.000 C 
ATOM      8  C   UNL     1       4.722   3.316  17.526  0.00  0.00    +0.000 C 
ENDROOT
BRANCH   1  12
ATOM      9  N   UNL     1       0.033   3.244  19.679  0.00  0.00    +0.000 N 
ATOM     10  C   UNL     1       1.349   3.222  19.952  0.00  0.00    +0.000 A 
ATOM     11  N   UNL     1       2.287   3.710  19.164  0.00  0.00    +0.000 NA
ATOM     12  C   UNL     1       3.539   3.492  19.731  0.00  0.00    +0.000 A 
ATOM     13  C   UNL     1       3.504   2.862  20.966  0.00  0.00    +0.000 A 
ATOM     14  S   UNL     1       1.899   2.515  21.418  0.00  0.00    +0.000 S 
ATOM     15  H   UNL     1      -0.282   3.914  18.994  0.00  0.00    +0.000 HD
ATOM     16  H   UNL     1      -0.611   3.073  20.442  0.00  0.00    +0.000 HD
ENDBRANCH   1  12
BRANCH   5  17
ATOM     17  C   UNL     1       6.617   4.939  14.645  0.00  0.00    +0.000 A 
ATOM     18  C   UNL     1       5.934   3.854  14.134  0.00  0.00    +0.000 A 
ATOM     19  N   UNL     1       6.306   3.617  12.831  0.00  0.00    +0.000 NA
ATOM     20  C   UNL     1       7.229   4.525  12.610  0.00  0.00    +0.000 A 
ATOM     21  O   UNL     1       7.498   5.338  13.663  0.00  0.00    +0.000 OA
ENDBRANCH   5  17
TORSDOF 2
ENDMDL
MODEL 8
REMARK VINA RESULT:      -6.9      3.852      4.848
REMARK  Name = 
REMARK  2 active torsions:
REMARK  status: ('A' for Active; 'I' for Inactive)
REMARK    1  A    between atoms: C_4  and  C_5
REMARK    2  A    between atoms: C_9  and  C_11
REMARK                            x       y       z     vdW  Elec       q    Type
REMARK                         _______ _______ _______ _____ _____    ______ ____
ROOT
ATOM      1  C   UNL     1       2.188   7.175  18.270  0.00  0.00    +0.000 C 
ATOM      2  C   UNL     1       2.343   6.039  19.302  0.00  0.00    +0.000 C 
ATOM      3  C   UNL     1       3.769   5.546  19.579  0.00  0.00    +0.000 C 
ATOM      4  N   UNL     1       4.615   5.593  18.393  0.00  0.00    +0.000 N 
ATOM      5  C   UNL     1       4.938   4.406  17.708  0.00  0.00    +0.000 C 
ATOM      6  O   UNL     1       4.465   3.331  18.066  0.00  0.00    +0.000 OA
ATOM      7  C   UNL     1       4.681   6.931  17.812  0.00  0.00    +0.000 C 
ATOM      8  C   UNL     1       3.318   7.274  17.234  0.00  0.00    +0.000 C 
ENDROOT
BRANCH   1  12
ATOM      9  N   UNL     1       1.288  11.960  18.201  0.00  0.00    +0.000 N 
ATOM     10  C   UNL     1       1.401  10.713  18.690  0.00  0.00    +0.000 A 
ATOM     11  N   UNL     1       1.908   9.690  18.029  0.00  0.00    +0.000 NA
ATOM     12  C   UNL     1       1.841   8.543  18.815  0.00  0.00    +0.000 A 
ATOM     13  C   UNL     1       1.305   8.746  20.077  0.00  0.00    +0.000 A 
ATOM     14  S   UNL     1       0.856  10.376  20.284  0.00  0.00    +0.000 S 
ATOM     15  H   UNL     1       1.876  12.199  17.416  0.00  0.00    +0.000 HD
ATOM     16  H   UNL     1       1.120  12.713  18.858  0.00  0.00    +0.000 HD
ENDBRANCH   1  12
BRANCH   5  17
ATOM     17  C   UNL     1       5.821   4.479  16.560  0.00  0.00    +0.000 A 
ATOM     18  C   UNL     1       7.156   4.811  16.445  0.00  0.00    +0.000 A 
ATOM     19  N   UNL     1       7.565   4.730  15.135  0.00  0.00    +0.000 NA
ATOM     20  C   UNL     1       6.466   4.403  14.495  0.00  0.00    +0.000 A 
ATOM     21  O   UNL     1       5.365   4.265  15.277  0.00  0.00    +0.000 OA
ENDBRANCH   5  17
TORSDOF 2
ENDMDL
MODEL 9
REMARK VINA RESULT:      -6.9      4.849      7.297
REMARK  Name = 
REMARK  2 active torsions:
REMARK  status: ('A' for Active; 'I' for Inactive)
REMARK    1  A    between atoms: C_4  and  C_5
REMARK    2  A    between atoms: C_9  and  C_11
REMARK                            x       y       z     vdW  Elec       q    Type
REMARK                         _______ _______ _______ _____ _____    ______ ____
ROOT
ATOM      1  C   UNL     1       1.827   4.896  18.794  0.00  0.00    +0.000 C 
ATOM      2  C   UNL     1       2.220   6.028  17.822  0.00  0.00    +0.000 C 
ATOM      3  C   UNL     1       2.817   7.297  18.443  0.00  0.00    +0.000 C 
ATOM      4  N   UNL     1       2.241   7.603  19.746  0.00  0.00    +0.000 N 
ATOM      5  C   UNL     1       1.311   8.651  19.878  0.00  0.00    +0.000 C 
ATOM      6  O   UNL     1       0.932   9.277  18.892  0.00  0.00    +0.000 OA
ATOM      7  C   UNL     1       2.387   6.499  20.690  0.00  0.00    +0.000 C 
ATOM      8  C   UNL     1       1.511   5.348  20.227  0.00  0.00    +0.000 C 
ENDROOT
BRANCH   1  12
ATOM      9  N   UNL     1       5.158   1.755  20.451  0.00  0.00    +0.000 N 
ATOM     10  C   UNL     1       4.208   2.267  19.649  0.00  0.00    +0.000 A 
ATOM     11  N   UNL     1       3.695   3.476  19.771  0.00  0.00    +0.000 NA
ATOM     12  C   UNL     1       2.715   3.671  18.802  0.00  0.00    +0.000 A 
ATOM     13  C   UNL     1       2.538   2.596  17.946  0.00  0.00    +0.000 A 
ATOM     14  S   UNL     1       3.583   1.317  18.362  0.00  0.00    +0.000 S 
ATOM     15  H   UNL     1       5.713   2.410  20.980  0.00  0.00    +0.000 HD
ATOM     16  H   UNL     1       5.653   0.930  20.131  0.00  0.00    +0.000 HD
ENDBRANCH   1  12
BRANCH   5  17
ATOM     17  C   UNL     1       0.791   8.964  21.195  0.00  0.00    +0.000 A 
ATOM     18  C   UNL     1       1.372   9.561  22.296  0.00  0.00    +0.000 A 
ATOM     19  N   UNL     1       0.471   9.652  23.330  0.00  0.00    +0.000 NA
ATOM     20  C   UNL     1      -0.602   9.069  22.849  0.00  0.00    +0.000 A 
ATOM     21  O   UNL     1      -0.480   8.597  21.582  0.00  0.00    +0.000 OA
ENDBRANCH   5  17
TORSDOF 2
ENDMDL
