MODEL 1
REMARK VINA RESULT:      -9.2      0.000      0.000
REMARK  Name = 
REMARK  6 active torsions:
REMARK  status: ('A' for Active; 'I' for Inactive)
REMARK    1  A    between atoms: C_3  and  O_4
REMARK    2  A    between atoms: O_4  and  C_5
REMARK    3  A    between atoms: C_5  and  C_6
REMARK    4  A    between atoms: C_10  and  C_11
REMARK    5  A    between atoms: C_21  and  C_22
REMARK    6  A    between atoms: C_22  and  C_23
REMARK                            x       y       z     vdW  Elec       q    Type
REMARK                         _______ _______ _______ _____ _____    ______ ____
ROOT
ATOM      1 CL   UNL     1       6.788   5.810  19.290  0.00  0.00    +0.000 Cl
ATOM      2  C   UNL     1       5.926   5.102  17.970  0.00  0.00    +0.000 A 
ATOM      3  C   UNL     1       4.739   4.468  18.147  0.00  0.00    +0.000 A 
ATOM      4  C   UNL     1       4.032   3.921  16.990  0.00  0.00    +0.000 A 
ATOM      5  C   UNL     1       4.608   3.944  15.776  0.00  0.00    +0.000 A 
ATOM      6  N   UNL     1       5.854   4.541  15.622  0.00  0.00    +0.000 N 
ATOM      7  C   UNL     1       6.697   4.670  14.535  0.00  0.00    +0.000 A 
ATOM      8  N   UNL     1       7.720   5.431  14.881  0.00  0.00    +0.000 NA
ATOM      9  N   UNL     1       7.612   5.739  16.214  0.00  0.00    +0.000 NA
ATOM     10  C   UNL     1       6.516   5.173  16.674  0.00  0.00    +0.000 A 
ENDROOT
BRANCH   3  11
ATOM     11  O   UNL     1       4.132   4.391  19.389  0.00  0.00    +0.000 OA
BRANCH  11  12
ATOM     12  C   UNL     1       2.730   4.692  19.431  0.00  0.00    +0.000 C 
BRANCH  12  13
ATOM     13  C   UNL     1       2.478   6.175  19.271  0.00  0.00    +0.000 A 
ATOM     14  C   UNL     1       2.951   6.834  18.128  0.00  0.00    +0.000 A 
ATOM     15  C   UNL     1       2.717   8.194  17.950  0.00  0.00    +0.000 A 
ATOM     16  C   UNL     1       2.011   8.912  18.916  0.00  0.00    +0.000 A 
ATOM     17  C   UNL     1       1.511   8.289  20.074  0.00  0.00    +0.000 A 
ATOM     18  C   UNL     1       1.740   6.906  20.217  0.00  0.00    +0.000 A 
BRANCH  17  19
ATOM     19  C   UNL     1       0.807   9.064  21.112  0.00  0.00    +0.000 A 
ATOM     20  C   UNL     1       1.110   8.997  22.465  0.00  0.00    +0.000 A 
ATOM     21  N   UNL     1       0.451   9.658  23.444  0.00  0.00    +0.000 NA
ATOM     22  C   UNL     1      -0.561  10.434  23.036  0.00  0.00    +0.000 A 
ATOM     23  N   UNL     1      -0.954  10.607  21.768  0.00  0.00    +0.000 NA
ATOM     24  C   UNL     1      -0.257   9.913  20.841  0.00  0.00    +0.000 A 
ENDBRANCH  17  19
ENDBRANCH  12  13
ENDBRANCH  11  12
ENDBRANCH   3  11
BRANCH   7  25
ATOM     25  C   UNL     1       6.620   3.954  13.223  0.00  0.00    +0.000 C 
BRANCH  25  26
ATOM     26  C   UNL     1       5.381   3.210  12.806  0.00  0.00    +0.000 C 
ATOM     27  C   UNL     1       4.596   3.535  11.560  0.00  0.00    +0.000 C 
ATOM     28  C   UNL     1       5.462   2.309  11.595  0.00  0.00    +0.000 C 
ENDBRANCH  25  26
ENDBRANCH   7  25
TORSDOF 6
ENDMDL
MODEL 2
REMARK VINA RESULT:      -9.1      2.320     10.056
REMARK  Name = 
REMARK  6 active torsions:
REMARK  status: ('A' for Active; 'I' for Inactive)
REMARK    1  A    between atoms: C_3  and  O_4
REMARK    2  A    between atoms: O_4  and  C_5
REMARK    3  A    between atoms: C_5  and  C_6
REMARK    4  A    between atoms: C_10  and  C_11
REMARK    5  A    between atoms: C_21  and  C_22
REMARK    6  A    between atoms: C_22  and  C_23
REMARK                            x       y       z     vdW  Elec       q    Type
REMARK                         _______ _______ _______ _____ _____    ______ ____
ROOT
ATOM      1 CL   UNL     1       0.921   9.576  17.940  0.00  0.00    +0.000 Cl
ATOM      2  C   UNL     1       0.755   9.527  19.660  0.00  0.00    +0.000 A 
ATOM      3  C   UNL     1       1.359   8.571  20.410  0.00  0.00    +0.000 A 
ATOM      4  C   UNL     1       1.219   8.598  21.866  0.00  0.00    +0.000 A 
ATOM      5  C   UNL     1       0.403   9.495  22.447  0.00  0.00    +0.000 A 
ATOM      6  N   UNL     1      -0.258  10.429  21.658  0.00  0.00    +0.000 N 
ATOM      7  C   UNL     1      -1.176  11.418  21.957  0.00  0.00    +0.000 A 
ATOM      8  N   UNL     1      -1.415  12.117  20.862  0.00  0.00    +0.000 NA
ATOM      9  N   UNL     1      -0.733  11.551  19.815  0.00  0.00    +0.000 NA
ATOM     10  C   UNL     1      -0.069  10.512  20.279  0.00  0.00    +0.000 A 
ENDROOT
BRANCH   3  11
ATOM     11  O   UNL     1       2.176   7.607  19.844  0.00  0.00    +0.000 OA
BRANCH  11  12
ATOM     12  C   UNL     1       2.018   6.269  20.339  0.00  0.00    +0.000 C 
BRANCH  12  13
ATOM     13  C   UNL     1       2.339   5.244  19.274  0.00  0.00    +0.000 A 
ATOM     14  C   UNL     1       1.470   4.164  19.073  0.00  0.00    +0.000 A 
ATOM     15  C   UNL     1       1.734   3.218  18.089  0.00  0.00    +0.000 A 
ATOM     16  C   UNL     1       2.876   3.339  17.295  0.00  0.00    +0.000 A 
ATOM     17  C   UNL     1       3.771   4.411  17.456  0.00  0.00    +0.000 A 
ATOM     18  C   UNL     1       3.466   5.369  18.444  0.00  0.00    +0.000 A 
BRANCH  17  19
ATOM     19  C   UNL     1       5.000   4.506  16.646  0.00  0.00    +0.000 A 
ATOM     20  C   UNL     1       6.274   4.613  17.184  0.00  0.00    +0.000 A 
ATOM     21  N   UNL     1       7.413   4.750  16.467  0.00  0.00    +0.000 NA
ATOM     22  C   UNL     1       7.259   4.771  15.138  0.00  0.00    +0.000 A 
ATOM     23  N   UNL     1       6.097   4.663  14.481  0.00  0.00    +0.000 NA
ATOM     24  C   UNL     1       4.997   4.536  15.258  0.00  0.00    +0.000 A 
ENDBRANCH  17  19
ENDBRANCH  12  13
ENDBRANCH  11  12
ENDBRANCH   3  11
BRANCH   7  25
ATOM     25  C   UNL     1      -1.941  11.606  23.229  0.00  0.00    +0.000 C 
BRANCH  25  26
ATOM     26  C   UNL     1      -2.874  12.769  23.419  0.00  0.00    +0.000 C 
ATOM     27  C   UNL     1      -4.281  12.806  22.874  0.00  0.00    +0.000 C 
ATOM     28  C   UNL     1      -4.057  12.594  24.344  0.00  0.00    +0.000 C 
ENDBRANCH  25  26
ENDBRANCH   7  25
TORSDOF 6
ENDMDL
MODEL 3
REMARK VINA RESULT:      -8.9      0.955      1.254
REMARK  Name = 
REMARK  6 active torsions:
REMARK  status: ('A' for Active; 'I' for Inactive)
REMARK    1  A    between atoms: C_3  and  O_4
REMARK    2  A    between atoms: O_4  and  C_5
REMARK    3  A    between atoms: C_5  and  C_6
REMARK    4  A    between atoms: C_10  and  C_11
REMARK    5  A    between atoms: C_21  and  C_22
REMARK    6  A    between atoms: C_22  and  C_23
REMARK                            x       y       z     vdW  Elec       q    Type
REMARK                         _______ _______ _______ _____ _____    ______ ____
ROOT
ATOM      1 CL   UNL     1       7.426   6.531  18.175  0.00  0.00    +0.000 Cl
ATOM      2  C   UNL     1       6.235   5.584  17.356  0.00  0.00    +0.000 A 
ATOM      3  C   UNL     1       5.126   5.126  17.989  0.00  0.00    +0.000 A 
ATOM      4  C   UNL     1       4.129   4.361  17.240  0.00  0.00    +0.000 A 
ATOM      5  C   UNL     1       4.367   4.017  15.963  0.00  0.00    +0.000 A 
ATOM      6  N   UNL     1       5.539   4.440  15.347  0.00  0.00    +0.000 N 
ATOM      7  C   UNL     1       6.068   4.207  14.092  0.00  0.00    +0.000 A 
ATOM      8  N   UNL     1       7.160   4.938  13.951  0.00  0.00    +0.000 NA
ATOM      9  N   UNL     1       7.412   5.590  15.131  0.00  0.00    +0.000 NA
ATOM     10  C   UNL     1       6.465   5.263  15.986  0.00  0.00    +0.000 A 
ENDROOT
BRANCH   3  11
ATOM     11  O   UNL     1       4.865   5.428  19.315  0.00  0.00    +0.000 OA
BRANCH  11  12
ATOM     12  C   UNL     1       3.485   5.427  19.708  0.00  0.00    +0.000 C 
BRANCH  12  13
ATOM     13  C   UNL     1       2.810   6.735  19.357  0.00  0.00    +0.000 A 
ATOM     14  C   UNL     1       2.928   7.244  18.057  0.00  0.00    +0.000 A 
ATOM     15  C   UNL     1       2.302   8.436  17.706  0.00  0.00    +0.000 A 
ATOM     16  C   UNL     1       1.554   9.135  18.654  0.00  0.00    +0.000 A 
ATOM     17  C   UNL     1       1.402   8.657  19.967  0.00  0.00    +0.000 A 
ATOM     18  C   UNL     1       2.025   7.435  20.289  0.00  0.00    +0.000 A 
BRANCH  17  19
ATOM     19  C   UNL     1       0.649   9.426  20.976  0.00  0.00    +0.000 A 
ATOM     20  C   UNL     1       0.674  10.810  21.069  0.00  0.00    +0.000 A 
ATOM     21  N   UNL     1       0.034  11.539  22.012  0.00  0.00    +0.000 NA
ATOM     22  C   UNL     1      -0.676  10.835  22.902  0.00  0.00    +0.000 A 
ATOM     23  N   UNL     1      -0.802   9.502  22.925  0.00  0.00    +0.000 NA
ATOM     24  C   UNL     1      -0.132   8.835  21.959  0.00  0.00    +0.000 A 
ENDBRANCH  17  19
ENDBRANCH  12  13
ENDBRANCH  11  12
ENDBRANCH   3  11
BRANCH   7  25
ATOM     25  C   UNL     1       5.636   3.184  13.089  0.00  0.00    +0.000 C 
BRANCH  25  26
ATOM     26  C   UNL     1       6.325   3.049  11.759  0.00  0.00    +0.000 C 
ATOM     27  C   UNL     1       7.450   2.078  11.500  0.00  0.00    +0.000 C 
ATOM     28  C   UNL     1       6.082   1.794  10.952  0.00  0.00    +0.000 C 
ENDBRANCH  25  26
ENDBRANCH   7  25
TORSDOF 6
ENDMDL
MODEL 4
REMARK VINA RESULT:      -8.7      3.390     10.689
REMARK  Name = 
REMARK  6 active torsions:
REMARK  status: ('A' for Active; 'I' for Inactive)
REMARK    1  A    between atoms: C_3  and  O_4
REMARK    2  A    between atoms: O_4  and  C_5
REMARK    3  A    between atoms: C_5  and  C_6
REMARK    4  A    between atoms: C_10  and  C_11
REMARK    5  A    between atoms: C_21  and  C_22
REMARK    6  A    between atoms: C_22  and  C_23
REMARK                            x       y       z     vdW  Elec       q    Type
REMARK                         _______ _______ _______ _____ _____    ______ ____
ROOT
ATOM      1 CL   UNL     1      -2.223   9.772  16.647  0.00  0.00    +0.000 Cl
ATOM      2  C   UNL     1      -1.507  10.485  18.050  0.00  0.00    +0.000 A 
ATOM      3  C   UNL     1      -0.223  10.229  18.406  0.00  0.00    +0.000 A 
ATOM      4  C   UNL     1       0.347  10.889  19.581  0.00  0.00    +0.000 A 
ATOM      5  C   UNL     1      -0.431  11.652  20.367  0.00  0.00    +0.000 A 
ATOM      6  N   UNL     1      -1.763  11.854  20.023  0.00  0.00    +0.000 N 
ATOM      7  C   UNL     1      -2.794  12.530  20.646  0.00  0.00    +0.000 A 
ATOM      8  N   UNL     1      -3.846  12.524  19.848  0.00  0.00    +0.000 NA
ATOM      9  N   UNL     1      -3.555  11.776  18.735  0.00  0.00    +0.000 NA
ATOM     10  C   UNL     1      -2.320  11.336  18.854  0.00  0.00    +0.000 A 
ENDROOT
BRANCH   3  11
ATOM     11  O   UNL     1       0.599   9.417  17.643  0.00  0.00    +0.000 OA
BRANCH  11  12
ATOM     12  C   UNL     1       2.005   9.498  17.917  0.00  0.00    +0.000 C 
BRANCH  12  13
ATOM     13  C   UNL     1       2.580   8.141  18.259  0.00  0.00    +0.000 A 
ATOM     14  C   UNL     1       2.148   7.483  19.418  0.00  0.00    +0.000 A 
ATOM     15  C   UNL     1       2.650   6.227  19.745  0.00  0.00    +0.000 A 
ATOM     16  C   UNL     1       3.594   5.617  18.918  0.00  0.00    +0.000 A 
ATOM     17  C   UNL     1       4.049   6.238  17.741  0.00  0.00    +0.000 A 
ATOM     18  C   UNL     1       3.506   7.498  17.420  0.00  0.00    +0.000 A 
BRANCH  17  19
ATOM     19  C   UNL     1       5.082   5.608  16.898  0.00  0.00    +0.000 A 
ATOM     20  C   UNL     1       4.966   4.336  16.355  0.00  0.00    +0.000 A 
ATOM     21  N   UNL     1       5.916   3.715  15.619  0.00  0.00    +0.000 NA
ATOM     22  C   UNL     1       7.038   4.416  15.414  0.00  0.00    +0.000 A 
ATOM     23  N   UNL     1       7.282   5.653  15.862  0.00  0.00    +0.000 NA
ATOM     24  C   UNL     1       6.293   6.214  16.596  0.00  0.00    +0.000 A 
ENDBRANCH  17  19
ENDBRANCH  12  13
ENDBRANCH  11  12
ENDBRANCH   3  11
BRANCH   7  25
ATOM     25  C   UNL     1      -2.838  13.045  22.050  0.00  0.00    +0.000 C 
BRANCH  25  26
ATOM     26  C   UNL     1      -3.914  12.619  23.009  0.00  0.00    +0.000 C 
ATOM     27  C   UNL     1      -4.022  13.135  24.423  0.00  0.00    +0.000 C 
ATOM     28  C   UNL     1      -4.983  13.623  23.377  0.00  0.00    +0.000 C 
ENDBRANCH  25  26
ENDBRANCH   7  25
TORSDOF 6
ENDMDL
MODEL 5
REMARK VINA RESULT:      -8.6      6.059      7.997
REMARK  Name = 
REMARK  6 active torsions:
REMARK  status: ('A' for Active; 'I' for Inactive)
REMARK    1  A    between atoms: C_3  and  O_4
REMARK    2  A    between atoms: O_4  and  C_5
REMARK    3  A    between atoms: C_5  and  C_6
REMARK    4  A    between atoms: C_10  and  C_11
REMARK    5  A    between atoms: C_21  and  C_22
REMARK    6  A    between atoms: C_22  and  C_23
REMARK                            x       y       z     vdW  Elec       q    Type
REMARK                         _______ _______ _______ _____ _____    ______ ____
ROOT
ATOM      1 CL   UNL     1       8.375   5.457  19.809  0.00  0.00    +0.000 Cl
ATOM      2  C   UNL     1       7.071   5.843  18.743  0.00  0.00    +0.000 A 
ATOM      3  C   UNL     1       7.075   6.971  17.987  0.00  0.00    +0.000 A 
ATOM      4  C   UNL     1       5.964   7.231  17.071  0.00  0.00    +0.000 A 
ATOM      5  C   UNL     1       4.894   6.418  17.063  0.00  0.00    +0.000 A 
ATOM      6  N   UNL     1       4.878   5.301  17.891  0.00  0.00    +0.000 N 
ATOM      7  C   UNL     1       3.920   4.334  18.131  0.00  0.00    +0.000 A 
ATOM      8  N   UNL     1       4.440   3.412  18.922  0.00  0.00    +0.000 NA
ATOM      9  N   UNL     1       5.706   3.798  19.281  0.00  0.00    +0.000 NA
ATOM     10  C   UNL     1       5.959   4.952  18.698  0.00  0.00    +0.000 A 
ENDROOT
BRANCH   3  11
ATOM     11  O   UNL     1       8.143   7.852  17.997  0.00  0.00    +0.000 OA
BRANCH  11  12
ATOM     12  C   UNL     1       7.871   9.185  17.540  0.00  0.00    +0.000 C 
BRANCH  12  13
ATOM     13  C   UNL     1       8.653  10.210  18.331  0.00  0.00    +0.000 A 
ATOM     14  C   UNL     1       9.167   9.865  19.587  0.00  0.00    +0.000 A 
ATOM     15  C   UNL     1       9.904  10.785  20.326  0.00  0.00    +0.000 A 
ATOM     16  C   UNL     1      10.132  12.065  19.817  0.00  0.00    +0.000 A 
ATOM     17  C   UNL     1       9.642  12.451  18.556  0.00  0.00    +0.000 A 
ATOM     18  C   UNL     1       8.920  11.491  17.818  0.00  0.00    +0.000 A 
BRANCH  17  19
ATOM     19  C   UNL     1       9.846  13.820  18.046  0.00  0.00    +0.000 A 
ATOM     20  C   UNL     1       8.893  14.825  18.129  0.00  0.00    +0.000 A 
ATOM     21  N   UNL     1       9.034  16.074  17.628  0.00  0.00    +0.000 NA
ATOM     22  C   UNL     1      10.199  16.324  17.019  0.00  0.00    +0.000 A 
ATOM     23  N   UNL     1      11.211  15.459  16.879  0.00  0.00    +0.000 NA
ATOM     24  C   UNL     1      11.003  14.227  17.396  0.00  0.00    +0.000 A 
ENDBRANCH  17  19
ENDBRANCH  12  13
ENDBRANCH  11  12
ENDBRANCH   3  11
BRANCH   7  25
ATOM     25  C   UNL     1       2.474   4.358  17.746  0.00  0.00    +0.000 C 
BRANCH  25  26
ATOM     26  C   UNL     1       1.386   4.212  18.773  0.00  0.00    +0.000 C 
ATOM     27  C   UNL     1       1.530   3.387  20.027  0.00  0.00    +0.000 C 
ATOM     28  C   UNL     1       1.572   4.885  20.113  0.00  0.00    +0.000 C 
ENDBRANCH  25  26
ENDBRANCH   7  25
TORSDOF 6
ENDMDL
MODEL 6
REMARK VINA RESULT:      -8.5      2.489      9.845
REMARK  Name = 
REMARK  6 active torsions:
REMARK  status: ('A' for Active; 'I' for Inactive)
REMARK    1  A    between atoms: C_3  and  O_4
REMARK    2  A    between atoms: O_4  and  C_5
REMARK    3  A    between atoms: C_5  and  C_6
REMARK    4  A    between atoms: C_10  and  C_11
REMARK    5  A    between atoms: C_21  and  C_22
REMARK    6  A    between atoms: C_22  and  C_23
REMARK                            x       y       z     vdW  Elec       q    Type
REMARK                         _______ _______ _______ _____ _____    ______ ____
ROOT
ATOM      1 CL   UNL     1       1.990   9.649  17.744  0.00  0.00    +0.000 Cl
ATOM      2  C   UNL     1       1.127   9.746  19.239  0.00  0.00    +0.000 A 
ATOM      3  C   UNL     1       1.194   8.759  20.168  0.00  0.00    +0.000 A 
ATOM      4  C   UNL     1       0.475   8.909  21.434  0.00  0.00    +0.000 A 
ATOM      5  C   UNL     1      -0.337   9.962  21.626  0.00  0.00    +0.000 A 
ATOM      6  N   UNL     1      -0.443  10.934  20.637  0.00  0.00    +0.000 N 
ATOM      7  C   UNL     1      -1.215  12.074  20.531  0.00  0.00    +0.000 A 
ATOM      8  N   UNL     1      -0.859  12.726  19.438  0.00  0.00    +0.000 NA
ATOM      9  N   UNL     1       0.083  11.987  18.769  0.00  0.00    +0.000 NA
ATOM     10  C   UNL     1       0.306  10.890  19.462  0.00  0.00    +0.000 A 
ENDROOT
BRANCH   3  11
ATOM     11  O   UNL     1       1.990   7.641  19.990  0.00  0.00    +0.000 OA
BRANCH  11  12
ATOM     12  C   UNL     1       1.632   6.478  20.750  0.00  0.00    +0.000 C 
BRANCH  12  13
ATOM     13  C   UNL     1       2.436   5.270  20.325  0.00  0.00    +0.000 A 
ATOM     14  C   UNL     1       2.220   4.040  20.960  0.00  0.00    +0.000 A 
ATOM     15  C   UNL     1       2.935   2.911  20.574  0.00  0.00    +0.000 A 
ATOM     16  C   UNL     1       3.880   3.000  19.551  0.00  0.00    +0.000 A 
ATOM     17  C   UNL     1       4.123   4.212  18.880  0.00  0.00    +0.000 A 
ATOM     18  C   UNL     1       3.366   5.334  19.273  0.00  0.00    +0.000 A 
BRANCH  17  19
ATOM     19  C   UNL     1       5.156   4.309  17.832  0.00  0.00    +0.000 A 
ATOM     20  C   UNL     1       4.949   3.953  16.507  0.00  0.00    +0.000 A 
ATOM     21  N   UNL     1       5.889   3.986  15.536  0.00  0.00    +0.000 NA
ATOM     22  C   UNL     1       7.101   4.407  15.920  0.00  0.00    +0.000 A 
ATOM     23  N   UNL     1       7.441   4.794  17.156  0.00  0.00    +0.000 NA
ATOM     24  C   UNL     1       6.455   4.731  18.079  0.00  0.00    +0.000 A 
ENDBRANCH  17  19
ENDBRANCH  12  13
ENDBRANCH  11  12
ENDBRANCH   3  11
BRANCH   7  25
ATOM     25  C   UNL     1      -2.390  12.470  21.370  0.00  0.00    +0.000 C 
BRANCH  25  26
ATOM     26  C   UNL     1      -2.245  12.748  22.840  0.00  0.00    +0.000 C 
ATOM     27  C   UNL     1      -3.038  13.804  23.569  0.00  0.00    +0.000 C 
ATOM     28  C   UNL     1      -3.382  12.355  23.757  0.00  0.00    +0.000 C 
ENDBRANCH  25  26
ENDBRANCH   7  25
TORSDOF 6
ENDMDL
MODEL 7
REMARK VINA RESULT:      -8.5      2.772      4.713
REMARK  Name = 
REMARK  6 active torsions:
REMARK  status: ('A' for Active; 'I' for Inactive)
REMARK    1  A    between atoms: C_3  and  O_4
REMARK    2  A    between atoms: O_4  and  C_5
REMARK    3  A    between atoms: C_5  and  C_6
REMARK    4  A    between atoms: C_10  and  C_11
REMARK    5  A    between atoms: C_21  and  C_22
REMARK    6  A    between atoms: C_22  and  C_23
REMARK                            x       y       z     vdW  Elec       q    Type
REMARK                         _______ _______ _______ _____ _____    ______ ____
ROOT
ATOM      1 CL   UNL     1       5.192   3.805  15.029  0.00  0.00    +0.000 Cl
ATOM      2  C   UNL     1       5.623   4.407  16.591  0.00  0.00    +0.000 A 
ATOM      3  C   UNL     1       5.035   3.944  17.723  0.00  0.00    +0.000 A 
ATOM      4  C   UNL     1       5.463   4.459  19.023  0.00  0.00    +0.000 A 
ATOM      5  C   UNL     1       6.350   5.467  19.089  0.00  0.00    +0.000 A 
ATOM      6  N   UNL     1       6.897   5.974  17.915  0.00  0.00    +0.000 N 
ATOM      7  C   UNL     1       7.772   7.014  17.669  0.00  0.00    +0.000 A 
ATOM      8  N   UNL     1       8.074   7.017  16.383  0.00  0.00    +0.000 NA
ATOM      9  N   UNL     1       7.342   6.043  15.753  0.00  0.00    +0.000 NA
ATOM     10  C   UNL     1       6.602   5.441  16.661  0.00  0.00    +0.000 A 
ENDROOT
BRANCH   3  11
ATOM     11  O   UNL     1       4.089   2.933  17.693  0.00  0.00    +0.000 OA
BRANCH  11  12
ATOM     12  C   UNL     1       2.723   3.345  17.546  0.00  0.00    +0.000 C 
BRANCH  12  13
ATOM     13  C   UNL     1       2.323   4.328  18.625  0.00  0.00    +0.000 A 
ATOM     14  C   UNL     1       2.019   3.855  19.909  0.00  0.00    +0.000 A 
ATOM     15  C   UNL     1       1.666   4.740  20.922  0.00  0.00    +0.000 A 
ATOM     16  C   UNL     1       1.607   6.109  20.662  0.00  0.00    +0.000 A 
ATOM     17  C   UNL     1       1.912   6.629  19.391  0.00  0.00    +0.000 A 
ATOM     18  C   UNL     1       2.292   5.713  18.389  0.00  0.00    +0.000 A 
BRANCH  17  19
ATOM     19  C   UNL     1       1.802   8.073  19.111  0.00  0.00    +0.000 A 
ATOM     20  C   UNL     1       1.196   8.981  19.967  0.00  0.00    +0.000 A 
ATOM     21  N   UNL     1       1.037  10.301  19.716  0.00  0.00    +0.000 NA
ATOM     22  C   UNL     1       1.522  10.728  18.543  0.00  0.00    +0.000 A 
ATOM     23  N   UNL     1       2.141   9.970  17.629  0.00  0.00    +0.000 NA
ATOM     24  C   UNL     1       2.261   8.660  17.941  0.00  0.00    +0.000 A 
ENDBRANCH  17  19
ENDBRANCH  12  13
ENDBRANCH  11  12
ENDBRANCH   3  11
BRANCH   7  25
ATOM     25  C   UNL     1       8.200   8.096  18.610  0.00  0.00    +0.000 C 
BRANCH  25  26
ATOM     26  C   UNL     1       8.592   9.460  18.112  0.00  0.00    +0.000 C 
ATOM     27  C   UNL     1       8.342  10.731  18.885  0.00  0.00    +0.000 C 
ATOM     28  C   UNL     1       9.733  10.172  18.802  0.00  0.00    +0.000 C 
ENDBRANCH  25  26
ENDBRANCH   7  25
TORSDOF 6
ENDMDL
MODEL 8
REMARK VINA RESULT:      -8.5      2.410      9.941
REMARK  Name = 
REMARK  6 active torsions:
REMARK  status: ('A' for Active; 'I' for Inactive)
REMARK    1  A    between atoms: C_3  and  O_4
REMARK    2  A    between atoms: O_4  and  C_5
REMARK    3  A    between atoms: C_5  and  C_6
REMARK    4  A    between atoms: C_10  and  C_11
REMARK    5  A    between atoms: C_21  and  C_22
REMARK    6  A    between atoms: C_22  and  C_23
REMARK                            x       y       z     vdW  Elec       q    Type
REMARK                         _______ _______ _______ _____ _____    ______ ____
ROOT
ATOM      1 CL   UNL     1       1.266   9.353  17.883  0.00  0.00    +0.000 Cl
ATOM      2  C   UNL     1       0.772   9.621  19.517  0.00  0.00    +0.000 A 
ATOM      3  C   UNL     1       1.156   8.796  20.525  0.00  0.00    +0.000 A 
ATOM      4  C   UNL     1       0.743   9.090  21.897  0.00  0.00    +0.000 A 
ATOM      5  C   UNL     1      -0.105  10.103  22.142  0.00  0.00    +0.000 A 
ATOM      6  N   UNL     1      -0.540  10.901  21.089  0.00  0.00    +0.000 N 
ATOM      7  C   UNL     1      -1.428  11.957  21.027  0.00  0.00    +0.000 A 
ATOM      8  N   UNL     1      -1.407  12.455  19.804  0.00  0.00    +0.000 NA
ATOM      9  N   UNL     1      -0.578  11.687  19.026  0.00  0.00    +0.000 NA
ATOM     10  C   UNL     1      -0.086  10.728  19.783  0.00  0.00    +0.000 A 
ENDROOT
BRANCH   3  11
ATOM     11  O   UNL     1       1.999   7.719  20.305  0.00  0.00    +0.000 OA
BRANCH  11  12
ATOM     12  C   UNL     1       1.515   6.437  20.728  0.00  0.00    +0.000 C 
BRANCH  12  13
ATOM     13  C   UNL     1       2.274   5.312  20.059  0.00  0.00    +0.000 A 
ATOM     14  C   UNL     1       2.185   4.015  20.582  0.00  0.00    +0.000 A 
ATOM     15  C   UNL     1       2.859   2.961  19.975  0.00  0.00    +0.000 A 
ATOM     16  C   UNL     1       3.636   3.193  18.839  0.00  0.00    +0.000 A 
ATOM     17  C   UNL     1       3.746   4.476  18.275  0.00  0.00    +0.000 A 
ATOM     18  C   UNL     1       3.032   5.521  18.895  0.00  0.00    +0.000 A 
BRANCH  17  19
ATOM     19  C   UNL     1       4.606   4.722  17.102  0.00  0.00    +0.000 A 
ATOM     20  C   UNL     1       4.824   5.978  16.553  0.00  0.00    +0.000 A 
ATOM     21  N   UNL     1       5.567   6.227  15.451  0.00  0.00    +0.000 NA
ATOM     22  C   UNL     1       6.128   5.154  14.878  0.00  0.00    +0.000 A 
ATOM     23  N   UNL     1       6.017   3.890  15.305  0.00  0.00    +0.000 NA
ATOM     24  C   UNL     1       5.255   3.711  16.407  0.00  0.00    +0.000 A 
ENDBRANCH  17  19
ENDBRANCH  12  13
ENDBRANCH  11  12
ENDBRANCH   3  11
BRANCH   7  25
ATOM     25  C   UNL     1      -2.407  12.396  22.070  0.00  0.00    +0.000 C 
BRANCH  25  26
ATOM     26  C   UNL     1      -1.951  12.915  23.405  0.00  0.00    +0.000 C 
ATOM     27  C   UNL     1      -1.237  14.231  23.588  0.00  0.00    +0.000 C 
ATOM     28  C   UNL     1      -2.676  14.103  23.996  0.00  0.00    +0.000 C 
ENDBRANCH  25  26
ENDBRANCH   7  25
TORSDOF 6
ENDMDL
MODEL 9
REMARK VINA RESULT:      -8.4      2.442      9.409
REMARK  Name = 
REMARK  6 active torsions:
REMARK  status: ('A' for Active; 'I' for Inactive)
REMARK    1  A    between atoms: C_3  and  O_4
REMARK    2  A    between atoms: O_4  and  C_5
REMARK    3  A    between atoms: C_5  and  C_6
REMARK    4  A    between atoms: C_10  and  C_11
REMARK    5  A    between atoms: C_21  and  C_22
REMARK    6  A    between atoms: C_22  and  C_23
REMARK                            x       y       z     vdW  Elec       q    Type
REMARK                         _______ _______ _______ _____ _____    ______ ____
ROOT
ATOM      1 CL   UNL     1       2.404   8.598  17.929  0.00  0.00    +0.000 Cl
ATOM      2  C   UNL     1       1.527   8.984  19.368  0.00  0.00    +0.000 A 
ATOM      3  C   UNL     1       1.561   8.181  20.462  0.00  0.00    +0.000 A 
ATOM      4  C   UNL     1       0.832   8.574  21.668  0.00  0.00    +0.000 A 
ATOM      5  C   UNL     1       0.042   9.661  21.654  0.00  0.00    +0.000 A 
ATOM      6  N   UNL     1      -0.031  10.438  20.503  0.00  0.00    +0.000 N 
ATOM      7  C   UNL     1      -0.775  11.556  20.180  0.00  0.00    +0.000 A 
ATOM      8  N   UNL     1      -0.391  11.990  18.993  0.00  0.00    +0.000 NA
ATOM      9  N   UNL     1       0.541  11.123  18.483  0.00  0.00    +0.000 NA
ATOM     10  C   UNL     1       0.731  10.166  19.368  0.00  0.00    +0.000 A 
ENDROOT
BRANCH   3  11
ATOM     11  O   UNL     1       2.332   7.033  20.502  0.00  0.00    +0.000 OA
BRANCH  11  12
ATOM     12  C   UNL     1       1.619   5.790  20.578  0.00  0.00    +0.000 C 
BRANCH  12  13
ATOM     13  C   UNL     1       2.023   4.852  19.462  0.00  0.00    +0.000 A 
ATOM     14  C   UNL     1       1.312   3.660  19.273  0.00  0.00    +0.000 A 
ATOM     15  C   UNL     1       1.653   2.789  18.243  0.00  0.00    +0.000 A 
ATOM     16  C   UNL     1       2.716   3.099  17.393  0.00  0.00    +0.000 A 
ATOM     17  C   UNL     1       3.452   4.288  17.541  0.00  0.00    +0.000 A 
ATOM     18  C   UNL     1       3.068   5.164  18.576  0.00  0.00    +0.000 A 
BRANCH  17  19
ATOM     19  C   UNL     1       4.603   4.585  16.668  0.00  0.00    +0.000 A 
ATOM     20  C   UNL     1       5.365   3.612  16.036  0.00  0.00    +0.000 A 
ATOM     21  N   UNL     1       6.453   3.852  15.270  0.00  0.00    +0.000 NA
ATOM     22  C   UNL     1       6.787   5.141  15.128  0.00  0.00    +0.000 A 
ATOM     23  N   UNL     1       6.139   6.182  15.665  0.00  0.00    +0.000 NA
ATOM     24  C   UNL     1       5.063   5.871  16.424  0.00  0.00    +0.000 A 
ENDBRANCH  17  19
ENDBRANCH  12  13
ENDBRANCH  11  12
ENDBRANCH   3  11
BRANCH   7  25
ATOM     25  C   UNL     1      -1.949  12.122  20.915  0.00  0.00    +0.000 C 
BRANCH  25  26
ATOM     26  C   UNL     1      -1.860  13.433  21.646  0.00  0.00    +0.000 C 
ATOM     27  C   UNL     1      -1.942  14.775  20.961  0.00  0.00    +0.000 C 
ATOM     28  C   UNL     1      -3.111  14.275  21.758  0.00  0.00    +0.000 C 
ENDBRANCH  25  26
ENDBRANCH   7  25
TORSDOF 6
ENDMDL
