MODEL 1
REMARK VINA RESULT:      -8.4      0.000      0.000
REMARK  Name = 
REMARK  7 active torsions:
REMARK  status: ('A' for Active; 'I' for Inactive)
REMARK    1  A    between atoms: C_1  and  O_2
REMARK    2  A    between atoms: O_2  and  C_3
REMARK    3  A    between atoms: C_6  and  C_7
REMARK    4  A    between atoms: C_7  and  O_8
REMARK    5  A    between atoms: C_7  and  C_9
REMARK    6  A    between atoms: C_9  and  C_10
REMARK    7  A    between atoms: C_18  and  C_19
REMARK                            x       y       z     vdW  Elec       q    Type
REMARK                         _______ _______ _______ _____ _____    ______ ____
ROOT
ATOM      1  C   UNL     1       6.775   6.130  16.802  0.00  0.00    +0.000 A 
ATOM      2  C   UNL     1       6.056   5.990  17.933  0.00  0.00    +0.000 A 
ATOM      3  C   UNL     1       5.010   4.992  18.014  0.00  0.00    +0.000 A 
ATOM      4  C   UNL     1       4.694   4.153  16.997  0.00  0.00    +0.000 A 
ATOM      5  C   UNL     1       5.437   4.327  15.769  0.00  0.00    +0.000 A 
ATOM      6  C   UNL     1       5.408   3.704  14.544  0.00  0.00    +0.000 A 
ATOM      7  C   UNL     1       6.397   4.343  13.762  0.00  0.00    +0.000 A 
ATOM      8  N   UNL     1       7.021   5.304  14.466  0.00  0.00    +0.000 NA
ATOM      9  N   UNL     1       6.442   5.302  15.701  0.00  0.00    +0.000 N 
ENDROOT
BRANCH   7  10
ATOM     10  C   UNL     1       6.750   4.035  12.330  0.00  0.00    +0.000 C 
ATOM     11  F   UNL     1       7.344   2.815  12.211  0.00  0.00    +0.000 F 
ATOM     12  F   UNL     1       5.659   4.005  11.519  0.00  0.00    +0.000 F 
ATOM     13  F   UNL     1       7.620   4.935  11.798  0.00  0.00    +0.000 F 
ENDBRANCH   7  10
BRANCH   1  15
ATOM     14  C   UNL     1       7.882   8.104  17.556  0.00  0.00    +0.000 C 
ATOM     15  O   UNL     1       7.826   7.017  16.639  0.00  0.00    +0.000 OA
ENDBRANCH   1  15
BRANCH   4  16
ATOM     16  C   UNL     1       3.626   3.066  17.183  0.00  0.00    +0.000 C 
BRANCH  16  17
ATOM     17  O   UNL     1       4.172   2.090  18.077  0.00  0.00    +0.000 OA
ATOM     18  H   UNL     1       5.108   2.309  18.217  0.00  0.00    +0.000 HD
ENDBRANCH  16  17
BRANCH  16  19
ATOM     19  C   UNL     1       2.258   3.562  17.704  0.00  0.00    +0.000 C 
BRANCH  19  20
ATOM     20  C   UNL     1       2.121   3.514  19.208  0.00  0.00    +0.000 A 
ATOM     21  C   UNL     1       1.678   2.346  19.836  0.00  0.00    +0.000 A 
ATOM     22  C   UNL     1       1.571   2.330  21.218  0.00  0.00    +0.000 A 
ATOM     23  N   UNL     1       1.874   3.382  22.004  0.00  0.00    +0.000 NA
ATOM     24  C   UNL     1       2.289   4.504  21.378  0.00  0.00    +0.000 A 
ATOM     25  C   UNL     1       2.426   4.621  20.002  0.00  0.00    +0.000 A 
ENDBRANCH  19  20
ENDBRANCH  16  19
ENDBRANCH   4  16
TORSDOF 6
ENDMDL
MODEL 2
REMARK VINA RESULT:      -8.4      0.045      1.228
REMARK  Name = 
REMARK  7 active torsions:
REMARK  status: ('A' for Active; 'I' for Inactive)
REMARK    1  A    between atoms: C_1  and  O_2
REMARK    2  A    between atoms: O_2  and  C_3
REMARK    3  A    between atoms: C_6  and  C_7
REMARK    4  A    between atoms: C_7  and  O_8
REMARK    5  A    between atoms: C_7  and  C_9
REMARK    6  A    between atoms: C_9  and  C_10
REMARK    7  A    between atoms: C_18  and  C_19
REMARK                            x       y       z     vdW  Elec       q    Type
REMARK                         _______ _______ _______ _____ _____    ______ ____
ROOT
ATOM      1  C   UNL     1       6.792   6.100  16.791  0.00  0.00    +0.000 A 
ATOM      2  C   UNL     1       6.071   5.968  17.922  0.00  0.00    +0.000 A 
ATOM      3  C   UNL     1       5.014   4.982  18.001  0.00  0.00    +0.000 A 
ATOM      4  C   UNL     1       4.689   4.146  16.984  0.00  0.00    +0.000 A 
ATOM      5  C   UNL     1       5.434   4.312  15.757  0.00  0.00    +0.000 A 
ATOM      6  C   UNL     1       5.399   3.689  14.531  0.00  0.00    +0.000 A 
ATOM      7  C   UNL     1       6.396   4.318  13.750  0.00  0.00    +0.000 A 
ATOM      8  N   UNL     1       7.030   5.271  14.455  0.00  0.00    +0.000 NA
ATOM      9  N   UNL     1       6.450   5.276  15.690  0.00  0.00    +0.000 N 
ENDROOT
BRANCH   7  10
ATOM     10  C   UNL     1       6.746   4.007  12.318  0.00  0.00    +0.000 C 
ATOM     11  F   UNL     1       5.637   3.972  11.527  0.00  0.00    +0.000 F 
ATOM     12  F   UNL     1       7.574   4.935  11.770  0.00  0.00    +0.000 F 
ATOM     13  F   UNL     1       7.352   2.797  12.177  0.00  0.00    +0.000 F 
ENDBRANCH   7  10
BRANCH   1  15
ATOM     14  C   UNL     1       7.843   8.137  17.451  0.00  0.00    +0.000 C 
ATOM     15  O   UNL     1       7.853   6.975  16.629  0.00  0.00    +0.000 OA
ENDBRANCH   1  15
BRANCH   4  16
ATOM     16  C   UNL     1       3.609   3.072  17.169  0.00  0.00    +0.000 C 
BRANCH  16  17
ATOM     17  O   UNL     1       4.150   2.079  18.048  0.00  0.00    +0.000 OA
ATOM     18  H   UNL     1       3.539   1.983  18.797  0.00  0.00    +0.000 HD
ENDBRANCH  16  17
BRANCH  16  19
ATOM     19  C   UNL     1       2.252   3.580  17.708  0.00  0.00    +0.000 C 
BRANCH  19  20
ATOM     20  C   UNL     1       2.112   3.478  19.209  0.00  0.00    +0.000 A 
ATOM     21  C   UNL     1       2.428   4.572  20.021  0.00  0.00    +0.000 A 
ATOM     22  C   UNL     1       2.280   4.451  21.393  0.00  0.00    +0.000 A 
ATOM     23  N   UNL     1       1.842   3.330  22.003  0.00  0.00    +0.000 NA
ATOM     24  C   UNL     1       1.552   2.282  21.202  0.00  0.00    +0.000 A 
ATOM     25  C   UNL     1       1.670   2.303  19.820  0.00  0.00    +0.000 A 
ENDBRANCH  19  20
ENDBRANCH  16  19
ENDBRANCH   4  16
TORSDOF 6
ENDMDL
MODEL 3
REMARK VINA RESULT:      -8.1      0.810      1.176
REMARK  Name = 
REMARK  7 active torsions:
REMARK  status: ('A' for Active; 'I' for Inactive)
REMARK    1  A    between atoms: C_1  and  O_2
REMARK    2  A    between atoms: O_2  and  C_3
REMARK    3  A    between atoms: C_6  and  C_7
REMARK    4  A    between atoms: C_7  and  O_8
REMARK    5  A    between atoms: C_7  and  C_9
REMARK    6  A    between atoms: C_9  and  C_10
REMARK    7  A    between atoms: C_18  and  C_19
REMARK                            x       y       z     vdW  Elec       q    Type
REMARK                         _______ _______ _______ _____ _____    ______ ____
ROOT
ATOM      1  C   UNL     1       6.930   6.047  16.829  0.00  0.00    +0.000 A 
ATOM      2  C   UNL     1       6.315   5.832  18.009  0.00  0.00    +0.000 A 
ATOM      3  C   UNL     1       5.362   4.751  18.148  0.00  0.00    +0.000 A 
ATOM      4  C   UNL     1       5.037   3.903  17.142  0.00  0.00    +0.000 A 
ATOM      5  C   UNL     1       5.665   4.155  15.865  0.00  0.00    +0.000 A 
ATOM      6  C   UNL     1       5.591   3.549  14.632  0.00  0.00    +0.000 A 
ATOM      7  C   UNL     1       6.462   4.278  13.790  0.00  0.00    +0.000 A 
ATOM      8  N   UNL     1       7.059   5.276  14.464  0.00  0.00    +0.000 NA
ATOM      9  N   UNL     1       6.580   5.210  15.740  0.00  0.00    +0.000 N 
ENDROOT
BRANCH   7  10
ATOM     10  C   UNL     1       6.725   4.021  12.330  0.00  0.00    +0.000 C 
ATOM     11  F   UNL     1       5.577   4.066  11.597  0.00  0.00    +0.000 F 
ATOM     12  F   UNL     1       7.561   4.941  11.780  0.00  0.00    +0.000 F 
ATOM     13  F   UNL     1       7.273   2.797  12.102  0.00  0.00    +0.000 F 
ENDBRANCH   7  10
BRANCH   1  15
ATOM     14  C   UNL     1       7.876   8.135  17.487  0.00  0.00    +0.000 C 
ATOM     15  O   UNL     1       7.890   7.019  16.605  0.00  0.00    +0.000 OA
ENDBRANCH   1  15
BRANCH   4  16
ATOM     16  C   UNL     1       4.077   2.730  17.387  0.00  0.00    +0.000 C 
BRANCH  16  17
ATOM     17  O   UNL     1       4.441   2.146  18.642  0.00  0.00    +0.000 OA
ATOM     18  H   UNL     1       3.674   1.647  18.969  0.00  0.00    +0.000 HD
ENDBRANCH  16  17
BRANCH  16  19
ATOM     19  C   UNL     1       2.574   3.090  17.380  0.00  0.00    +0.000 C 
BRANCH  19  20
ATOM     20  C   UNL     1       2.128   3.880  18.588  0.00  0.00    +0.000 A 
ATOM     21  C   UNL     1       1.553   3.228  19.683  0.00  0.00    +0.000 A 
ATOM     22  C   UNL     1       1.163   3.980  20.780  0.00  0.00    +0.000 A 
ATOM     23  N   UNL     1       1.307   5.319  20.859  0.00  0.00    +0.000 NA
ATOM     24  C   UNL     1       1.854   5.931  19.787  0.00  0.00    +0.000 A 
ATOM     25  C   UNL     1       2.273   5.268  18.642  0.00  0.00    +0.000 A 
ENDBRANCH  19  20
ENDBRANCH  16  19
ENDBRANCH   4  16
TORSDOF 6
ENDMDL
MODEL 4
REMARK VINA RESULT:      -8.1      0.734      1.190
REMARK  Name = 
REMARK  7 active torsions:
REMARK  status: ('A' for Active; 'I' for Inactive)
REMARK    1  A    between atoms: C_1  and  O_2
REMARK    2  A    between atoms: O_2  and  C_3
REMARK    3  A    between atoms: C_6  and  C_7
REMARK    4  A    between atoms: C_7  and  O_8
REMARK    5  A    between atoms: C_7  and  C_9
REMARK    6  A    between atoms: C_9  and  C_10
REMARK    7  A    between atoms: C_18  and  C_19
REMARK                            x       y       z     vdW  Elec       q    Type
REMARK                         _______ _______ _______ _____ _____    ______ ____
ROOT
ATOM      1  C   UNL     1       6.912   6.012  16.801  0.00  0.00    +0.000 A 
ATOM      2  C   UNL     1       6.309   5.780  17.983  0.00  0.00    +0.000 A 
ATOM      3  C   UNL     1       5.370   4.685  18.120  0.00  0.00    +0.000 A 
ATOM      4  C   UNL     1       5.049   3.842  17.108  0.00  0.00    +0.000 A 
ATOM      5  C   UNL     1       5.664   4.112  15.829  0.00  0.00    +0.000 A 
ATOM      6  C   UNL     1       5.589   3.516  14.592  0.00  0.00    +0.000 A 
ATOM      7  C   UNL     1       6.445   4.264  13.750  0.00  0.00    +0.000 A 
ATOM      8  N   UNL     1       7.034   5.264  14.429  0.00  0.00    +0.000 NA
ATOM      9  N   UNL     1       6.565   5.181  15.707  0.00  0.00    +0.000 N 
ENDROOT
BRANCH   7  10
ATOM     10  C   UNL     1       6.701   4.023  12.286  0.00  0.00    +0.000 C 
ATOM     11  F   UNL     1       7.295   2.815  12.073  0.00  0.00    +0.000 F 
ATOM     12  F   UNL     1       5.558   4.016  11.550  0.00  0.00    +0.000 F 
ATOM     13  F   UNL     1       7.526   4.954  11.736  0.00  0.00    +0.000 F 
ENDBRANCH   7  10
BRANCH   1  15
ATOM     14  C   UNL     1       7.860   8.089  17.493  0.00  0.00    +0.000 C 
ATOM     15  O   UNL     1       7.858   6.998  16.578  0.00  0.00    +0.000 OA
ENDBRANCH   1  15
BRANCH   4  16
ATOM     16  C   UNL     1       4.106   2.655  17.350  0.00  0.00    +0.000 C 
BRANCH  16  17
ATOM     17  O   UNL     1       4.470   2.079  18.609  0.00  0.00    +0.000 OA
ATOM     18  H   UNL     1       4.812   1.186  18.438  0.00  0.00    +0.000 HD
ENDBRANCH  16  17
BRANCH  16  19
ATOM     19  C   UNL     1       2.598   2.990  17.332  0.00  0.00    +0.000 C 
BRANCH  19  20
ATOM     20  C   UNL     1       2.099   3.635  18.604  0.00  0.00    +0.000 A 
ATOM     21  C   UNL     1       2.205   5.019  18.780  0.00  0.00    +0.000 A 
ATOM     22  C   UNL     1       1.730   5.582  19.954  0.00  0.00    +0.000 A 
ATOM     23  N   UNL     1       1.161   4.870  20.949  0.00  0.00    +0.000 NA
ATOM     24  C   UNL     1       1.077   3.535  20.764  0.00  0.00    +0.000 A 
ATOM     25  C   UNL     1       1.526   2.877  19.627  0.00  0.00    +0.000 A 
ENDBRANCH  19  20
ENDBRANCH  16  19
ENDBRANCH   4  16
TORSDOF 6
ENDMDL
MODEL 5
REMARK VINA RESULT:      -8.0      1.107      1.743
REMARK  Name = 
REMARK  7 active torsions:
REMARK  status: ('A' for Active; 'I' for Inactive)
REMARK    1  A    between atoms: C_1  and  O_2
REMARK    2  A    between atoms: O_2  and  C_3
REMARK    3  A    between atoms: C_6  and  C_7
REMARK    4  A    between atoms: C_7  and  O_8
REMARK    5  A    between atoms: C_7  and  C_9
REMARK    6  A    between atoms: C_9  and  C_10
REMARK    7  A    between atoms: C_18  and  C_19
REMARK                            x       y       z     vdW  Elec       q    Type
REMARK                         _______ _______ _______ _____ _____    ______ ____
ROOT
ATOM      1  C   UNL     1       6.946   6.054  16.936  0.00  0.00    +0.000 A 
ATOM      2  C   UNL     1       6.344   5.884  18.129  0.00  0.00    +0.000 A 
ATOM      3  C   UNL     1       5.353   4.842  18.304  0.00  0.00    +0.000 A 
ATOM      4  C   UNL     1       4.980   3.989  17.318  0.00  0.00    +0.000 A 
ATOM      5  C   UNL     1       5.596   4.194  16.027  0.00  0.00    +0.000 A 
ATOM      6  C   UNL     1       5.479   3.570  14.807  0.00  0.00    +0.000 A 
ATOM      7  C   UNL     1       6.362   4.251  13.938  0.00  0.00    +0.000 A 
ATOM      8  N   UNL     1       7.007   5.238  14.584  0.00  0.00    +0.000 NA
ATOM      9  N   UNL     1       6.547   5.212  15.869  0.00  0.00    +0.000 N 
ENDROOT
BRANCH   7  10
ATOM     10  C   UNL     1       6.591   3.958  12.479  0.00  0.00    +0.000 C 
ATOM     11  F   UNL     1       7.463   4.844  11.920  0.00  0.00    +0.000 F 
ATOM     12  F   UNL     1       7.121   2.724  12.272  0.00  0.00    +0.000 F 
ATOM     13  F   UNL     1       5.450   4.033  11.742  0.00  0.00    +0.000 F 
ENDBRANCH   7  10
BRANCH   1  15
ATOM     14  C   UNL     1       7.959   8.134  17.520  0.00  0.00    +0.000 C 
ATOM     15  O   UNL     1       7.938   6.985  16.679  0.00  0.00    +0.000 OA
ENDBRANCH   1  15
BRANCH   4  16
ATOM     16  C   UNL     1       3.982   2.858  17.600  0.00  0.00    +0.000 C 
BRANCH  16  17
ATOM     17  O   UNL     1       4.401   2.220  18.811  0.00  0.00    +0.000 OA
ATOM     18  H   UNL     1       3.736   2.413  19.493  0.00  0.00    +0.000 HD
ENDBRANCH  16  17
BRANCH  16  19
ATOM     19  C   UNL     1       2.502   3.289  17.708  0.00  0.00    +0.000 C 
BRANCH  19  20
ATOM     20  C   UNL     1       2.271   4.459  18.637  0.00  0.00    +0.000 A 
ATOM     21  C   UNL     1       2.328   5.768  18.147  0.00  0.00    +0.000 A 
ATOM     22  C   UNL     1       2.103   6.819  19.021  0.00  0.00    +0.000 A 
ATOM     23  N   UNL     1       1.826   6.657  20.331  0.00  0.00    +0.000 NA
ATOM     24  C   UNL     1       1.787   5.387  20.787  0.00  0.00    +0.000 A 
ATOM     25  C   UNL     1       2.001   4.269  19.993  0.00  0.00    +0.000 A 
ENDBRANCH  19  20
ENDBRANCH  16  19
ENDBRANCH   4  16
TORSDOF 6
ENDMDL
MODEL 6
REMARK VINA RESULT:      -7.9      1.500      2.065
REMARK  Name = 
REMARK  7 active torsions:
REMARK  status: ('A' for Active; 'I' for Inactive)
REMARK    1  A    between atoms: C_1  and  O_2
REMARK    2  A    between atoms: O_2  and  C_3
REMARK    3  A    between atoms: C_6  and  C_7
REMARK    4  A    between atoms: C_7  and  O_8
REMARK    5  A    between atoms: C_7  and  C_9
REMARK    6  A    between atoms: C_9  and  C_10
REMARK    7  A    between atoms: C_18  and  C_19
REMARK                            x       y       z     vdW  Elec       q    Type
REMARK                         _______ _______ _______ _____ _____    ______ ____
ROOT
ATOM      1  C   UNL     1       7.108   6.218  17.270  0.00  0.00    +0.000 A 
ATOM      2  C   UNL     1       6.690   6.075  18.542  0.00  0.00    +0.000 A 
ATOM      3  C   UNL     1       5.790   4.998  18.898  0.00  0.00    +0.000 A 
ATOM      4  C   UNL     1       5.327   4.085  18.010  0.00  0.00    +0.000 A 
ATOM      5  C   UNL     1       5.742   4.258  16.636  0.00  0.00    +0.000 A 
ATOM      6  C   UNL     1       5.487   3.574  15.471  0.00  0.00    +0.000 A 
ATOM      7  C   UNL     1       6.202   4.254  14.459  0.00  0.00    +0.000 A 
ATOM      8  N   UNL     1       6.879   5.298  14.967  0.00  0.00    +0.000 NA
ATOM      9  N   UNL     1       6.607   5.311  16.304  0.00  0.00    +0.000 N 
ENDROOT
BRANCH   7  10
ATOM     10  C   UNL     1       6.237   3.905  12.994  0.00  0.00    +0.000 C 
ATOM     11  F   UNL     1       5.012   4.048  12.414  0.00  0.00    +0.000 F 
ATOM     12  F   UNL     1       7.084   4.701  12.289  0.00  0.00    +0.000 F 
ATOM     13  F   UNL     1       6.617   2.619  12.769  0.00  0.00    +0.000 F 
ENDBRANCH   7  10
BRANCH   1  15
ATOM     14  C   UNL     1       8.011   8.408  17.559  0.00  0.00    +0.000 C 
ATOM     15  O   UNL     1       8.004   7.181  16.837  0.00  0.00    +0.000 OA
ENDBRANCH   1  15
BRANCH   4  16
ATOM     16  C   UNL     1       4.438   2.922  18.476  0.00  0.00    +0.000 C 
BRANCH  16  17
ATOM     17  O   UNL     1       4.900   2.536  19.775  0.00  0.00    +0.000 OA
ATOM     18  H   UNL     1       4.157   2.117  20.240  0.00  0.00    +0.000 HD
ENDBRANCH  16  17
BRANCH  16  19
ATOM     19  C   UNL     1       2.922   3.219  18.513  0.00  0.00    +0.000 C 
BRANCH  19  20
ATOM     20  C   UNL     1       2.584   4.625  18.951  0.00  0.00    +0.000 A 
ATOM     21  C   UNL     1       2.536   5.662  18.013  0.00  0.00    +0.000 A 
ATOM     22  C   UNL     1       2.214   6.939  18.444  0.00  0.00    +0.000 A 
ATOM     23  N   UNL     1       1.937   7.248  19.727  0.00  0.00    +0.000 NA
ATOM     24  C   UNL     1       1.999   6.236  20.619  0.00  0.00    +0.000 A 
ATOM     25  C   UNL     1       2.315   4.926  20.288  0.00  0.00    +0.000 A 
ENDBRANCH  19  20
ENDBRANCH  16  19
ENDBRANCH   4  16
TORSDOF 6
ENDMDL
MODEL 7
REMARK VINA RESULT:      -7.9      4.263      7.099
REMARK  Name = 
REMARK  7 active torsions:
REMARK  status: ('A' for Active; 'I' for Inactive)
REMARK    1  A    between atoms: C_1  and  O_2
REMARK    2  A    between atoms: O_2  and  C_3
REMARK    3  A    between atoms: C_6  and  C_7
REMARK    4  A    between atoms: C_7  and  O_8
REMARK    5  A    between atoms: C_7  and  C_9
REMARK    6  A    between atoms: C_9  and  C_10
REMARK    7  A    between atoms: C_18  and  C_19
REMARK                            x       y       z     vdW  Elec       q    Type
REMARK                         _______ _______ _______ _____ _____    ______ ____
ROOT
ATOM      1  C   UNL     1       2.828   7.281  18.070  0.00  0.00    +0.000 A 
ATOM      2  C   UNL     1       3.939   7.762  17.480  0.00  0.00    +0.000 A 
ATOM      3  C   UNL     1       5.015   6.865  17.112  0.00  0.00    +0.000 A 
ATOM      4  C   UNL     1       4.979   5.526  17.320  0.00  0.00    +0.000 A 
ATOM      5  C   UNL     1       3.804   5.012  17.988  0.00  0.00    +0.000 A 
ATOM      6  C   UNL     1       3.406   3.756  18.380  0.00  0.00    +0.000 A 
ATOM      7  C   UNL     1       2.139   3.925  18.986  0.00  0.00    +0.000 A 
ATOM      8  N   UNL     1       1.761   5.214  18.960  0.00  0.00    +0.000 NA
ATOM      9  N   UNL     1       2.774   5.893  18.347  0.00  0.00    +0.000 N 
ENDROOT
BRANCH   7  10
ATOM     10  C   UNL     1       1.284   2.846  19.597  0.00  0.00    +0.000 C 
ATOM     11  F   UNL     1       1.966   1.671  19.714  0.00  0.00    +0.000 F 
ATOM     12  F   UNL     1       0.858   3.163  20.848  0.00  0.00    +0.000 F 
ATOM     13  F   UNL     1       0.177   2.570  18.855  0.00  0.00    +0.000 F 
ENDBRANCH   7  10
BRANCH   1  15
ATOM     14  C   UNL     1       1.693   9.374  17.907  0.00  0.00    +0.000 C 
ATOM     15  O   UNL     1       1.725   8.045  18.416  0.00  0.00    +0.000 OA
ENDBRANCH   1  15
BRANCH   4  16
ATOM     16  C   UNL     1       6.123   4.627  16.830  0.00  0.00    +0.000 C 
BRANCH  16  17
ATOM     17  O   UNL     1       6.631   3.933  17.974  0.00  0.00    +0.000 OA
ATOM     18  H   UNL     1       6.334   3.009  17.915  0.00  0.00    +0.000 HD
ENDBRANCH  16  17
BRANCH  16  19
ATOM     19  C   UNL     1       5.749   3.622  15.717  0.00  0.00    +0.000 C 
BRANCH  19  20
ATOM     20  C   UNL     1       6.321   3.967  14.362  0.00  0.00    +0.000 A 
ATOM     21  C   UNL     1       7.328   4.931  14.248  0.00  0.00    +0.000 A 
ATOM     22  C   UNL     1       7.839   5.219  12.992  0.00  0.00    +0.000 A 
ATOM     23  N   UNL     1       7.423   4.618  11.859  0.00  0.00    +0.000 NA
ATOM     24  C   UNL     1       6.443   3.698  11.989  0.00  0.00    +0.000 A 
ATOM     25  C   UNL     1       5.866   3.342  13.200  0.00  0.00    +0.000 A 
ENDBRANCH  19  20
ENDBRANCH  16  19
ENDBRANCH   4  16
TORSDOF 6
ENDMDL
MODEL 8
REMARK VINA RESULT:      -7.9      4.417      7.203
REMARK  Name = 
REMARK  7 active torsions:
REMARK  status: ('A' for Active; 'I' for Inactive)
REMARK    1  A    between atoms: C_1  and  O_2
REMARK    2  A    between atoms: O_2  and  C_3
REMARK    3  A    between atoms: C_6  and  C_7
REMARK    4  A    between atoms: C_7  and  O_8
REMARK    5  A    between atoms: C_7  and  C_9
REMARK    6  A    between atoms: C_9  and  C_10
REMARK    7  A    between atoms: C_18  and  C_19
REMARK                            x       y       z     vdW  Elec       q    Type
REMARK                         _______ _______ _______ _____ _____    ______ ____
ROOT
ATOM      1  C   UNL     1       2.818   7.258  18.303  0.00  0.00    +0.000 A 
ATOM      2  C   UNL     1       3.774   7.733  17.481  0.00  0.00    +0.000 A 
ATOM      3  C   UNL     1       4.867   6.879  17.064  0.00  0.00    +0.000 A 
ATOM      4  C   UNL     1       4.997   5.586  17.449  0.00  0.00    +0.000 A 
ATOM      5  C   UNL     1       3.994   5.085  18.361  0.00  0.00    +0.000 A 
ATOM      6  C   UNL     1       3.788   3.872  18.975  0.00  0.00    +0.000 A 
ATOM      7  C   UNL     1       2.616   4.027  19.752  0.00  0.00    +0.000 A 
ATOM      8  N   UNL     1       2.111   5.265  19.619  0.00  0.00    +0.000 NA
ATOM      9  N   UNL     1       2.946   5.924  18.765  0.00  0.00    +0.000 N 
ENDROOT
BRANCH   7  10
ATOM     10  C   UNL     1       1.975   2.984  20.630  0.00  0.00    +0.000 C 
ATOM     11  F   UNL     1       0.777   3.409  21.121  0.00  0.00    +0.000 F 
ATOM     12  F   UNL     1       1.722   1.826  19.965  0.00  0.00    +0.000 F 
ATOM     13  F   UNL     1       2.737   2.666  21.711  0.00  0.00    +0.000 F 
ENDBRANCH   7  10
BRANCH   1  15
ATOM     14  C   UNL     1       1.502   9.237  18.098  0.00  0.00    +0.000 C 
ATOM     15  O   UNL     1       1.709   7.974  18.721  0.00  0.00    +0.000 OA
ENDBRANCH   1  15
BRANCH   4  16
ATOM     16  C   UNL     1       6.139   4.718  16.901  0.00  0.00    +0.000 C 
BRANCH  16  17
ATOM     17  O   UNL     1       6.722   4.038  18.018  0.00  0.00    +0.000 OA
ATOM     18  H   UNL     1       7.678   4.209  18.003  0.00  0.00    +0.000 HD
ENDBRANCH  16  17
BRANCH  16  19
ATOM     19  C   UNL     1       5.737   3.704  15.807  0.00  0.00    +0.000 C 
BRANCH  19  20
ATOM     20  C   UNL     1       6.321   4.006  14.447  0.00  0.00    +0.000 A 
ATOM     21  C   UNL     1       5.891   3.294  13.322  0.00  0.00    +0.000 A 
ATOM     22  C   UNL     1       6.439   3.601  12.087  0.00  0.00    +0.000 A 
ATOM     23  N   UNL     1       7.371   4.557  11.898  0.00  0.00    +0.000 NA
ATOM     24  C   UNL     1       7.781   5.225  12.998  0.00  0.00    +0.000 A 
ATOM     25  C   UNL     1       7.296   4.990  14.277  0.00  0.00    +0.000 A 
ENDBRANCH  19  20
ENDBRANCH  16  19
ENDBRANCH   4  16
TORSDOF 6
ENDMDL
MODEL 9
REMARK VINA RESULT:      -7.7      5.506      6.578
REMARK  Name = 
REMARK  7 active torsions:
REMARK  status: ('A' for Active; 'I' for Inactive)
REMARK    1  A    between atoms: C_1  and  O_2
REMARK    2  A    between atoms: O_2  and  C_3
REMARK    3  A    between atoms: C_6  and  C_7
REMARK    4  A    between atoms: C_7  and  O_8
REMARK    5  A    between atoms: C_7  and  C_9
REMARK    6  A    between atoms: C_9  and  C_10
REMARK    7  A    between atoms: C_18  and  C_19
REMARK                            x       y       z     vdW  Elec       q    Type
REMARK                         _______ _______ _______ _____ _____    ______ ____
ROOT
ATOM      1  C   UNL     1       5.117   5.325  17.008  0.00  0.00    +0.000 A 
ATOM      2  C   UNL     1       5.140   6.655  16.796  0.00  0.00    +0.000 A 
ATOM      3  C   UNL     1       4.058   7.489  17.276  0.00  0.00    +0.000 A 
ATOM      4  C   UNL     1       2.986   7.010  17.954  0.00  0.00    +0.000 A 
ATOM      5  C   UNL     1       2.939   5.579  18.148  0.00  0.00    +0.000 A 
ATOM      6  C   UNL     1       2.042   4.730  18.755  0.00  0.00    +0.000 A 
ATOM      7  C   UNL     1       2.580   3.431  18.607  0.00  0.00    +0.000 A 
ATOM      8  N   UNL     1       3.756   3.467  17.957  0.00  0.00    +0.000 NA
ATOM      9  N   UNL     1       3.989   4.781  17.671  0.00  0.00    +0.000 N 
ENDROOT
BRANCH   7  10
ATOM     10  C   UNL     1       1.965   2.143  19.090  0.00  0.00    +0.000 C 
ATOM     11  F   UNL     1       2.738   1.067  18.770  0.00  0.00    +0.000 F 
ATOM     12  F   UNL     1       1.814   2.112  20.440  0.00  0.00    +0.000 F 
ATOM     13  F   UNL     1       0.742   1.908  18.544  0.00  0.00    +0.000 F 
ENDBRANCH   7  10
BRANCH   1  15
ATOM     14  C   UNL     1       7.364   4.586  17.315  0.00  0.00    +0.000 C 
ATOM     15  O   UNL     1       6.122   4.448  16.635  0.00  0.00    +0.000 OA
ENDBRANCH   1  15
BRANCH   4  16
ATOM     16  C   UNL     1       1.916   7.965  18.501  0.00  0.00    +0.000 C 
BRANCH  16  17
ATOM     17  O   UNL     1       2.066   7.991  19.925  0.00  0.00    +0.000 OA
ATOM     18  H   UNL     1       2.638   7.247  20.175  0.00  0.00    +0.000 HD
ENDBRANCH  16  17
BRANCH  16  19
ATOM     19  C   UNL     1       1.956   9.402  17.933  0.00  0.00    +0.000 C 
BRANCH  19  20
ATOM     20  C   UNL     1       0.848  10.294  18.444  0.00  0.00    +0.000 A 
ATOM     21  C   UNL     1       1.148  11.398  19.248  0.00  0.00    +0.000 A 
ATOM     22  C   UNL     1       0.111  12.202  19.693  0.00  0.00    +0.000 A 
ATOM     23  N   UNL     1      -1.186  11.985  19.393  0.00  0.00    +0.000 NA
ATOM     24  C   UNL     1      -1.456  10.908  18.624  0.00  0.00    +0.000 A 
ATOM     25  C   UNL     1      -0.489  10.042  18.132  0.00  0.00    +0.000 A 
ENDBRANCH  19  20
ENDBRANCH  16  19
ENDBRANCH   4  16
TORSDOF 6
ENDMDL
