MODEL 1
REMARK VINA RESULT:      -8.2      0.000      0.000
REMARK  Name = 
REMARK  6 active torsions:
REMARK  status: ('A' for Active; 'I' for Inactive)
REMARK    1  A    between atoms: C_1  and  C_2
REMARK    2  A    between atoms: C_7  and  N_8
REMARK    3  A    between atoms: N_11  and  C_12
REMARK    4  A    between atoms: C_12  and  S_14
REMARK    5  A    between atoms: S_14  and  C_15
REMARK    6  A    between atoms: C_15  and  C_16
REMARK                            x       y       z     vdW  Elec       q    Type
REMARK                         _______ _______ _______ _____ _____    ______ ____
ROOT
ATOM      1  C   UNL     1       2.442   8.779  17.987  0.00  0.00    +0.000 C 
ENDROOT
BRANCH   1   2
ATOM      2  C   UNL     1       3.001   7.373  18.011  0.00  0.00    +0.000 A 
ATOM      3  C   UNL     1       4.090   6.991  17.227  0.00  0.00    +0.000 A 
ATOM      4  C   UNL     1       4.511   5.650  17.217  0.00  0.00    +0.000 A 
ATOM      5  C   UNL     1       3.873   4.668  17.971  0.00  0.00    +0.000 A 
ATOM      6  N   UNL     1       4.230   3.388  17.845  0.00  0.00    +0.000 NA
ATOM      7  C   UNL     1       3.580   2.491  18.592  0.00  0.00    +0.000 A 
ATOM      8  N   UNL     1       3.723   1.141  18.310  0.00  0.00    +0.000 N 
ATOM      9  N   UNL     1       2.634   2.770  19.487  0.00  0.00    +0.000 NA
ATOM     10  C   UNL     1       2.256   4.046  19.573  0.00  0.00    +0.000 A 
ATOM     11  N   UNL     1       1.151   4.265  20.403  0.00  0.00    +0.000 N 
ATOM     12  C   UNL     1       2.832   5.065  18.814  0.00  0.00    +0.000 A 
ATOM     13  C   UNL     1       2.401   6.409  18.825  0.00  0.00    +0.000 A 
ATOM     14  H   UNL     1       3.245   1.020  17.422  0.00  0.00    +0.000 HD
ATOM     15  H   UNL     1       3.191   0.666  19.033  0.00  0.00    +0.000 HD
ATOM     16  H   UNL     1       0.955   3.387  20.877  0.00  0.00    +0.000 HD
ATOM     17  H   UNL     1       1.295   5.028  21.050  0.00  0.00    +0.000 HD
ENDBRANCH   1   2
BRANCH   1  18
ATOM     18  S   UNL     1       1.300   9.061  19.361  0.00  0.00    +0.000 S 
BRANCH  18  19
ATOM     19  C   UNL     1       0.675  10.698  19.080  0.00  0.00    +0.000 C 
ATOM     20  S   UNL     1       1.699  11.953  18.611  0.00  0.00    +0.000 S 
BRANCH  19  24
ATOM     21  N   UNL     1      -3.402  11.788  18.852  0.00  0.00    +0.000 N 
ATOM     22  C   UNL     1      -2.488  12.588  19.678  0.00  0.00    +0.000 C 
ATOM     23  C   UNL     1      -1.385  11.656  20.245  0.00  0.00    +0.000 C 
ATOM     24  N   UNL     1      -0.720  10.830  19.191  0.00  0.00    +0.000 N 
ATOM     25  C   UNL     1      -1.709  10.132  18.329  0.00  0.00    +0.000 C 
ATOM     26  C   UNL     1      -2.710  11.136  17.729  0.00  0.00    +0.000 C 
BRANCH  21  33
ATOM     27  C   UNL     1      -4.981  12.524  21.226  0.00  0.00    +0.000 C 
ATOM     28  C   UNL     1      -5.535  12.448  19.828  0.00  0.00    +0.000 A 
ATOM     29  C   UNL     1      -6.903  12.759  19.660  0.00  0.00    +0.000 A 
ATOM     30  C   UNL     1      -7.480  12.801  18.398  0.00  0.00    +0.000 A 
ATOM     31  C   UNL     1      -6.698  12.519  17.285  0.00  0.00    +0.000 A 
ATOM     32  C   UNL     1      -5.350  12.177  17.442  0.00  0.00    +0.000 A 
ATOM     33  C   UNL     1      -4.742  12.110  18.703  0.00  0.00    +0.000 A 
ENDBRANCH  21  33
ENDBRANCH  19  24
ENDBRANCH  18  19
ENDBRANCH   1  18
TORSDOF 5
ENDMDL
MODEL 2
REMARK VINA RESULT:      -8.2      3.725      5.946
REMARK  Name = 
REMARK  6 active torsions:
REMARK  status: ('A' for Active; 'I' for Inactive)
REMARK    1  A    between atoms: C_1  and  C_2
REMARK    2  A    between atoms: C_7  and  N_8
REMARK    3  A    between atoms: N_11  and  C_12
REMARK    4  A    between atoms: C_12  and  S_14
REMARK    5  A    between atoms: S_14  and  C_15
REMARK    6  A    between atoms: C_15  and  C_16
REMARK                            x       y       z     vdW  Elec       q    Type
REMARK                         _______ _______ _______ _____ _____    ______ ____
ROOT
ATOM      1  C   UNL     1       3.443   3.610  18.022  0.00  0.00    +0.000 C 
ENDROOT
BRANCH   1   2
ATOM      2  C   UNL     1       4.661   4.015  17.220  0.00  0.00    +0.000 A 
ATOM      3  C   UNL     1       5.755   4.659  17.801  0.00  0.00    +0.000 A 
ATOM      4  C   UNL     1       6.820   5.096  16.995  0.00  0.00    +0.000 A 
ATOM      5  C   UNL     1       6.829   4.912  15.615  0.00  0.00    +0.000 A 
ATOM      6  N   UNL     1       7.803   5.444  14.873  0.00  0.00    +0.000 NA
ATOM      7  C   UNL     1       7.756   5.236  13.554  0.00  0.00    +0.000 A 
ATOM      8  N   UNL     1       8.579   5.977  12.721  0.00  0.00    +0.000 N 
ATOM      9  N   UNL     1       6.843   4.504  12.918  0.00  0.00    +0.000 NA
ATOM     10  C   UNL     1       5.852   4.014  13.664  0.00  0.00    +0.000 A 
ATOM     11  N   UNL     1       4.833   3.394  12.932  0.00  0.00    +0.000 N 
ATOM     12  C   UNL     1       5.771   4.200  15.044  0.00  0.00    +0.000 A 
ATOM     13  C   UNL     1       4.694   3.763  15.847  0.00  0.00    +0.000 A 
ATOM     14  H   UNL     1       8.202   6.919  12.770  0.00  0.00    +0.000 HD
ATOM     15  H   UNL     1       8.408   5.608  11.790  0.00  0.00    +0.000 HD
ATOM     16  H   UNL     1       5.150   3.338  11.967  0.00  0.00    +0.000 HD
ATOM     17  H   UNL     1       4.578   2.491  13.307  0.00  0.00    +0.000 HD
ENDBRANCH   1   2
BRANCH   1  18
ATOM     18  S   UNL     1       2.135   4.856  17.913  0.00  0.00    +0.000 S 
BRANCH  18  19
ATOM     19  C   UNL     1       2.187   5.680  19.484  0.00  0.00    +0.000 C 
ATOM     20  S   UNL     1       2.373   4.811  20.918  0.00  0.00    +0.000 S 
BRANCH  19  24
ATOM     21  N   UNL     1       1.243   9.769  18.987  0.00  0.00    +0.000 N 
ATOM     22  C   UNL     1       1.565   8.955  17.807  0.00  0.00    +0.000 C 
ATOM     23  C   UNL     1       2.584   7.862  18.221  0.00  0.00    +0.000 C 
ATOM     24  N   UNL     1       2.151   7.083  19.421  0.00  0.00    +0.000 N 
ATOM     25  C   UNL     1       1.741   7.972  20.539  0.00  0.00    +0.000 C 
ATOM     26  C   UNL     1       0.661   8.965  20.074  0.00  0.00    +0.000 C 
BRANCH  21  33
ATOM     27  C   UNL     1      -1.510  10.481  18.221  0.00  0.00    +0.000 C 
ATOM     28  C   UNL     1      -0.422  11.482  18.506  0.00  0.00    +0.000 A 
ATOM     29  C   UNL     1      -0.762  12.850  18.400  0.00  0.00    +0.000 A 
ATOM     30  C   UNL     1       0.151  13.843  18.730  0.00  0.00    +0.000 A 
ATOM     31  C   UNL     1       1.422  13.483  19.157  0.00  0.00    +0.000 A 
ATOM     32  C   UNL     1       1.780  12.132  19.233  0.00  0.00    +0.000 A 
ATOM     33  C   UNL     1       0.888  11.106  18.893  0.00  0.00    +0.000 A 
ENDBRANCH  21  33
ENDBRANCH  19  24
ENDBRANCH  18  19
ENDBRANCH   1  18
TORSDOF 5
ENDMDL
MODEL 3
REMARK VINA RESULT:      -8.1      3.387      4.768
REMARK  Name = 
REMARK  6 active torsions:
REMARK  status: ('A' for Active; 'I' for Inactive)
REMARK    1  A    between atoms: C_1  and  C_2
REMARK    2  A    between atoms: C_7  and  N_8
REMARK    3  A    between atoms: N_11  and  C_12
REMARK    4  A    between atoms: C_12  and  S_14
REMARK    5  A    between atoms: S_14  and  C_15
REMARK    6  A    between atoms: C_15  and  C_16
REMARK                            x       y       z     vdW  Elec       q    Type
REMARK                         _______ _______ _______ _____ _____    ______ ____
ROOT
ATOM      1  C   UNL     1       1.357   8.472  21.054  0.00  0.00    +0.000 C 
ENDROOT
BRANCH   1   2
ATOM      2  C   UNL     1       1.854   7.290  20.250  0.00  0.00    +0.000 A 
ATOM      3  C   UNL     1       2.258   7.410  18.920  0.00  0.00    +0.000 A 
ATOM      4  C   UNL     1       2.623   6.265  18.191  0.00  0.00    +0.000 A 
ATOM      5  C   UNL     1       2.595   4.991  18.752  0.00  0.00    +0.000 A 
ATOM      6  N   UNL     1       2.837   3.919  17.993  0.00  0.00    +0.000 NA
ATOM      7  C   UNL     1       2.793   2.723  18.586  0.00  0.00    +0.000 A 
ATOM      8  N   UNL     1       2.772   1.578  17.805  0.00  0.00    +0.000 N 
ATOM      9  N   UNL     1       2.572   2.509  19.883  0.00  0.00    +0.000 NA
ATOM     10  C   UNL     1       2.290   3.584  20.621  0.00  0.00    +0.000 A 
ATOM     11  N   UNL     1       1.904   3.294  21.934  0.00  0.00    +0.000 N 
ATOM     12  C   UNL     1       2.264   4.879  20.104  0.00  0.00    +0.000 A 
ATOM     13  C   UNL     1       1.891   6.025  20.841  0.00  0.00    +0.000 A 
ATOM     14  H   UNL     1       1.858   1.595  17.362  0.00  0.00    +0.000 HD
ATOM     15  H   UNL     1       2.796   0.810  18.468  0.00  0.00    +0.000 HD
ATOM     16  H   UNL     1       2.057   2.299  22.078  0.00  0.00    +0.000 HD
ATOM     17  H   UNL     1       2.390   3.861  22.616  0.00  0.00    +0.000 HD
ENDBRANCH   1   2
BRANCH   1  18
ATOM     18  S   UNL     1       0.425   9.630  20.022  0.00  0.00    +0.000 S 
BRANCH  18  19
ATOM     19  C   UNL     1      -0.231  10.810  21.175  0.00  0.00    +0.000 C 
ATOM     20  S   UNL     1      -0.624  10.361  22.752  0.00  0.00    +0.000 S 
BRANCH  19  24
ATOM     21  N   UNL     1       0.354  14.593  19.385  0.00  0.00    +0.000 N 
ATOM     22  C   UNL     1       1.069  14.265  20.625  0.00  0.00    +0.000 C 
ATOM     23  C   UNL     1       0.185  13.311  21.471  0.00  0.00    +0.000 C 
ATOM     24  N   UNL     1      -0.305  12.129  20.698  0.00  0.00    +0.000 N 
ATOM     25  C   UNL     1      -0.923  12.531  19.407  0.00  0.00    +0.000 C 
ATOM     26  C   UNL     1       0.050  13.396  18.586  0.00  0.00    +0.000 C 
BRANCH  21  33
ATOM     27  C   UNL     1       3.006  15.279  18.304  0.00  0.00    +0.000 C 
ATOM     28  C   UNL     1       1.795  16.170  18.212  0.00  0.00    +0.000 A 
ATOM     29  C   UNL     1       1.957  17.411  17.556  0.00  0.00    +0.000 A 
ATOM     30  C   UNL     1       0.876  18.258  17.346  0.00  0.00    +0.000 A 
ATOM     31  C   UNL     1      -0.380  17.881  17.803  0.00  0.00    +0.000 A 
ATOM     32  C   UNL     1      -0.546  16.670  18.484  0.00  0.00    +0.000 A 
ATOM     33  C   UNL     1       0.526  15.800  18.725  0.00  0.00    +0.000 A 
ENDBRANCH  21  33
ENDBRANCH  19  24
ENDBRANCH  18  19
ENDBRANCH   1  18
TORSDOF 5
ENDMDL
MODEL 4
REMARK VINA RESULT:      -8.1      0.890      1.776
REMARK  Name = 
REMARK  6 active torsions:
REMARK  status: ('A' for Active; 'I' for Inactive)
REMARK    1  A    between atoms: C_1  and  C_2
REMARK    2  A    between atoms: C_7  and  N_8
REMARK    3  A    between atoms: N_11  and  C_12
REMARK    4  A    between atoms: C_12  and  S_14
REMARK    5  A    between atoms: S_14  and  C_15
REMARK    6  A    between atoms: C_15  and  C_16
REMARK                            x       y       z     vdW  Elec       q    Type
REMARK                         _______ _______ _______ _____ _____    ______ ____
ROOT
ATOM      1  C   UNL     1       1.606   8.616  17.889  0.00  0.00    +0.000 C 
ENDROOT
BRANCH   1   2
ATOM      2  C   UNL     1       2.525   7.454  18.200  0.00  0.00    +0.000 A 
ATOM      3  C   UNL     1       3.777   7.313  17.602  0.00  0.00    +0.000 A 
ATOM      4  C   UNL     1       4.551   6.167  17.856  0.00  0.00    +0.000 A 
ATOM      5  C   UNL     1       4.110   5.147  18.694  0.00  0.00    +0.000 A 
ATOM      6  N   UNL     1       4.823   4.025  18.817  0.00  0.00    +0.000 NA
ATOM      7  C   UNL     1       4.348   3.080  19.634  0.00  0.00    +0.000 A 
ATOM      8  N   UNL     1       4.899   1.809  19.594  0.00  0.00    +0.000 N 
ATOM      9  N   UNL     1       3.244   3.180  20.372  0.00  0.00    +0.000 NA
ATOM     10  C   UNL     1       2.518   4.287  20.209  0.00  0.00    +0.000 A 
ATOM     11  N   UNL     1       1.289   4.274  20.877  0.00  0.00    +0.000 N 
ATOM     12  C   UNL     1       2.891   5.323  19.353  0.00  0.00    +0.000 A 
ATOM     13  C   UNL     1       2.105   6.469  19.098  0.00  0.00    +0.000 A 
ATOM     14  H   UNL     1       4.605   1.438  18.696  0.00  0.00    +0.000 HD
ATOM     15  H   UNL     1       4.422   1.295  20.329  0.00  0.00    +0.000 HD
ATOM     16  H   UNL     1       1.279   3.446  21.468  0.00  0.00    +0.000 HD
ATOM     17  H   UNL     1       1.122   5.122  21.400  0.00  0.00    +0.000 HD
ENDBRANCH   1   2
BRANCH   1  18
ATOM     18  S   UNL     1       1.231   9.579  19.374  0.00  0.00    +0.000 S 
BRANCH  18  19
ATOM     19  C   UNL     1       0.949  11.223  18.767  0.00  0.00    +0.000 C 
ATOM     20  S   UNL     1       2.236  12.253  18.411  0.00  0.00    +0.000 S 
BRANCH  19  24
ATOM     21  N   UNL     1      -3.244  11.750  18.824  0.00  0.00    +0.000 N 
ATOM     22  C   UNL     1      -2.687  10.448  18.430  0.00  0.00    +0.000 C 
ATOM     23  C   UNL     1      -1.321  10.684  17.732  0.00  0.00    +0.000 C 
ATOM     24  N   UNL     1      -0.397  11.547  18.530  0.00  0.00    +0.000 N 
ATOM     25  C   UNL     1      -1.062  12.797  18.982  0.00  0.00    +0.000 C 
ATOM     26  C   UNL     1      -2.358  12.476  19.747  0.00  0.00    +0.000 C 
BRANCH  21  33
ATOM     27  C   UNL     1      -4.881  11.536  16.386  0.00  0.00    +0.000 C 
ATOM     28  C   UNL     1      -5.421  11.907  17.741  0.00  0.00    +0.000 A 
ATOM     29  C   UNL     1      -6.808  12.159  17.834  0.00  0.00    +0.000 A 
ATOM     30  C   UNL     1      -7.410  12.421  19.058  0.00  0.00    +0.000 A 
ATOM     31  C   UNL     1      -6.629  12.447  20.206  0.00  0.00    +0.000 A 
ATOM     32  C   UNL     1      -5.248  12.231  20.121  0.00  0.00    +0.000 A 
ATOM     33  C   UNL     1      -4.609  11.980  18.900  0.00  0.00    +0.000 A 
ENDBRANCH  21  33
ENDBRANCH  19  24
ENDBRANCH  18  19
ENDBRANCH   1  18
TORSDOF 5
ENDMDL
MODEL 5
REMARK VINA RESULT:      -8.1      2.563      3.770
REMARK  Name = 
REMARK  6 active torsions:
REMARK  status: ('A' for Active; 'I' for Inactive)
REMARK    1  A    between atoms: C_1  and  C_2
REMARK    2  A    between atoms: C_7  and  N_8
REMARK    3  A    between atoms: N_11  and  C_12
REMARK    4  A    between atoms: C_12  and  S_14
REMARK    5  A    between atoms: S_14  and  C_15
REMARK    6  A    between atoms: C_15  and  C_16
REMARK                            x       y       z     vdW  Elec       q    Type
REMARK                         _______ _______ _______ _____ _____    ______ ____
ROOT
ATOM      1  C   UNL     1       2.110   8.427  17.881  0.00  0.00    +0.000 C 
ENDROOT
BRANCH   1   2
ATOM      2  C   UNL     1       2.760   7.066  17.997  0.00  0.00    +0.000 A 
ATOM      3  C   UNL     1       4.001   6.781  17.425  0.00  0.00    +0.000 A 
ATOM      4  C   UNL     1       4.516   5.475  17.483  0.00  0.00    +0.000 A 
ATOM      5  C   UNL     1       3.827   4.433  18.099  0.00  0.00    +0.000 A 
ATOM      6  N   UNL     1       4.297   3.185  18.031  0.00  0.00    +0.000 NA
ATOM      7  C   UNL     1       3.591   2.227  18.638  0.00  0.00    +0.000 A 
ATOM      8  N   UNL     1       3.885   0.898  18.377  0.00  0.00    +0.000 N 
ATOM      9  N   UNL     1       2.478   2.417  19.345  0.00  0.00    +0.000 NA
ATOM     10  C   UNL     1       1.996   3.660  19.369  0.00  0.00    +0.000 A 
ATOM     11  N   UNL     1       0.744   3.780  19.983  0.00  0.00    +0.000 N 
ATOM     12  C   UNL     1       2.622   4.735  18.738  0.00  0.00    +0.000 A 
ATOM     13  C   UNL     1       2.095   6.043  18.679  0.00  0.00    +0.000 A 
ATOM     14  H   UNL     1       3.589   0.761  17.415  0.00  0.00    +0.000 HD
ATOM     15  H   UNL     1       3.267   0.370  18.985  0.00  0.00    +0.000 HD
ATOM     16  H   UNL     1       0.531   2.879  20.406  0.00  0.00    +0.000 HD
ATOM     17  H   UNL     1       0.708   4.537  20.651  0.00  0.00    +0.000 HD
ENDBRANCH   1   2
BRANCH   1  18
ATOM     18  S   UNL     1       1.505   9.011  19.483  0.00  0.00    +0.000 S 
BRANCH  18  19
ATOM     19  C   UNL     1       0.138  10.067  19.074  0.00  0.00    +0.000 C 
ATOM     20  S   UNL     1      -0.794   9.791  17.697  0.00  0.00    +0.000 S 
BRANCH  19  24
ATOM     21  N   UNL     1      -1.452  12.585  22.074  0.00  0.00    +0.000 N 
ATOM     22  C   UNL     1      -2.026  12.623  20.722  0.00  0.00    +0.000 C 
ATOM     23  C   UNL     1      -0.904  12.313  19.696  0.00  0.00    +0.000 C 
ATOM     24  N   UNL     1      -0.144  11.067  20.020  0.00  0.00    +0.000 N 
ATOM     25  C   UNL     1       0.316  11.052  21.433  0.00  0.00    +0.000 C 
ATOM     26  C   UNL     1      -0.868  11.272  22.392  0.00  0.00    +0.000 C 
BRANCH  21  33
ATOM     27  C   UNL     1      -0.052  15.064  22.825  0.00  0.00    +0.000 C 
ATOM     28  C   UNL     1      -1.285  14.544  23.514  0.00  0.00    +0.000 A 
ATOM     29  C   UNL     1      -1.796  15.310  24.585  0.00  0.00    +0.000 A 
ATOM     30  C   UNL     1      -2.979  14.955  25.221  0.00  0.00    +0.000 A 
ATOM     31  C   UNL     1      -3.660  13.819  24.803  0.00  0.00    +0.000 A 
ATOM     32  C   UNL     1      -3.146  13.034  23.765  0.00  0.00    +0.000 A 
ATOM     33  C   UNL     1      -1.948  13.356  23.113  0.00  0.00    +0.000 A 
ENDBRANCH  21  33
ENDBRANCH  19  24
ENDBRANCH  18  19
ENDBRANCH   1  18
TORSDOF 5
ENDMDL
MODEL 6
REMARK VINA RESULT:      -8.1      2.494      3.012
REMARK  Name = 
REMARK  6 active torsions:
REMARK  status: ('A' for Active; 'I' for Inactive)
REMARK    1  A    between atoms: C_1  and  C_2
REMARK    2  A    between atoms: C_7  and  N_8
REMARK    3  A    between atoms: N_11  and  C_12
REMARK    4  A    between atoms: C_12  and  S_14
REMARK    5  A    between atoms: S_14  and  C_15
REMARK    6  A    between atoms: C_15  and  C_16
REMARK                            x       y       z     vdW  Elec       q    Type
REMARK                         _______ _______ _______ _____ _____    ______ ____
ROOT
ATOM      1  C   UNL     1       1.795   8.306  19.572  0.00  0.00    +0.000 C 
ENDROOT
BRANCH   1   2
ATOM      2  C   UNL     1       2.455   6.995  19.200  0.00  0.00    +0.000 A 
ATOM      3  C   UNL     1       3.138   6.820  17.996  0.00  0.00    +0.000 A 
ATOM      4  C   UNL     1       3.652   5.556  17.659  0.00  0.00    +0.000 A 
ATOM      5  C   UNL     1       3.504   4.450  18.492  0.00  0.00    +0.000 A 
ATOM      6  N   UNL     1       3.904   3.244  18.084  0.00  0.00    +0.000 NA
ATOM      7  C   UNL     1       3.734   2.220  18.926  0.00  0.00    +0.000 A 
ATOM      8  N   UNL     1       3.883   0.925  18.457  0.00  0.00    +0.000 N 
ATOM      9  N   UNL     1       3.237   2.307  20.159  0.00  0.00    +0.000 NA
ATOM     10  C   UNL     1       2.802   3.509  20.539  0.00  0.00    +0.000 A 
ATOM     11  N   UNL     1       2.141   3.518  21.772  0.00  0.00    +0.000 N 
ATOM     12  C   UNL     1       2.888   4.643  19.731  0.00  0.00    +0.000 A 
ATOM     13  C   UNL     1       2.364   5.909  20.074  0.00  0.00    +0.000 A 
ATOM     14  H   UNL     1       3.087   0.788  17.842  0.00  0.00    +0.000 HD
ATOM     15  H   UNL     1       3.764   0.336  19.276  0.00  0.00    +0.000 HD
ATOM     16  H   UNL     1       2.260   2.594  22.181  0.00  0.00    +0.000 HD
ATOM     17  H   UNL     1       2.467   4.254  22.383  0.00  0.00    +0.000 HD
ENDBRANCH   1   2
BRANCH   1  18
ATOM     18  S   UNL     1       1.494   9.332  18.113  0.00  0.00    +0.000 S 
BRANCH  18  19
ATOM     19  C   UNL     1       1.428  10.987  18.751  0.00  0.00    +0.000 C 
ATOM     20  S   UNL     1       2.355  12.221  18.071  0.00  0.00    +0.000 S 
BRANCH  19  24
ATOM     21  N   UNL     1      -1.464  12.414  21.483  0.00  0.00    +0.000 N 
ATOM     22  C   UNL     1      -0.070  12.863  21.609  0.00  0.00    +0.000 C 
ATOM     23  C   UNL     1       0.865  11.721  21.130  0.00  0.00    +0.000 C 
ATOM     24  N   UNL     1       0.496  11.190  19.782  0.00  0.00    +0.000 N 
ATOM     25  C   UNL     1      -0.950  10.856  19.697  0.00  0.00    +0.000 C 
ATOM     26  C   UNL     1      -1.812  12.067  20.096  0.00  0.00    +0.000 C 
BRANCH  21  33
ATOM     27  C   UNL     1      -2.724  15.019  20.938  0.00  0.00    +0.000 C 
ATOM     28  C   UNL     1      -3.082  14.130  22.099  0.00  0.00    +0.000 A 
ATOM     29  C   UNL     1      -4.095  14.586  22.972  0.00  0.00    +0.000 A 
ATOM     30  C   UNL     1      -4.551  13.793  24.017  0.00  0.00    +0.000 A 
ATOM     31  C   UNL     1      -3.991  12.538  24.212  0.00  0.00    +0.000 A 
ATOM     32  C   UNL     1      -2.963  12.090  23.374  0.00  0.00    +0.000 A 
ATOM     33  C   UNL     1      -2.470  12.870  22.321  0.00  0.00    +0.000 A 
ENDBRANCH  21  33
ENDBRANCH  19  24
ENDBRANCH  18  19
ENDBRANCH   1  18
TORSDOF 5
ENDMDL
MODEL 7
REMARK VINA RESULT:      -8.1      2.493      3.676
REMARK  Name = 
REMARK  6 active torsions:
REMARK  status: ('A' for Active; 'I' for Inactive)
REMARK    1  A    between atoms: C_1  and  C_2
REMARK    2  A    between atoms: C_7  and  N_8
REMARK    3  A    between atoms: N_11  and  C_12
REMARK    4  A    between atoms: C_12  and  S_14
REMARK    5  A    between atoms: S_14  and  C_15
REMARK    6  A    between atoms: C_15  and  C_16
REMARK                            x       y       z     vdW  Elec       q    Type
REMARK                         _______ _______ _______ _____ _____    ______ ____
ROOT
ATOM      1  C   UNL     1       2.095   8.751  17.826  0.00  0.00    +0.000 C 
ENDROOT
BRANCH   1   2
ATOM      2  C   UNL     1       2.912   7.507  18.106  0.00  0.00    +0.000 A 
ATOM      3  C   UNL     1       4.088   7.217  17.414  0.00  0.00    +0.000 A 
ATOM      4  C   UNL     1       4.758   6.003  17.648  0.00  0.00    +0.000 A 
ATOM      5  C   UNL     1       4.286   5.060  18.557  0.00  0.00    +0.000 A 
ATOM      6  N   UNL     1       4.886   3.873  18.665  0.00  0.00    +0.000 NA
ATOM      7  C   UNL     1       4.386   3.008  19.552  0.00  0.00    +0.000 A 
ATOM      8  N   UNL     1       4.798   1.685  19.516  0.00  0.00    +0.000 N 
ATOM      9  N   UNL     1       3.364   3.246  20.373  0.00  0.00    +0.000 NA
ATOM     10  C   UNL     1       2.746   4.419  20.226  0.00  0.00    +0.000 A 
ATOM     11  N   UNL     1       1.583   4.556  20.992  0.00  0.00    +0.000 N 
ATOM     12  C   UNL     1       3.151   5.385  19.304  0.00  0.00    +0.000 A 
ATOM     13  C   UNL     1       2.470   6.599  19.071  0.00  0.00    +0.000 A 
ATOM     14  H   UNL     1       4.393   1.321  18.659  0.00  0.00    +0.000 HD
ATOM     15  H   UNL     1       4.333   1.247  20.306  0.00  0.00    +0.000 HD
ATOM     16  H   UNL     1       1.537   3.751  21.612  0.00  0.00    +0.000 HD
ATOM     17  H   UNL     1       1.549   5.432  21.494  0.00  0.00    +0.000 HD
ENDBRANCH   1   2
BRANCH   1  18
ATOM     18  S   UNL     1       1.166   9.275  19.287  0.00  0.00    +0.000 S 
BRANCH  18  19
ATOM     19  C   UNL     1       1.168  11.048  19.192  0.00  0.00    +0.000 C 
ATOM     20  S   UNL     1       2.213  11.862  18.148  0.00  0.00    +0.000 S 
BRANCH  19  24
ATOM     21  N   UNL     1      -1.112  13.028  22.148  0.00  0.00    +0.000 N 
ATOM     22  C   UNL     1      -0.823  11.595  22.301  0.00  0.00    +0.000 C 
ATOM     23  C   UNL     1      -0.734  10.954  20.891  0.00  0.00    +0.000 C 
ATOM     24  N   UNL     1       0.190  11.686  19.972  0.00  0.00    +0.000 N 
ATOM     25  C   UNL     1      -0.095  13.145  19.949  0.00  0.00    +0.000 C 
ATOM     26  C   UNL     1      -0.072  13.725  21.375  0.00  0.00    +0.000 C 
BRANCH  21  33
ATOM     27  C   UNL     1      -4.043  12.771  22.256  0.00  0.00    +0.000 C 
ATOM     28  C   UNL     1      -3.235  13.663  23.162  0.00  0.00    +0.000 A 
ATOM     29  C   UNL     1      -3.944  14.414  24.126  0.00  0.00    +0.000 A 
ATOM     30  C   UNL     1      -3.276  15.195  25.060  0.00  0.00    +0.000 A 
ATOM     31  C   UNL     1      -1.888  15.245  25.035  0.00  0.00    +0.000 A 
ATOM     32  C   UNL     1      -1.177  14.531  24.063  0.00  0.00    +0.000 A 
ATOM     33  C   UNL     1      -1.822  13.747  23.097  0.00  0.00    +0.000 A 
ENDBRANCH  21  33
ENDBRANCH  19  24
ENDBRANCH  18  19
ENDBRANCH   1  18
TORSDOF 5
ENDMDL
MODEL 8
REMARK VINA RESULT:      -8.1      4.702      6.990
REMARK  Name = 
REMARK  6 active torsions:
REMARK  status: ('A' for Active; 'I' for Inactive)
REMARK    1  A    between atoms: C_1  and  C_2
REMARK    2  A    between atoms: C_7  and  N_8
REMARK    3  A    between atoms: N_11  and  C_12
REMARK    4  A    between atoms: C_12  and  S_14
REMARK    5  A    between atoms: S_14  and  C_15
REMARK    6  A    between atoms: C_15  and  C_16
REMARK                            x       y       z     vdW  Elec       q    Type
REMARK                         _______ _______ _______ _____ _____    ______ ____
ROOT
ATOM      1  C   UNL     1       4.877   2.929  16.667  0.00  0.00    +0.000 C 
ENDROOT
BRANCH   1   2
ATOM      2  C   UNL     1       5.370   4.351  16.828  0.00  0.00    +0.000 A 
ATOM      3  C   UNL     1       4.934   5.389  16.004  0.00  0.00    +0.000 A 
ATOM      4  C   UNL     1       5.493   6.671  16.137  0.00  0.00    +0.000 A 
ATOM      5  C   UNL     1       6.484   6.954  17.073  0.00  0.00    +0.000 A 
ATOM      6  N   UNL     1       7.070   8.154  17.088  0.00  0.00    +0.000 NA
ATOM      7  C   UNL     1       8.017   8.365  18.007  0.00  0.00    +0.000 A 
ATOM      8  N   UNL     1       8.831   9.481  17.897  0.00  0.00    +0.000 N 
ATOM      9  N   UNL     1       8.396   7.495  18.940  0.00  0.00    +0.000 NA
ATOM     10  C   UNL     1       7.835   6.286  18.888  0.00  0.00    +0.000 A 
ATOM     11  N   UNL     1       8.382   5.358  19.781  0.00  0.00    +0.000 N 
ATOM     12  C   UNL     1       6.866   5.935  17.948  0.00  0.00    +0.000 A 
ATOM     13  C   UNL     1       6.313   4.642  17.817  0.00  0.00    +0.000 A 
ATOM     14  H   UNL     1       9.407   9.291  17.083  0.00  0.00    +0.000 HD
ATOM     15  H   UNL     1       9.420   9.456  18.724  0.00  0.00    +0.000 HD
ATOM     16  H   UNL     1       9.023   5.867  20.386  0.00  0.00    +0.000 HD
ATOM     17  H   UNL     1       7.677   4.856  20.302  0.00  0.00    +0.000 HD
ENDBRANCH   1   2
BRANCH   1  18
ATOM     18  S   UNL     1       3.148   2.766  17.174  0.00  0.00    +0.000 S 
BRANCH  18  19
ATOM     19  C   UNL     1       3.136   3.317  18.861  0.00  0.00    +0.000 C 
ATOM     20  S   UNL     1       3.999   2.493  20.053  0.00  0.00    +0.000 S 
BRANCH  19  24
ATOM     21  N   UNL     1       1.716   7.094  20.118  0.00  0.00    +0.000 N 
ATOM     22  C   UNL     1       1.562   5.935  21.007  0.00  0.00    +0.000 C 
ATOM     23  C   UNL     1       1.381   4.662  20.137  0.00  0.00    +0.000 C 
ATOM     24  N   UNL     1       2.438   4.515  19.090  0.00  0.00    +0.000 N 
ATOM     25  C   UNL     1       2.610   5.761  18.299  0.00  0.00    +0.000 C 
ATOM     26  C   UNL     1       2.879   6.960  19.226  0.00  0.00    +0.000 C 
BRANCH  21  33
ATOM     27  C   UNL     1       1.312   9.130  18.029  0.00  0.00    +0.000 C 
ATOM     28  C   UNL     1       1.124   9.377  19.502  0.00  0.00    +0.000 A 
ATOM     29  C   UNL     1       0.721  10.673  19.892  0.00  0.00    +0.000 A 
ATOM     30  C   UNL     1       0.437  10.968  21.219  0.00  0.00    +0.000 A 
ATOM     31  C   UNL     1       0.567   9.973  22.178  0.00  0.00    +0.000 A 
ATOM     32  C   UNL     1       0.998   8.693  21.809  0.00  0.00    +0.000 A 
ATOM     33  C   UNL     1       1.306   8.368  20.481  0.00  0.00    +0.000 A 
ENDBRANCH  21  33
ENDBRANCH  19  24
ENDBRANCH  18  19
ENDBRANCH   1  18
TORSDOF 5
ENDMDL
MODEL 9
REMARK VINA RESULT:      -8.0      1.362      2.658
REMARK  Name = 
REMARK  6 active torsions:
REMARK  status: ('A' for Active; 'I' for Inactive)
REMARK    1  A    between atoms: C_1  and  C_2
REMARK    2  A    between atoms: C_7  and  N_8
REMARK    3  A    between atoms: N_11  and  C_12
REMARK    4  A    between atoms: C_12  and  S_14
REMARK    5  A    between atoms: S_14  and  C_15
REMARK    6  A    between atoms: C_15  and  C_16
REMARK                            x       y       z     vdW  Elec       q    Type
REMARK                         _______ _______ _______ _____ _____    ______ ____
ROOT
ATOM      1  C   UNL     1       1.809   9.705  18.137  0.00  0.00    +0.000 C 
ENDROOT
BRANCH   1   2
ATOM      2  C   UNL     1       2.220   8.294  18.500  0.00  0.00    +0.000 A 
ATOM      3  C   UNL     1       1.773   7.663  19.661  0.00  0.00    +0.000 A 
ATOM      4  C   UNL     1       2.258   6.387  19.998  0.00  0.00    +0.000 A 
ATOM      5  C   UNL     1       3.187   5.716  19.207  0.00  0.00    +0.000 A 
ATOM      6  N   UNL     1       3.709   4.559  19.621  0.00  0.00    +0.000 NA
ATOM      7  C   UNL     1       4.597   3.963  18.820  0.00  0.00    +0.000 A 
ATOM      8  N   UNL     1       5.357   2.914  19.313  0.00  0.00    +0.000 N 
ATOM      9  N   UNL     1       4.974   4.402  17.621  0.00  0.00    +0.000 NA
ATOM     10  C   UNL     1       4.478   5.579  17.237  0.00  0.00    +0.000 A 
ATOM     11  N   UNL     1       5.028   6.075  16.050  0.00  0.00    +0.000 N 
ATOM     12  C   UNL     1       3.576   6.314  18.006  0.00  0.00    +0.000 A 
ATOM     13  C   UNL     1       3.097   7.598  17.664  0.00  0.00    +0.000 A 
ATOM     14  H   UNL     1       5.982   3.352  19.983  0.00  0.00    +0.000 HD
ATOM     15  H   UNL     1       5.905   2.595  18.520  0.00  0.00    +0.000 HD
ATOM     16  H   UNL     1       5.610   5.339  15.659  0.00  0.00    +0.000 HD
ATOM     17  H   UNL     1       4.324   6.396  15.399  0.00  0.00    +0.000 HD
ENDBRANCH   1   2
BRANCH   1  18
ATOM     18  S   UNL     1       1.063  10.560  19.546  0.00  0.00    +0.000 S 
BRANCH  18  19
ATOM     19  C   UNL     1       0.628  12.157  18.905  0.00  0.00    +0.000 C 
ATOM     20  S   UNL     1       1.803  13.199  18.293  0.00  0.00    +0.000 S 
BRANCH  19  24
ATOM     21  N   UNL     1      -3.577  12.240  19.325  0.00  0.00    +0.000 N 
ATOM     22  C   UNL     1      -2.963  11.271  18.407  0.00  0.00    +0.000 C 
ATOM     23  C   UNL     1      -1.668  11.892  17.821  0.00  0.00    +0.000 C 
ATOM     24  N   UNL     1      -0.750  12.429  18.872  0.00  0.00    +0.000 N 
ATOM     25  C   UNL     1      -1.462  13.319  19.825  0.00  0.00    +0.000 C 
ATOM     26  C   UNL     1      -2.679  12.599  20.434  0.00  0.00    +0.000 C 
BRANCH  21  33
ATOM     27  C   UNL     1      -5.398  12.242  17.011  0.00  0.00    +0.000 C 
ATOM     28  C   UNL     1      -5.848  12.322  18.446  0.00  0.00    +0.000 A 
ATOM     29  C   UNL     1      -7.239  12.396  18.681  0.00  0.00    +0.000 A 
ATOM     30  C   UNL     1      -7.750  12.383  19.972  0.00  0.00    +0.000 A 
ATOM     31  C   UNL     1      -6.875  12.311  21.048  0.00  0.00    +0.000 A 
ATOM     32  C   UNL     1      -5.493  12.272  20.828  0.00  0.00    +0.000 A 
ATOM     33  C   UNL     1      -4.945  12.298  19.538  0.00  0.00    +0.000 A 
ENDBRANCH  21  33
ENDBRANCH  19  24
ENDBRANCH  18  19
ENDBRANCH   1  18
TORSDOF 5
ENDMDL
