MODEL 1
REMARK VINA RESULT:      -7.2      0.000      0.000
REMARK  Name = 
REMARK  7 active torsions:
REMARK  status: ('A' for Active; 'I' for Inactive)
REMARK    1  A    between atoms: C_1  and  N_2
REMARK    2  A    between atoms: C_4  and  N_5
REMARK    3  A    between atoms: C_6  and  C_8
REMARK    4  A    between atoms: C_10  and  C_11
REMARK    5  A    between atoms: C_16  and  N_17
REMARK    6  A    between atoms: N_17  and  C_18
REMARK    7  A    between atoms: C_24  and  C_25
REMARK                            x       y       z     vdW  Elec       q    Type
REMARK                         _______ _______ _______ _____ _____    ______ ____
ROOT
ATOM      1  N   UNL     1      -1.183  13.576  20.410  0.00  0.00    +0.000 N 
ATOM      2  C   UNL     1      -1.262  12.186  20.434  0.00  0.00    +0.000 C 
ATOM      3  O   UNL     1      -0.859  11.450  21.332  0.00  0.00    +0.000 OA
ATOM      4  H   UNL     1      -1.603  14.048  19.607  0.00  0.00    +0.000 HD
ENDROOT
BRANCH   1   8
ATOM      5  C   UNL     1      -0.596  16.460  24.337  0.00  0.00    +0.000 C 
ATOM      6  N   UNL     1      -0.380  15.703  23.127  0.00  0.00    +0.000 N 
ATOM      7  C   UNL     1      -1.313  15.048  22.390  0.00  0.00    +0.000 A 
ATOM      8  C   UNL     1      -0.628  14.379  21.401  0.00  0.00    +0.000 A 
ATOM      9  C   UNL     1       0.756  14.674  21.653  0.00  0.00    +0.000 A 
ATOM     10  N   UNL     1       0.868  15.563  22.664  0.00  0.00    +0.000 NA
BRANCH   9  11
ATOM     11  C   UNL     1       1.938  14.169  20.917  0.00  0.00    +0.000 C 
ATOM     12  O   UNL     1       2.729  13.406  21.479  0.00  0.00    +0.000 OA
ATOM     13  N   UNL     1       2.145  14.581  19.586  0.00  0.00    +0.000 N 
ATOM     14  C   UNL     1       3.091  13.853  18.743  0.00  0.00    +0.000 C 
ATOM     15  C   UNL     1       4.098  14.793  18.082  0.00  0.00    +0.000 C 
ATOM     16  C   UNL     1       3.402  15.943  17.357  0.00  0.00    +0.000 C 
ATOM     17  C   UNL     1       2.445  16.662  18.300  0.00  0.00    +0.000 C 
ATOM     18  C   UNL     1       1.449  15.690  18.927  0.00  0.00    +0.000 C 
ENDBRANCH   9  11
ENDBRANCH   1   8
BRANCH   2  19
ATOM     19  C   UNL     1      -1.922  11.588  19.216  0.00  0.00    +0.000 A 
ATOM     20  N   UNL     1      -3.277  11.784  19.168  0.00  0.00    +0.000 NA
ATOM     21  C   UNL     1      -3.964  11.266  18.120  0.00  0.00    +0.000 A 
ATOM     22  C   UNL     1      -3.314  10.572  17.109  0.00  0.00    +0.000 A 
ATOM     23  C   UNL     1      -1.937  10.394  17.168  0.00  0.00    +0.000 A 
ATOM     24  C   UNL     1      -1.189  10.901  18.234  0.00  0.00    +0.000 A 
BRANCH  21  25
ATOM     25  C   UNL     1      -5.456  11.478  18.065  0.00  0.00    +0.000 C 
ATOM     26  C   UNL     1      -6.392  10.468  18.689  0.00  0.00    +0.000 C 
ATOM     27  C   UNL     1      -6.207  11.809  19.335  0.00  0.00    +0.000 C 
ENDBRANCH  21  25
BRANCH  24  28
ATOM     28  N   UNL     1       0.214  10.759  18.231  0.00  0.00    +0.000 N 
ATOM     29  H   UNL     1       0.711  11.497  17.723  0.00  0.00    +0.000 HD
BRANCH  28  30
ATOM     30  C   UNL     1       0.987   9.671  18.655  0.00  0.00    +0.000 A 
ATOM     31  C   UNL     1       1.733   8.868  17.803  0.00  0.00    +0.000 A 
ATOM     32  N   UNL     1       2.379   7.735  18.165  0.00  0.00    +0.000 NA
ATOM     33  C   UNL     1       2.267   7.400  19.456  0.00  0.00    +0.000 A 
ATOM     34  N   UNL     1       1.600   8.094  20.392  0.00  0.00    +0.000 NA
ATOM     35  C   UNL     1       0.979   9.217  19.961  0.00  0.00    +0.000 A 
ENDBRANCH  28  30
ENDBRANCH  24  28
ENDBRANCH   2  19
TORSDOF 6
ENDMDL
MODEL 2
REMARK VINA RESULT:      -7.2      2.589      4.961
REMARK  Name = 
REMARK  7 active torsions:
REMARK  status: ('A' for Active; 'I' for Inactive)
REMARK    1  A    between atoms: C_1  and  N_2
REMARK    2  A    between atoms: C_4  and  N_5
REMARK    3  A    between atoms: C_6  and  C_8
REMARK    4  A    between atoms: C_10  and  C_11
REMARK    5  A    between atoms: C_16  and  N_17
REMARK    6  A    between atoms: N_17  and  C_18
REMARK    7  A    between atoms: C_24  and  C_25
REMARK                            x       y       z     vdW  Elec       q    Type
REMARK                         _______ _______ _______ _____ _____    ______ ____
ROOT
ATOM      1  N   UNL     1      -2.384  13.244  20.867  0.00  0.00    +0.000 N 
ATOM      2  C   UNL     1      -1.643  12.125  20.494  0.00  0.00    +0.000 C 
ATOM      3  O   UNL     1      -0.733  11.608  21.137  0.00  0.00    +0.000 OA
ATOM      4  H   UNL     1      -3.138  13.528  20.238  0.00  0.00    +0.000 HD
ENDROOT
BRANCH   1   8
ATOM      5  C   UNL     1      -0.857  16.534  24.172  0.00  0.00    +0.000 C 
ATOM      6  N   UNL     1      -1.502  15.419  23.520  0.00  0.00    +0.000 N 
ATOM      7  C   UNL     1      -1.310  14.990  22.246  0.00  0.00    +0.000 A 
ATOM      8  C   UNL     1      -2.220  13.978  22.037  0.00  0.00    +0.000 A 
ATOM      9  C   UNL     1      -2.959  13.891  23.266  0.00  0.00    +0.000 A 
ATOM     10  N   UNL     1      -2.432  14.727  24.188  0.00  0.00    +0.000 NA
BRANCH   9  11
ATOM     11  C   UNL     1      -4.100  12.999  23.576  0.00  0.00    +0.000 C 
ATOM     12  O   UNL     1      -3.897  11.917  24.133  0.00  0.00    +0.000 OA
ATOM     13  N   UNL     1      -5.401  13.398  23.214  0.00  0.00    +0.000 N 
ATOM     14  C   UNL     1      -6.555  12.714  23.794  0.00  0.00    +0.000 C 
ATOM     15  C   UNL     1      -7.534  12.247  22.717  0.00  0.00    +0.000 C 
ATOM     16  C   UNL     1      -7.917  13.385  21.773  0.00  0.00    +0.000 C 
ATOM     17  C   UNL     1      -6.667  14.039  21.199  0.00  0.00    +0.000 C 
ATOM     18  C   UNL     1      -5.724  14.503  22.305  0.00  0.00    +0.000 C 
ENDBRANCH   9  11
ENDBRANCH   1   8
BRANCH   2  19
ATOM     19  C   UNL     1      -2.050  11.535  19.166  0.00  0.00    +0.000 A 
ATOM     20  N   UNL     1      -3.384  11.667  18.887  0.00  0.00    +0.000 NA
ATOM     21  C   UNL     1      -3.852  11.149  17.724  0.00  0.00    +0.000 A 
ATOM     22  C   UNL     1      -3.002  10.519  16.826  0.00  0.00    +0.000 A 
ATOM     23  C   UNL     1      -1.647  10.405  17.120  0.00  0.00    +0.000 A 
ATOM     24  C   UNL     1      -1.123  10.914  18.311  0.00  0.00    +0.000 A 
BRANCH  21  25
ATOM     25  C   UNL     1      -5.321  11.291  17.415  0.00  0.00    +0.000 C 
ATOM     26  C   UNL     1      -6.337  11.307  18.535  0.00  0.00    +0.000 C 
ATOM     27  C   UNL     1      -6.038  12.570  17.783  0.00  0.00    +0.000 C 
ENDBRANCH  21  25
BRANCH  24  28
ATOM     28  N   UNL     1       0.265  10.840  18.550  0.00  0.00    +0.000 N 
ATOM     29  H   UNL     1       0.769  11.716  18.381  0.00  0.00    +0.000 HD
BRANCH  28  30
ATOM     30  C   UNL     1       1.054   9.709  18.795  0.00  0.00    +0.000 A 
ATOM     31  C   UNL     1       1.777   9.038  17.818  0.00  0.00    +0.000 A 
ATOM     32  N   UNL     1       2.437   7.871  17.999  0.00  0.00    +0.000 NA
ATOM     33  C   UNL     1       2.366   7.359  19.234  0.00  0.00    +0.000 A 
ATOM     34  N   UNL     1       1.725   7.911  20.277  0.00  0.00    +0.000 NA
ATOM     35  C   UNL     1       1.087   9.079  20.025  0.00  0.00    +0.000 A 
ENDBRANCH  28  30
ENDBRANCH  24  28
ENDBRANCH   2  19
TORSDOF 6
ENDMDL
MODEL 3
REMARK VINA RESULT:      -7.2      3.051      8.306
REMARK  Name = 
REMARK  7 active torsions:
REMARK  status: ('A' for Active; 'I' for Inactive)
REMARK    1  A    between atoms: C_1  and  N_2
REMARK    2  A    between atoms: C_4  and  N_5
REMARK    3  A    between atoms: C_6  and  C_8
REMARK    4  A    between atoms: C_10  and  C_11
REMARK    5  A    between atoms: C_16  and  N_17
REMARK    6  A    between atoms: N_17  and  C_18
REMARK    7  A    between atoms: C_24  and  C_25
REMARK                            x       y       z     vdW  Elec       q    Type
REMARK                         _______ _______ _______ _____ _____    ______ ____
ROOT
ATOM      1  N   UNL     1       1.734   8.086  17.995  0.00  0.00    +0.000 N 
ATOM      2  C   UNL     1       1.617   9.469  17.885  0.00  0.00    +0.000 C 
ATOM      3  O   UNL     1       2.511  10.252  17.571  0.00  0.00    +0.000 OA
ATOM      4  H   UNL     1       0.883   7.568  18.228  0.00  0.00    +0.000 HD
ENDROOT
BRANCH   1   8
ATOM      5  C   UNL     1       6.402   6.777  17.237  0.00  0.00    +0.000 C 
ATOM      6  N   UNL     1       4.966   6.770  17.388  0.00  0.00    +0.000 N 
ATOM      7  C   UNL     1       4.154   7.844  17.561  0.00  0.00    +0.000 A 
ATOM      8  C   UNL     1       2.888   7.344  17.771  0.00  0.00    +0.000 A 
ATOM      9  C   UNL     1       3.051   5.916  17.739  0.00  0.00    +0.000 A 
ATOM     10  N   UNL     1       4.322   5.598  17.410  0.00  0.00    +0.000 NA
BRANCH   9  11
ATOM     11  C   UNL     1       2.014   4.882  17.960  0.00  0.00    +0.000 C 
ATOM     12  O   UNL     1       1.039   4.821  17.207  0.00  0.00    +0.000 OA
ATOM     13  N   UNL     1       2.155   3.990  19.042  0.00  0.00    +0.000 N 
ATOM     14  C   UNL     1       1.346   2.773  19.086  0.00  0.00    +0.000 C 
ATOM     15  C   UNL     1       0.621   2.625  20.423  0.00  0.00    +0.000 C 
ATOM     16  C   UNL     1       1.585   2.754  21.601  0.00  0.00    +0.000 C 
ATOM     17  C   UNL     1       2.381   4.048  21.495  0.00  0.00    +0.000 C 
ATOM     18  C   UNL     1       3.099   4.150  20.152  0.00  0.00    +0.000 C 
ENDBRANCH   9  11
ENDBRANCH   1   8
BRANCH   2  19
ATOM     19  C   UNL     1       0.234   9.994  18.187  0.00  0.00    +0.000 A 
ATOM     20  N   UNL     1      -0.712   9.622  17.270  0.00  0.00    +0.000 NA
ATOM     21  C   UNL     1      -1.983  10.061  17.443  0.00  0.00    +0.000 A 
ATOM     22  C   UNL     1      -2.326  10.851  18.532  0.00  0.00    +0.000 A 
ATOM     23  C   UNL     1      -1.355  11.209  19.460  0.00  0.00    +0.000 A 
ATOM     24  C   UNL     1      -0.030  10.788  19.316  0.00  0.00    +0.000 A 
BRANCH  21  25
ATOM     25  C   UNL     1      -3.027   9.656  16.434  0.00  0.00    +0.000 C 
ATOM     26  C   UNL     1      -3.845  10.708  15.721  0.00  0.00    +0.000 C 
ATOM     27  C   UNL     1      -2.795   9.946  14.968  0.00  0.00    +0.000 C 
ENDBRANCH  21  25
BRANCH  24  28
ATOM     28  N   UNL     1       0.917  11.113  20.309  0.00  0.00    +0.000 N 
ATOM     29  H   UNL     1       1.329  10.302  20.780  0.00  0.00    +0.000 HD
BRANCH  28  30
ATOM     30  C   UNL     1       1.219  12.366  20.857  0.00  0.00    +0.000 A 
ATOM     31  C   UNL     1       0.422  13.023  21.785  0.00  0.00    +0.000 A 
ATOM     32  N   UNL     1       0.619  14.285  22.228  0.00  0.00    +0.000 NA
ATOM     33  C   UNL     1       1.680  14.915  21.709  0.00  0.00    +0.000 A 
ATOM     34  N   UNL     1       2.547  14.395  20.825  0.00  0.00    +0.000 NA
ATOM     35  C   UNL     1       2.290  13.127  20.425  0.00  0.00    +0.000 A 
ENDBRANCH  28  30
ENDBRANCH  24  28
ENDBRANCH   2  19
TORSDOF 6
ENDMDL
MODEL 4
REMARK VINA RESULT:      -7.2      2.524      5.786
REMARK  Name = 
REMARK  7 active torsions:
REMARK  status: ('A' for Active; 'I' for Inactive)
REMARK    1  A    between atoms: C_1  and  N_2
REMARK    2  A    between atoms: C_4  and  N_5
REMARK    3  A    between atoms: C_6  and  C_8
REMARK    4  A    between atoms: C_10  and  C_11
REMARK    5  A    between atoms: C_16  and  N_17
REMARK    6  A    between atoms: N_17  and  C_18
REMARK    7  A    between atoms: C_24  and  C_25
REMARK                            x       y       z     vdW  Elec       q    Type
REMARK                         _______ _______ _______ _____ _____    ______ ____
ROOT
ATOM      1  N   UNL     1      -2.249  13.629  20.158  0.00  0.00    +0.000 N 
ATOM      2  C   UNL     1      -3.369  12.899  20.549  0.00  0.00    +0.000 C 
ATOM      3  O   UNL     1      -3.633  12.529  21.690  0.00  0.00    +0.000 OA
ATOM      4  H   UNL     1      -2.194  13.897  19.172  0.00  0.00    +0.000 HD
ENDROOT
BRANCH   1   8
ATOM      5  C   UNL     1       0.673  16.425  22.937  0.00  0.00    +0.000 C 
ATOM      6  N   UNL     1       0.099  15.328  22.194  0.00  0.00    +0.000 N 
ATOM      7  C   UNL     1      -0.994  15.364  21.389  0.00  0.00    +0.000 A 
ATOM      8  C   UNL     1      -1.227  14.066  20.993  0.00  0.00    +0.000 A 
ATOM      9  C   UNL     1      -0.213  13.294  21.658  0.00  0.00    +0.000 A 
ATOM     10  N   UNL     1       0.640  14.111  22.315  0.00  0.00    +0.000 NA
BRANCH   9  11
ATOM     11  C   UNL     1      -0.028  11.826  21.626  0.00  0.00    +0.000 C 
ATOM     12  O   UNL     1      -0.044  11.183  22.680  0.00  0.00    +0.000 OA
ATOM     13  N   UNL     1       0.178  11.187  20.388  0.00  0.00    +0.000 N 
ATOM     14  C   UNL     1       0.029   9.736  20.288  0.00  0.00    +0.000 C 
ATOM     15  C   UNL     1       1.248   9.087  19.634  0.00  0.00    +0.000 C 
ATOM     16  C   UNL     1       1.593   9.753  18.303  0.00  0.00    +0.000 C 
ATOM     17  C   UNL     1       1.745  11.257  18.487  0.00  0.00    +0.000 C 
ATOM     18  C   UNL     1       0.503  11.867  19.130  0.00  0.00    +0.000 C 
ENDBRANCH   9  11
ENDBRANCH   1   8
BRANCH   2  19
ATOM     19  C   UNL     1      -4.312  12.569  19.418  0.00  0.00    +0.000 A 
ATOM     20  N   UNL     1      -3.792  11.696  18.499  0.00  0.00    +0.000 NA
ATOM     21  C   UNL     1      -4.556  11.353  17.434  0.00  0.00    +0.000 A 
ATOM     22  C   UNL     1      -5.842  11.855  17.282  0.00  0.00    +0.000 A 
ATOM     23  C   UNL     1      -6.359  12.730  18.231  0.00  0.00    +0.000 A 
ATOM     24  C   UNL     1      -5.603  13.119  19.340  0.00  0.00    +0.000 A 
BRANCH  21  25
ATOM     25  C   UNL     1      -3.986  10.394  16.419  0.00  0.00    +0.000 C 
ATOM     26  C   UNL     1      -2.961  10.869  15.415  0.00  0.00    +0.000 C 
ATOM     27  C   UNL     1      -2.541   9.964  16.535  0.00  0.00    +0.000 C 
ENDBRANCH  21  25
BRANCH  24  28
ATOM     28  N   UNL     1      -6.179  13.957  20.317  0.00  0.00    +0.000 N 
ATOM     29  H   UNL     1      -6.076  14.959  20.128  0.00  0.00    +0.000 HD
BRANCH  28  30
ATOM     30  C   UNL     1      -6.689  13.614  21.576  0.00  0.00    +0.000 A 
ATOM     31  C   UNL     1      -6.694  14.466  22.672  0.00  0.00    +0.000 A 
ATOM     32  N   UNL     1      -7.057  14.119  23.928  0.00  0.00    +0.000 NA
ATOM     33  C   UNL     1      -7.437  12.845  24.082  0.00  0.00    +0.000 A 
ATOM     34  N   UNL     1      -7.504  11.922  23.110  0.00  0.00    +0.000 NA
ATOM     35  C   UNL     1      -7.128  12.338  21.877  0.00  0.00    +0.000 A 
ENDBRANCH  28  30
ENDBRANCH  24  28
ENDBRANCH   2  19
TORSDOF 6
ENDMDL
MODEL 5
REMARK VINA RESULT:      -7.1      3.984      7.795
REMARK  Name = 
REMARK  7 active torsions:
REMARK  status: ('A' for Active; 'I' for Inactive)
REMARK    1  A    between atoms: C_1  and  N_2
REMARK    2  A    between atoms: C_4  and  N_5
REMARK    3  A    between atoms: C_6  and  C_8
REMARK    4  A    between atoms: C_10  and  C_11
REMARK    5  A    between atoms: C_16  and  N_17
REMARK    6  A    between atoms: N_17  and  C_18
REMARK    7  A    between atoms: C_24  and  C_25
REMARK                            x       y       z     vdW  Elec       q    Type
REMARK                         _______ _______ _______ _____ _____    ______ ____
ROOT
ATOM      1  N   UNL     1       2.848   7.411  19.442  0.00  0.00    +0.000 N 
ATOM      2  C   UNL     1       2.732   6.609  18.309  0.00  0.00    +0.000 C 
ATOM      3  O   UNL     1       1.706   6.407  17.664  0.00  0.00    +0.000 OA
ATOM      4  H   UNL     1       3.783   7.511  19.842  0.00  0.00    +0.000 HD
ENDROOT
BRANCH   1   8
ATOM      5  C   UNL     1      -0.744   8.807  22.479  0.00  0.00    +0.000 C 
ATOM      6  N   UNL     1       0.186   8.718  21.379  0.00  0.00    +0.000 N 
ATOM      7  C   UNL     1       1.071   7.720  21.131  0.00  0.00    +0.000 A 
ATOM      8  C   UNL     1       1.818   8.123  20.047  0.00  0.00    +0.000 A 
ATOM      9  C   UNL     1       1.315   9.431  19.725  0.00  0.00    +0.000 A 
ATOM     10  N   UNL     1       0.252   9.728  20.504  0.00  0.00    +0.000 NA
BRANCH   9  11
ATOM     11  C   UNL     1       1.797  10.351  18.669  0.00  0.00    +0.000 C 
ATOM     12  O   UNL     1       2.235   9.892  17.610  0.00  0.00    +0.000 OA
ATOM     13  N   UNL     1       1.759  11.740  18.899  0.00  0.00    +0.000 N 
ATOM     14  C   UNL     1       1.905  12.664  17.776  0.00  0.00    +0.000 C 
ATOM     15  C   UNL     1       2.984  13.712  18.043  0.00  0.00    +0.000 C 
ATOM     16  C   UNL     1       2.765  14.416  19.381  0.00  0.00    +0.000 C 
ATOM     17  C   UNL     1       2.635  13.393  20.503  0.00  0.00    +0.000 C 
ATOM     18  C   UNL     1       1.539  12.375  20.202  0.00  0.00    +0.000 C 
ENDBRANCH   9  11
ENDBRANCH   1   8
BRANCH   2  19
ATOM     19  C   UNL     1       4.026   5.961  17.881  0.00  0.00    +0.000 A 
ATOM     20  N   UNL     1       5.055   6.846  17.699  0.00  0.00    +0.000 NA
ATOM     21  C   UNL     1       6.255   6.362  17.295  0.00  0.00    +0.000 A 
ATOM     22  C   UNL     1       6.447   5.003  17.087  0.00  0.00    +0.000 A 
ATOM     23  C   UNL     1       5.394   4.117  17.288  0.00  0.00    +0.000 A 
ATOM     24  C   UNL     1       4.137   4.572  17.695  0.00  0.00    +0.000 A 
BRANCH  21  25
ATOM     25  C   UNL     1       7.390   7.334  17.092  0.00  0.00    +0.000 C 
ATOM     26  C   UNL     1       7.306   8.731  17.663  0.00  0.00    +0.000 C 
ATOM     27  C   UNL     1       8.246   7.733  18.272  0.00  0.00    +0.000 C 
ENDBRANCH  21  25
BRANCH  24  28
ATOM     28  N   UNL     1       3.109   3.643  17.953  0.00  0.00    +0.000 N 
ATOM     29  H   UNL     1       2.578   3.359  17.124  0.00  0.00    +0.000 HD
BRANCH  28  30
ATOM     30  C   UNL     1       2.603   3.213  19.187  0.00  0.00    +0.000 A 
ATOM     31  C   UNL     1       1.259   3.245  19.531  0.00  0.00    +0.000 A 
ATOM     32  N   UNL     1       0.761   2.963  20.757  0.00  0.00    +0.000 NA
ATOM     33  C   UNL     1       1.669   2.629  21.681  0.00  0.00    +0.000 A 
ATOM     34  N   UNL     1       2.993   2.534  21.482  0.00  0.00    +0.000 NA
ATOM     35  C   UNL     1       3.423   2.828  20.232  0.00  0.00    +0.000 A 
ENDBRANCH  28  30
ENDBRANCH  24  28
ENDBRANCH   2  19
TORSDOF 6
ENDMDL
MODEL 6
REMARK VINA RESULT:      -7.1      1.374      1.890
REMARK  Name = 
REMARK  7 active torsions:
REMARK  status: ('A' for Active; 'I' for Inactive)
REMARK    1  A    between atoms: C_1  and  N_2
REMARK    2  A    between atoms: C_4  and  N_5
REMARK    3  A    between atoms: C_6  and  C_8
REMARK    4  A    between atoms: C_10  and  C_11
REMARK    5  A    between atoms: C_16  and  N_17
REMARK    6  A    between atoms: N_17  and  C_18
REMARK    7  A    between atoms: C_24  and  C_25
REMARK                            x       y       z     vdW  Elec       q    Type
REMARK                         _______ _______ _______ _____ _____    ______ ____
ROOT
ATOM      1  N   UNL     1      -1.946  13.903  19.795  0.00  0.00    +0.000 N 
ATOM      2  C   UNL     1      -1.260  12.697  19.678  0.00  0.00    +0.000 C 
ATOM      3  O   UNL     1      -0.247  12.374  20.295  0.00  0.00    +0.000 OA
ATOM      4  H   UNL     1      -2.799  14.004  19.241  0.00  0.00    +0.000 HD
ENDROOT
BRANCH   1   8
ATOM      5  C   UNL     1      -1.553  16.896  23.665  0.00  0.00    +0.000 C 
ATOM      6  N   UNL     1      -1.468  16.315  22.346  0.00  0.00    +0.000 N 
ATOM      7  C   UNL     1      -2.060  15.173  21.911  0.00  0.00    +0.000 A 
ATOM      8  C   UNL     1      -1.601  14.961  20.631  0.00  0.00    +0.000 A 
ATOM      9  C   UNL     1      -0.684  16.040  20.388  0.00  0.00    +0.000 A 
ATOM     10  N   UNL     1      -0.695  16.905  21.427  0.00  0.00    +0.000 NA
BRANCH   9  11
ATOM     11  C   UNL     1       0.138  16.275  19.180  0.00  0.00    +0.000 C 
ATOM     12  O   UNL     1      -0.384  16.743  18.164  0.00  0.00    +0.000 OA
ATOM     13  N   UNL     1       1.508  15.943  19.207  0.00  0.00    +0.000 N 
ATOM     14  C   UNL     1       2.398  16.464  18.171  0.00  0.00    +0.000 C 
ATOM     15  C   UNL     1       3.220  15.351  17.522  0.00  0.00    +0.000 C 
ATOM     16  C   UNL     1       3.939  14.500  18.568  0.00  0.00    +0.000 C 
ATOM     17  C   UNL     1       2.949  13.983  19.603  0.00  0.00    +0.000 C 
ATOM     18  C   UNL     1       2.159  15.126  20.235  0.00  0.00    +0.000 C 
ENDBRANCH   9  11
ENDBRANCH   1   8
BRANCH   2  19
ATOM     19  C   UNL     1      -1.874  11.736  18.690  0.00  0.00    +0.000 A 
ATOM     20  N   UNL     1      -3.209  11.944  18.471  0.00  0.00    +0.000 NA
ATOM     21  C   UNL     1      -3.856  11.117  17.613  0.00  0.00    +0.000 A 
ATOM     22  C   UNL     1      -3.183  10.098  16.954  0.00  0.00    +0.000 A 
ATOM     23  C   UNL     1      -1.824   9.909  17.179  0.00  0.00    +0.000 A 
ATOM     24  C   UNL     1      -1.118  10.730  18.063  0.00  0.00    +0.000 A 
BRANCH  21  25
ATOM     25  C   UNL     1      -5.328  11.342  17.371  0.00  0.00    +0.000 C 
ATOM     26  C   UNL     1      -6.345  10.890  18.394  0.00  0.00    +0.000 C 
ATOM     27  C   UNL     1      -6.072  12.354  18.212  0.00  0.00    +0.000 C 
ENDBRANCH  21  25
BRANCH  24  28
ATOM     28  N   UNL     1       0.272  10.554  18.220  0.00  0.00    +0.000 N 
ATOM     29  H   UNL     1       0.839  11.324  17.852  0.00  0.00    +0.000 HD
BRANCH  28  30
ATOM     30  C   UNL     1       0.971   9.410  18.625  0.00  0.00    +0.000 A 
ATOM     31  C   UNL     1       1.027   8.955  19.936  0.00  0.00    +0.000 A 
ATOM     32  N   UNL     1       1.799   7.936  20.375  0.00  0.00    +0.000 NA
ATOM     33  C   UNL     1       2.552   7.343  19.440  0.00  0.00    +0.000 A 
ATOM     34  N   UNL     1       2.579   7.662  18.136  0.00  0.00    +0.000 NA
ATOM     35  C   UNL     1       1.780   8.691  17.765  0.00  0.00    +0.000 A 
ENDBRANCH  28  30
ENDBRANCH  24  28
ENDBRANCH   2  19
TORSDOF 6
ENDMDL
MODEL 7
REMARK VINA RESULT:      -7.1      2.910      8.164
REMARK  Name = 
REMARK  7 active torsions:
REMARK  status: ('A' for Active; 'I' for Inactive)
REMARK    1  A    between atoms: C_1  and  N_2
REMARK    2  A    between atoms: C_4  and  N_5
REMARK    3  A    between atoms: C_6  and  C_8
REMARK    4  A    between atoms: C_10  and  C_11
REMARK    5  A    between atoms: C_16  and  N_17
REMARK    6  A    between atoms: N_17  and  C_18
REMARK    7  A    between atoms: C_24  and  C_25
REMARK                            x       y       z     vdW  Elec       q    Type
REMARK                         _______ _______ _______ _____ _____    ______ ____
ROOT
ATOM      1  N   UNL     1       1.786   8.497  18.247  0.00  0.00    +0.000 N 
ATOM      2  C   UNL     1       1.713   9.870  18.025  0.00  0.00    +0.000 C 
ATOM      3  O   UNL     1       2.609  10.584  17.582  0.00  0.00    +0.000 OA
ATOM      4  H   UNL     1       0.936   8.038  18.582  0.00  0.00    +0.000 HD
ENDROOT
BRANCH   1   8
ATOM      5  C   UNL     1       6.082   6.782  16.610  0.00  0.00    +0.000 C 
ATOM      6  N   UNL     1       4.789   6.912  17.237  0.00  0.00    +0.000 N 
ATOM      7  C   UNL     1       3.941   7.970  17.160  0.00  0.00    +0.000 A 
ATOM      8  C   UNL     1       2.893   7.690  18.008  0.00  0.00    +0.000 A 
ATOM      9  C   UNL     1       3.226   6.420  18.593  0.00  0.00    +0.000 A 
ATOM     10  N   UNL     1       4.351   5.926  18.030  0.00  0.00    +0.000 NA
BRANCH   9  11
ATOM     11  C   UNL     1       2.467   5.669  19.618  0.00  0.00    +0.000 C 
ATOM     12  O   UNL     1       2.453   6.069  20.786  0.00  0.00    +0.000 OA
ATOM     13  N   UNL     1       1.781   4.497  19.243  0.00  0.00    +0.000 N 
ATOM     14  C   UNL     1       0.769   3.934  20.135  0.00  0.00    +0.000 C 
ATOM     15  C   UNL     1       1.012   2.448  20.398  0.00  0.00    +0.000 C 
ATOM     16  C   UNL     1       1.173   1.666  19.096  0.00  0.00    +0.000 C 
ATOM     17  C   UNL     1       2.250   2.301  18.226  0.00  0.00    +0.000 C 
ATOM     18  C   UNL     1       1.963   3.780  17.978  0.00  0.00    +0.000 C 
ENDBRANCH   9  11
ENDBRANCH   1   8
BRANCH   2  19
ATOM     19  C   UNL     1       0.377  10.478  18.376  0.00  0.00    +0.000 A 
ATOM     20  N   UNL     1      -0.674   9.950  17.674  0.00  0.00    +0.000 NA
ATOM     21  C   UNL     1      -1.915  10.445  17.905  0.00  0.00    +0.000 A 
ATOM     22  C   UNL     1      -2.124  11.447  18.842  0.00  0.00    +0.000 A 
ATOM     23  C   UNL     1      -1.047  11.963  19.554  0.00  0.00    +0.000 A 
ATOM     24  C   UNL     1       0.250  11.491  19.342  0.00  0.00    +0.000 A 
BRANCH  21  25
ATOM     25  C   UNL     1      -3.074   9.866  17.132  0.00  0.00    +0.000 C 
ATOM     26  C   UNL     1      -3.886  10.745  16.208  0.00  0.00    +0.000 C 
ATOM     27  C   UNL     1      -2.963   9.713  15.632  0.00  0.00    +0.000 C 
ENDBRANCH  21  25
BRANCH  24  28
ATOM     28  N   UNL     1       1.311  11.989  20.127  0.00  0.00    +0.000 N 
ATOM     29  H   UNL     1       1.444  11.497  21.016  0.00  0.00    +0.000 HD
BRANCH  28  30
ATOM     30  C   UNL     1       2.062  13.157  19.947  0.00  0.00    +0.000 A 
ATOM     31  C   UNL     1       2.208  13.809  18.730  0.00  0.00    +0.000 A 
ATOM     32  N   UNL     1       3.031  14.857  18.501  0.00  0.00    +0.000 NA
ATOM     33  C   UNL     1       3.741  15.270  19.558  0.00  0.00    +0.000 A 
ATOM     34  N   UNL     1       3.682  14.750  20.794  0.00  0.00    +0.000 NA
ATOM     35  C   UNL     1       2.836  13.704  20.953  0.00  0.00    +0.000 A 
ENDBRANCH  28  30
ENDBRANCH  24  28
ENDBRANCH   2  19
TORSDOF 6
ENDMDL
MODEL 8
REMARK VINA RESULT:      -7.1      1.789      4.037
REMARK  Name = 
REMARK  7 active torsions:
REMARK  status: ('A' for Active; 'I' for Inactive)
REMARK    1  A    between atoms: C_1  and  N_2
REMARK    2  A    between atoms: C_4  and  N_5
REMARK    3  A    between atoms: C_6  and  C_8
REMARK    4  A    between atoms: C_10  and  C_11
REMARK    5  A    between atoms: C_16  and  N_17
REMARK    6  A    between atoms: N_17  and  C_18
REMARK    7  A    between atoms: C_24  and  C_25
REMARK                            x       y       z     vdW  Elec       q    Type
REMARK                         _______ _______ _______ _____ _____    ______ ____
ROOT
ATOM      1  N   UNL     1      -1.102  14.079  18.980  0.00  0.00    +0.000 N 
ATOM      2  C   UNL     1      -1.085  12.799  19.528  0.00  0.00    +0.000 C 
ATOM      3  O   UNL     1      -0.562  12.470  20.591  0.00  0.00    +0.000 OA
ATOM      4  H   UNL     1      -1.616  14.199  18.105  0.00  0.00    +0.000 HD
ENDROOT
BRANCH   1   8
ATOM      5  C   UNL     1       1.933  17.811  19.950  0.00  0.00    +0.000 C 
ATOM      6  N   UNL     1       0.857  16.850  19.996  0.00  0.00    +0.000 N 
ATOM      7  C   UNL     1       0.697  15.757  19.206  0.00  0.00    +0.000 A 
ATOM      8  C   UNL     1      -0.524  15.214  19.538  0.00  0.00    +0.000 A 
ATOM      9  C   UNL     1      -1.054  16.095  20.543  0.00  0.00    +0.000 A 
ATOM     10  N   UNL     1      -0.142  17.038  20.867  0.00  0.00    +0.000 NA
BRANCH   9  11
ATOM     11  C   UNL     1      -2.370  16.011  21.216  0.00  0.00    +0.000 C 
ATOM     12  O   UNL     1      -3.339  16.613  20.745  0.00  0.00    +0.000 OA
ATOM     13  N   UNL     1      -2.490  15.252  22.397  0.00  0.00    +0.000 N 
ATOM     14  C   UNL     1      -3.815  14.881  22.887  0.00  0.00    +0.000 C 
ATOM     15  C   UNL     1      -3.999  15.252  24.358  0.00  0.00    +0.000 C 
ATOM     16  C   UNL     1      -2.860  14.711  25.221  0.00  0.00    +0.000 C 
ATOM     17  C   UNL     1      -1.514  15.148  24.658  0.00  0.00    +0.000 C 
ATOM     18  C   UNL     1      -1.367  14.747  23.193  0.00  0.00    +0.000 C 
ENDBRANCH   9  11
ENDBRANCH   1   8
BRANCH   2  19
ATOM     19  C   UNL     1      -1.799  11.765  18.694  0.00  0.00    +0.000 A 
ATOM     20  N   UNL     1      -3.153  11.955  18.615  0.00  0.00    +0.000 NA
ATOM     21  C   UNL     1      -3.887  11.065  17.904  0.00  0.00    +0.000 A 
ATOM     22  C   UNL     1      -3.285   9.997  17.252  0.00  0.00    +0.000 A 
ATOM     23  C   UNL     1      -1.907   9.826  17.332  0.00  0.00    +0.000 A 
ATOM     24  C   UNL     1      -1.112  10.713  18.063  0.00  0.00    +0.000 A 
BRANCH  21  25
ATOM     25  C   UNL     1      -5.379  11.270  17.817  0.00  0.00    +0.000 C 
ATOM     26  C   UNL     1      -6.308  10.492  18.721  0.00  0.00    +0.000 C 
ATOM     27  C   UNL     1      -6.100  11.960  18.952  0.00  0.00    +0.000 C 
ENDBRANCH  21  25
BRANCH  24  28
ATOM     28  N   UNL     1       0.288  10.549  18.071  0.00  0.00    +0.000 N 
ATOM     29  H   UNL     1       0.794  11.213  17.476  0.00  0.00    +0.000 HD
BRANCH  28  30
ATOM     30  C   UNL     1       1.047   9.507  18.618  0.00  0.00    +0.000 A 
ATOM     31  C   UNL     1       1.817   8.628  17.869  0.00  0.00    +0.000 A 
ATOM     32  N   UNL     1       2.450   7.536  18.355  0.00  0.00    +0.000 NA
ATOM     33  C   UNL     1       2.300   7.325  19.668  0.00  0.00    +0.000 A 
ATOM     34  N   UNL     1       1.607   8.103  20.515  0.00  0.00    +0.000 NA
ATOM     35  C   UNL     1       1.000   9.179  19.961  0.00  0.00    +0.000 A 
ENDBRANCH  28  30
ENDBRANCH  24  28
ENDBRANCH   2  19
TORSDOF 6
ENDMDL
MODEL 9
REMARK VINA RESULT:      -7.0      2.818      8.141
REMARK  Name = 
REMARK  7 active torsions:
REMARK  status: ('A' for Active; 'I' for Inactive)
REMARK    1  A    between atoms: C_1  and  N_2
REMARK    2  A    between atoms: C_4  and  N_5
REMARK    3  A    between atoms: C_6  and  C_8
REMARK    4  A    between atoms: C_10  and  C_11
REMARK    5  A    between atoms: C_16  and  N_17
REMARK    6  A    between atoms: N_17  and  C_18
REMARK    7  A    between atoms: C_24  and  C_25
REMARK                            x       y       z     vdW  Elec       q    Type
REMARK                         _______ _______ _______ _____ _____    ______ ____
ROOT
ATOM      1  N   UNL     1       1.342   8.554  18.156  0.00  0.00    +0.000 N 
ATOM      2  C   UNL     1       1.256   9.928  18.363  0.00  0.00    +0.000 C 
ATOM      3  O   UNL     1       2.200  10.709  18.463  0.00  0.00    +0.000 OA
ATOM      4  H   UNL     1       0.460   8.047  18.053  0.00  0.00    +0.000 HD
ENDROOT
BRANCH   1   8
ATOM      5  C   UNL     1       5.829   7.059  16.849  0.00  0.00    +0.000 C 
ATOM      6  N   UNL     1       4.500   7.135  17.407  0.00  0.00    +0.000 N 
ATOM      7  C   UNL     1       3.581   8.114  17.210  0.00  0.00    +0.000 A 
ATOM      8  C   UNL     1       2.516   7.819  18.030  0.00  0.00    +0.000 A 
ATOM      9  C   UNL     1       2.913   6.626  18.728  0.00  0.00    +0.000 A 
ATOM     10  N   UNL     1       4.098   6.181  18.255  0.00  0.00    +0.000 NA
BRANCH   9  11
ATOM     11  C   UNL     1       2.162   5.899  19.776  0.00  0.00    +0.000 C 
ATOM     12  O   UNL     1       1.871   6.471  20.830  0.00  0.00    +0.000 OA
ATOM     13  N   UNL     1       1.803   4.554  19.555  0.00  0.00    +0.000 N 
ATOM     14  C   UNL     1       0.793   3.926  20.404  0.00  0.00    +0.000 C 
ATOM     15  C   UNL     1       1.286   2.601  20.983  0.00  0.00    +0.000 C 
ATOM     16  C   UNL     1       1.821   1.675  19.892  0.00  0.00    +0.000 C 
ATOM     17  C   UNL     1       2.875   2.391  19.058  0.00  0.00    +0.000 C 
ATOM     18  C   UNL     1       2.338   3.702  18.489  0.00  0.00    +0.000 C 
ENDBRANCH   9  11
ENDBRANCH   1   8
BRANCH   2  19
ATOM     19  C   UNL     1      -0.158  10.447  18.456  0.00  0.00    +0.000 A 
ATOM     20  N   UNL     1      -0.984   9.985  17.467  0.00  0.00    +0.000 NA
ATOM     21  C   UNL     1      -2.271  10.411  17.454  0.00  0.00    +0.000 A 
ATOM     22  C   UNL     1      -2.750  11.277  18.427  0.00  0.00    +0.000 A 
ATOM     23  C   UNL     1      -1.901  11.726  19.431  0.00  0.00    +0.000 A 
ATOM     24  C   UNL     1      -0.564  11.322  19.479  0.00  0.00    +0.000 A 
BRANCH  21  25
ATOM     25  C   UNL     1      -3.184   9.905  16.364  0.00  0.00    +0.000 C 
ATOM     26  C   UNL     1      -3.673  10.845  15.285  0.00  0.00    +0.000 C 
ATOM     27  C   UNL     1      -2.659   9.790  14.951  0.00  0.00    +0.000 C 
ENDBRANCH  21  25
BRANCH  24  28
ATOM     28  N   UNL     1       0.255  11.743  20.547  0.00  0.00    +0.000 N 
ATOM     29  H   UNL     1       1.150  11.249  20.613  0.00  0.00    +0.000 HD
BRANCH  28  30
ATOM     30  C   UNL     1      -0.065  12.589  21.617  0.00  0.00    +0.000 A 
ATOM     31  C   UNL     1      -0.942  12.254  22.639  0.00  0.00    +0.000 A 
ATOM     32  N   UNL     1      -1.370  13.097  23.607  0.00  0.00    +0.000 NA
ATOM     33  C   UNL     1      -0.881  14.341  23.540  0.00  0.00    +0.000 A 
ATOM     34  N   UNL     1      -0.009  14.794  22.625  0.00  0.00    +0.000 NA
ATOM     35  C   UNL     1       0.377  13.897  21.686  0.00  0.00    +0.000 A 
ENDBRANCH  28  30
ENDBRANCH  24  28
ENDBRANCH   2  19
TORSDOF 6
ENDMDL
