MODEL 1
REMARK VINA RESULT:      -7.4      0.000      0.000
REMARK  Name = 
REMARK  5 active torsions:
REMARK  status: ('A' for Active; 'I' for Inactive)
REMARK    1  A    between atoms: N_11  and  C_12
REMARK    2  A    between atoms: C_12  and  C_13
REMARK    3  A    between atoms: C_13  and  N_14
REMARK    4  A    between atoms: N_17  and  C_18
REMARK    5  A    between atoms: C_18  and  C_19
REMARK                            x       y       z     vdW  Elec       q    Type
REMARK                         _______ _______ _______ _____ _____    ______ ____
ROOT
ATOM      1  N   UNL     1      -0.176  11.257  22.362  0.00  0.00    +0.000 NA
ATOM      2  C   UNL     1      -0.113   9.972  23.084  0.00  0.00    +0.000 C 
ATOM      3  C   UNL     1      -0.568   8.726  22.295  0.00  0.00    +0.000 C 
ATOM      4  N   UNL     1       0.069   8.568  20.973  0.00  0.00    +0.000 NA
ATOM      5  C   UNL     1      -0.123   9.837  20.236  0.00  0.00    +0.000 C 
ATOM      6  C   UNL     1       0.379  11.095  20.996  0.00  0.00    +0.000 C 
ENDROOT
BRANCH   1   7
ATOM      7  C   UNL     1      -1.528  11.851  22.289  0.00  0.00    +0.000 C 
BRANCH   7   8
ATOM      8  C   UNL     1      -1.883  12.673  21.027  0.00  0.00    +0.000 C 
BRANCH   8  19
ATOM      9  O   UNL     1      -4.428  14.366  20.867  0.00  0.00    +0.000 OA
ATOM     10  S   UNL     1      -4.580  12.929  20.981  0.00  0.00    +0.000 S 
ATOM     11  O   UNL     1      -4.947  12.307  22.234  0.00  0.00    +0.000 OA
ATOM     12  C   UNL     1      -5.635  12.355  19.647  0.00  0.00    +0.000 C 
ATOM     13  C   UNL     1      -4.634  11.966  18.597  0.00  0.00    +0.000 A 
ATOM     14  C   UNL     1      -4.981  11.601  17.297  0.00  0.00    +0.000 A 
ATOM     15  C   UNL     1      -3.973  11.227  16.407  0.00  0.00    +0.000 A 
ATOM     16  C   UNL     1      -2.639  11.218  16.820  0.00  0.00    +0.000 A 
ATOM     17  C   UNL     1      -2.297  11.578  18.129  0.00  0.00    +0.000 A 
ATOM     18  C   UNL     1      -3.295  11.969  19.010  0.00  0.00    +0.000 A 
ATOM     19  N   UNL     1      -3.139  12.197  20.415  0.00  0.00    +0.000 N 
ENDBRANCH   8  19
ENDBRANCH   7   8
ENDBRANCH   1   7
BRANCH   4  20
ATOM     20  C   UNL     1       1.509   8.243  21.054  0.00  0.00    +0.000 C 
BRANCH  20  21
ATOM     21  C   UNL     1       1.928   7.089  20.169  0.00  0.00    +0.000 A 
ATOM     22  C   UNL     1       2.484   7.323  18.902  0.00  0.00    +0.000 A 
ATOM     23  C   UNL     1       2.769   6.253  18.053  0.00  0.00    +0.000 A 
ATOM     24  C   UNL     1       2.511   4.949  18.468  0.00  0.00    +0.000 A 
ATOM     25 CL   UNL     1       2.794   3.636  17.394  0.00  0.00    +0.000 Cl
ATOM     26  C   UNL     1       2.002   4.699  19.742  0.00  0.00    +0.000 A 
ATOM     27  C   UNL     1       1.715   5.768  20.591  0.00  0.00    +0.000 A 
ENDBRANCH  20  21
ENDBRANCH   4  20
TORSDOF 5
ENDMDL
MODEL 2
REMARK VINA RESULT:      -7.2      5.360      9.177
REMARK  Name = 
REMARK  5 active torsions:
REMARK  status: ('A' for Active; 'I' for Inactive)
REMARK    1  A    between atoms: N_11  and  C_12
REMARK    2  A    between atoms: C_12  and  C_13
REMARK    3  A    between atoms: C_13  and  N_14
REMARK    4  A    between atoms: N_17  and  C_18
REMARK    5  A    between atoms: C_18  and  C_19
REMARK                            x       y       z     vdW  Elec       q    Type
REMARK                         _______ _______ _______ _____ _____    ______ ____
ROOT
ATOM      1  N   UNL     1       1.857   9.414  19.079  0.00  0.00    +0.000 NA
ATOM      2  C   UNL     1       1.138  10.434  18.292  0.00  0.00    +0.000 C 
ATOM      3  C   UNL     1      -0.402  10.413  18.397  0.00  0.00    +0.000 C 
ATOM      4  N   UNL     1      -0.925  10.411  19.779  0.00  0.00    +0.000 NA
ATOM      5  C   UNL     1      -0.267   9.296  20.498  0.00  0.00    +0.000 C 
ATOM      6  C   UNL     1       1.285   9.334  20.444  0.00  0.00    +0.000 C 
ENDROOT
BRANCH   1   7
ATOM      7  C   UNL     1       1.877   8.070  18.462  0.00  0.00    +0.000 C 
BRANCH   7   8
ATOM      8  C   UNL     1       2.690   6.965  19.177  0.00  0.00    +0.000 C 
BRANCH   8  19
ATOM      9  O   UNL     1       5.440   5.714  18.691  0.00  0.00    +0.000 OA
ATOM     10  S   UNL     1       4.475   5.660  17.611  0.00  0.00    +0.000 S 
ATOM     11  O   UNL     1       4.563   6.552  16.477  0.00  0.00    +0.000 OA
ATOM     12  C   UNL     1       4.305   3.955  17.075  0.00  0.00    +0.000 C 
ATOM     13  C   UNL     1       3.130   3.486  17.884  0.00  0.00    +0.000 A 
ATOM     14  C   UNL     1       2.706   2.158  17.931  0.00  0.00    +0.000 A 
ATOM     15  C   UNL     1       1.582   1.832  18.692  0.00  0.00    +0.000 A 
ATOM     16  C   UNL     1       0.895   2.827  19.390  0.00  0.00    +0.000 A 
ATOM     17  C   UNL     1       1.320   4.160  19.333  0.00  0.00    +0.000 A 
ATOM     18  C   UNL     1       2.449   4.483  18.594  0.00  0.00    +0.000 A 
ATOM     19  N   UNL     1       2.910   5.804  18.293  0.00  0.00    +0.000 N 
ENDBRANCH   8  19
ENDBRANCH   7   8
ENDBRANCH   1   7
BRANCH   4  20
ATOM     20  C   UNL     1      -0.689  11.683  20.494  0.00  0.00    +0.000 C 
BRANCH  20  21
ATOM     21  C   UNL     1      -1.845  12.117  21.369  0.00  0.00    +0.000 A 
ATOM     22  C   UNL     1      -1.814  11.904  22.755  0.00  0.00    +0.000 A 
ATOM     23  C   UNL     1      -2.928  12.212  23.537  0.00  0.00    +0.000 A 
ATOM     24  C   UNL     1      -4.069  12.744  22.942  0.00  0.00    +0.000 A 
ATOM     25 CL   UNL     1      -5.467  13.056  23.894  0.00  0.00    +0.000 Cl
ATOM     26  C   UNL     1      -4.097  13.004  21.572  0.00  0.00    +0.000 A 
ATOM     27  C   UNL     1      -2.985  12.694  20.789  0.00  0.00    +0.000 A 
ENDBRANCH  20  21
ENDBRANCH   4  20
TORSDOF 5
ENDMDL
MODEL 3
REMARK VINA RESULT:      -7.2      3.855      5.504
REMARK  Name = 
REMARK  5 active torsions:
REMARK  status: ('A' for Active; 'I' for Inactive)
REMARK    1  A    between atoms: N_11  and  C_12
REMARK    2  A    between atoms: C_12  and  C_13
REMARK    3  A    between atoms: C_13  and  N_14
REMARK    4  A    between atoms: N_17  and  C_18
REMARK    5  A    between atoms: C_18  and  C_19
REMARK                            x       y       z     vdW  Elec       q    Type
REMARK                         _______ _______ _______ _____ _____    ______ ____
ROOT
ATOM      1  N   UNL     1       2.162   6.815  18.459  0.00  0.00    +0.000 NA
ATOM      2  C   UNL     1       3.245   6.972  17.470  0.00  0.00    +0.000 C 
ATOM      3  C   UNL     1       4.679   6.738  17.990  0.00  0.00    +0.000 C 
ATOM      4  N   UNL     1       4.870   5.467  18.718  0.00  0.00    +0.000 NA
ATOM      5  C   UNL     1       3.840   5.407  19.779  0.00  0.00    +0.000 C 
ATOM      6  C   UNL     1       2.386   5.589  19.262  0.00  0.00    +0.000 C 
ENDROOT
BRANCH   1   7
ATOM      7  C   UNL     1       1.980   7.977  19.355  0.00  0.00    +0.000 C 
BRANCH   7   8
ATOM      8  C   UNL     1       1.645   9.340  18.703  0.00  0.00    +0.000 C 
BRANCH   8  19
ATOM      9  O   UNL     1       1.661  12.146  19.926  0.00  0.00    +0.000 OA
ATOM     10  S   UNL     1       0.777  11.160  20.513  0.00  0.00    +0.000 S 
ATOM     11  O   UNL     1       1.105  10.501  21.758  0.00  0.00    +0.000 OA
ATOM     12  C   UNL     1      -0.886  11.833  20.563  0.00  0.00    +0.000 C 
ATOM     13  C   UNL     1      -1.477  11.311  19.285  0.00  0.00    +0.000 A 
ATOM     14  C   UNL     1      -2.723  11.699  18.795  0.00  0.00    +0.000 A 
ATOM     15  C   UNL     1      -3.193  11.129  17.611  0.00  0.00    +0.000 A 
ATOM     16  C   UNL     1      -2.423  10.182  16.934  0.00  0.00    +0.000 A 
ATOM     17  C   UNL     1      -1.176   9.789  17.435  0.00  0.00    +0.000 A 
ATOM     18  C   UNL     1      -0.698  10.369  18.601  0.00  0.00    +0.000 A 
ATOM     19  N   UNL     1       0.463   9.959  19.333  0.00  0.00    +0.000 N 
ENDBRANCH   8  19
ENDBRANCH   7   8
ENDBRANCH   1   7
BRANCH   4  20
ATOM     20  C   UNL     1       4.772   4.276  17.848  0.00  0.00    +0.000 C 
BRANCH  20  21
ATOM     21  C   UNL     1       5.562   4.389  16.562  0.00  0.00    +0.000 A 
ATOM     22  C   UNL     1       6.911   4.773  16.581  0.00  0.00    +0.000 A 
ATOM     23  C   UNL     1       7.600   4.976  15.385  0.00  0.00    +0.000 A 
ATOM     24  C   UNL     1       6.949   4.784  14.168  0.00  0.00    +0.000 A 
ATOM     25 CL   UNL     1       7.777   5.105  12.695  0.00  0.00    +0.000 Cl
ATOM     26  C   UNL     1       5.623   4.358  14.134  0.00  0.00    +0.000 A 
ATOM     27  C   UNL     1       4.932   4.157  15.330  0.00  0.00    +0.000 A 
ENDBRANCH  20  21
ENDBRANCH   4  20
TORSDOF 5
ENDMDL
MODEL 4
REMARK VINA RESULT:      -7.0      5.244      9.169
REMARK  Name = 
REMARK  5 active torsions:
REMARK  status: ('A' for Active; 'I' for Inactive)
REMARK    1  A    between atoms: N_11  and  C_12
REMARK    2  A    between atoms: C_12  and  C_13
REMARK    3  A    between atoms: C_13  and  N_14
REMARK    4  A    between atoms: N_17  and  C_18
REMARK    5  A    between atoms: C_18  and  C_19
REMARK                            x       y       z     vdW  Elec       q    Type
REMARK                         _______ _______ _______ _____ _____    ______ ____
ROOT
ATOM      1  N   UNL     1       1.962   8.577  20.354  0.00  0.00    +0.000 NA
ATOM      2  C   UNL     1       1.406   9.572  19.416  0.00  0.00    +0.000 C 
ATOM      3  C   UNL     1      -0.132   9.705  19.399  0.00  0.00    +0.000 C 
ATOM      4  N   UNL     1      -0.748   9.896  20.728  0.00  0.00    +0.000 NA
ATOM      5  C   UNL     1      -0.258   8.806  21.602  0.00  0.00    +0.000 C 
ATOM      6  C   UNL     1       1.290   8.694  21.670  0.00  0.00    +0.000 C 
ENDROOT
BRANCH   1   7
ATOM      7  C   UNL     1       1.890   7.180  19.874  0.00  0.00    +0.000 C 
BRANCH   7   8
ATOM      8  C   UNL     1       2.243   6.912  18.391  0.00  0.00    +0.000 C 
BRANCH   8  19
ATOM      9  O   UNL     1       1.078   4.288  17.329  0.00  0.00    +0.000 OA
ATOM     10  S   UNL     1       2.150   4.205  18.300  0.00  0.00    +0.000 S 
ATOM     11  O   UNL     1       1.887   3.883  19.685  0.00  0.00    +0.000 OA
ATOM     12  C   UNL     1       3.451   3.163  17.635  0.00  0.00    +0.000 C 
ATOM     13  C   UNL     1       4.370   4.169  17.004  0.00  0.00    +0.000 A 
ATOM     14  C   UNL     1       5.464   3.825  16.211  0.00  0.00    +0.000 A 
ATOM     15  C   UNL     1       6.273   4.839  15.696  0.00  0.00    +0.000 A 
ATOM     16  C   UNL     1       5.987   6.177  15.978  0.00  0.00    +0.000 A 
ATOM     17  C   UNL     1       4.892   6.516  16.781  0.00  0.00    +0.000 A 
ATOM     18  C   UNL     1       4.074   5.511  17.278  0.00  0.00    +0.000 A 
ATOM     19  N   UNL     1       3.031   5.673  18.245  0.00  0.00    +0.000 N 
ENDBRANCH   8  19
ENDBRANCH   7   8
ENDBRANCH   1   7
BRANCH   4  20
ATOM     20  C   UNL     1      -0.436  11.208  21.332  0.00  0.00    +0.000 C 
BRANCH  20  21
ATOM     21  C   UNL     1      -1.648  11.939  21.868  0.00  0.00    +0.000 A 
ATOM     22  C   UNL     1      -2.076  11.746  23.190  0.00  0.00    +0.000 A 
ATOM     23  C   UNL     1      -3.253  12.342  23.641  0.00  0.00    +0.000 A 
ATOM     24  C   UNL     1      -4.000  13.142  22.780  0.00  0.00    +0.000 A 
ATOM     25 CL   UNL     1      -5.489  13.818  23.314  0.00  0.00    +0.000 Cl
ATOM     26  C   UNL     1      -3.564  13.382  21.478  0.00  0.00    +0.000 A 
ATOM     27  C   UNL     1      -2.387  12.783  21.026  0.00  0.00    +0.000 A 
ENDBRANCH  20  21
ENDBRANCH   4  20
TORSDOF 5
ENDMDL
MODEL 5
REMARK VINA RESULT:      -7.0      3.251      4.814
REMARK  Name = 
REMARK  5 active torsions:
REMARK  status: ('A' for Active; 'I' for Inactive)
REMARK    1  A    between atoms: N_11  and  C_12
REMARK    2  A    between atoms: C_12  and  C_13
REMARK    3  A    between atoms: C_13  and  N_14
REMARK    4  A    between atoms: N_17  and  C_18
REMARK    5  A    between atoms: C_18  and  C_19
REMARK                            x       y       z     vdW  Elec       q    Type
REMARK                         _______ _______ _______ _____ _____    ______ ____
ROOT
ATOM      1  N   UNL     1       2.205   6.560  20.666  0.00  0.00    +0.000 NA
ATOM      2  C   UNL     1       1.870   5.131  20.807  0.00  0.00    +0.000 C 
ATOM      3  C   UNL     1       1.476   4.393  19.509  0.00  0.00    +0.000 C 
ATOM      4  N   UNL     1       2.431   4.559  18.394  0.00  0.00    +0.000 NA
ATOM      5  C   UNL     1       2.644   6.011  18.207  0.00  0.00    +0.000 C 
ATOM      6  C   UNL     1       3.092   6.758  19.494  0.00  0.00    +0.000 C 
ENDROOT
BRANCH   1   7
ATOM      7  C   UNL     1       1.031   7.455  20.566  0.00  0.00    +0.000 C 
BRANCH   7   8
ATOM      8  C   UNL     1       1.285   8.929  20.167  0.00  0.00    +0.000 C 
BRANCH   8  19
ATOM      9  O   UNL     1       1.421  11.754  21.336  0.00  0.00    +0.000 OA
ATOM     10  S   UNL     1       0.249  10.956  21.636  0.00  0.00    +0.000 S 
ATOM     11  O   UNL     1       0.081  10.319  22.923  0.00  0.00    +0.000 OA
ATOM     12  C   UNL     1      -1.216  11.893  21.189  0.00  0.00    +0.000 C 
ATOM     13  C   UNL     1      -1.487  11.408  19.794  0.00  0.00    +0.000 A 
ATOM     14  C   UNL     1      -2.450  11.968  18.955  0.00  0.00    +0.000 A 
ATOM     15  C   UNL     1      -2.644  11.421  17.686  0.00  0.00    +0.000 A 
ATOM     16  C   UNL     1      -1.883  10.327  17.269  0.00  0.00    +0.000 A 
ATOM     17  C   UNL     1      -0.923   9.763  18.118  0.00  0.00    +0.000 A 
ATOM     18  C   UNL     1      -0.714  10.318  19.373  0.00  0.00    +0.000 A 
ATOM     19  N   UNL     1       0.094   9.763  20.417  0.00  0.00    +0.000 N 
ENDBRANCH   8  19
ENDBRANCH   7   8
ENDBRANCH   1   7
BRANCH   4  20
ATOM     20  C   UNL     1       3.724   3.883  18.628  0.00  0.00    +0.000 C 
BRANCH  20  21
ATOM     21  C   UNL     1       4.746   4.120  17.536  0.00  0.00    +0.000 A 
ATOM     22  C   UNL     1       5.985   4.708  17.829  0.00  0.00    +0.000 A 
ATOM     23  C   UNL     1       6.875   5.018  16.801  0.00  0.00    +0.000 A 
ATOM     24  C   UNL     1       6.538   4.731  15.480  0.00  0.00    +0.000 A 
ATOM     25 CL   UNL     1       7.604   5.178  14.207  0.00  0.00    +0.000 Cl
ATOM     26  C   UNL     1       5.330   4.104  15.178  0.00  0.00    +0.000 A 
ATOM     27  C   UNL     1       4.438   3.796  16.206  0.00  0.00    +0.000 A 
ENDBRANCH  20  21
ENDBRANCH   4  20
TORSDOF 5
ENDMDL
MODEL 6
REMARK VINA RESULT:      -6.8      5.494      9.237
REMARK  Name = 
REMARK  5 active torsions:
REMARK  status: ('A' for Active; 'I' for Inactive)
REMARK    1  A    between atoms: N_11  and  C_12
REMARK    2  A    between atoms: C_12  and  C_13
REMARK    3  A    between atoms: C_13  and  N_14
REMARK    4  A    between atoms: N_17  and  C_18
REMARK    5  A    between atoms: C_18  and  C_19
REMARK                            x       y       z     vdW  Elec       q    Type
REMARK                         _______ _______ _______ _____ _____    ______ ____
ROOT
ATOM      1  N   UNL     1       1.589   9.036  20.571  0.00  0.00    +0.000 NA
ATOM      2  C   UNL     1       0.838  10.088  19.860  0.00  0.00    +0.000 C 
ATOM      3  C   UNL     1      -0.646  10.247  20.250  0.00  0.00    +0.000 C 
ATOM      4  N   UNL     1      -0.891  10.376  21.701  0.00  0.00    +0.000 NA
ATOM      5  C   UNL     1      -0.223   9.233  22.365  0.00  0.00    +0.000 C 
ATOM      6  C   UNL     1       1.286   9.093  22.021  0.00  0.00    +0.000 C 
ENDROOT
BRANCH   1   7
ATOM      7  C   UNL     1       1.354   7.668  20.060  0.00  0.00    +0.000 C 
BRANCH   7   8
ATOM      8  C   UNL     1       2.475   6.622  20.272  0.00  0.00    +0.000 C 
BRANCH   8  19
ATOM      9  O   UNL     1       5.165   5.609  19.221  0.00  0.00    +0.000 OA
ATOM     10  S   UNL     1       4.099   5.811  18.261  0.00  0.00    +0.000 S 
ATOM     11  O   UNL     1       4.077   6.968  17.393  0.00  0.00    +0.000 OA
ATOM     12  C   UNL     1       3.877   4.299  17.319  0.00  0.00    +0.000 C 
ATOM     13  C   UNL     1       2.786   3.607  18.084  0.00  0.00    +0.000 A 
ATOM     14  C   UNL     1       2.369   2.303  17.824  0.00  0.00    +0.000 A 
ATOM     15  C   UNL     1       1.324   1.764  18.576  0.00  0.00    +0.000 A 
ATOM     16  C   UNL     1       0.708   2.526  19.570  0.00  0.00    +0.000 A 
ATOM     17  C   UNL     1       1.125   3.839  19.821  0.00  0.00    +0.000 A 
ATOM     18  C   UNL     1       2.177   4.370  19.089  0.00  0.00    +0.000 A 
ATOM     19  N   UNL     1       2.607   5.736  19.100  0.00  0.00    +0.000 N 
ENDBRANCH   8  19
ENDBRANCH   7   8
ENDBRANCH   1   7
BRANCH   4  20
ATOM     20  C   UNL     1      -0.395  11.649  22.266  0.00  0.00    +0.000 C 
BRANCH  20  21
ATOM     21  C   UNL     1      -1.481  12.523  22.854  0.00  0.00    +0.000 A 
ATOM     22  C   UNL     1      -2.705  11.970  23.260  0.00  0.00    +0.000 A 
ATOM     23  C   UNL     1      -3.737  12.798  23.702  0.00  0.00    +0.000 A 
ATOM     24  C   UNL     1      -3.547  14.177  23.753  0.00  0.00    +0.000 A 
ATOM     25 CL   UNL     1      -4.843  15.203  24.228  0.00  0.00    +0.000 Cl
ATOM     26  C   UNL     1      -2.321  14.736  23.397  0.00  0.00    +0.000 A 
ATOM     27  C   UNL     1      -1.290  13.909  22.952  0.00  0.00    +0.000 A 
ENDBRANCH  20  21
ENDBRANCH   4  20
TORSDOF 5
ENDMDL
MODEL 7
REMARK VINA RESULT:      -6.8      2.817      3.779
REMARK  Name = 
REMARK  5 active torsions:
REMARK  status: ('A' for Active; 'I' for Inactive)
REMARK    1  A    between atoms: N_11  and  C_12
REMARK    2  A    between atoms: C_12  and  C_13
REMARK    3  A    between atoms: C_13  and  N_14
REMARK    4  A    between atoms: N_17  and  C_18
REMARK    5  A    between atoms: C_18  and  C_19
REMARK                            x       y       z     vdW  Elec       q    Type
REMARK                         _______ _______ _______ _____ _____    ______ ____
ROOT
ATOM      1  N   UNL     1      -0.159  10.981  22.864  0.00  0.00    +0.000 NA
ATOM      2  C   UNL     1      -0.058   9.570  23.280  0.00  0.00    +0.000 C 
ATOM      3  C   UNL     1      -0.503   8.521  22.239  0.00  0.00    +0.000 C 
ATOM      4  N   UNL     1       0.112   8.677  20.906  0.00  0.00    +0.000 NA
ATOM      5  C   UNL     1      -0.119  10.073  20.474  0.00  0.00    +0.000 C 
ATOM      6  C   UNL     1       0.373  11.142  21.489  0.00  0.00    +0.000 C 
ENDROOT
BRANCH   1   7
ATOM      7  C   UNL     1      -1.524  11.545  22.945  0.00  0.00    +0.000 C 
BRANCH   7   8
ATOM      8  C   UNL     1      -1.737  12.985  22.418  0.00  0.00    +0.000 C 
BRANCH   8  19
ATOM      9  O   UNL     1      -1.540  16.027  22.685  0.00  0.00    +0.000 OA
ATOM     10  S   UNL     1      -1.916  15.270  23.862  0.00  0.00    +0.000 S 
ATOM     11  O   UNL     1      -0.971  15.010  24.924  0.00  0.00    +0.000 OA
ATOM     12  C   UNL     1      -3.446  15.945  24.516  0.00  0.00    +0.000 C 
ATOM     13  C   UNL     1      -4.480  15.070  23.866  0.00  0.00    +0.000 A 
ATOM     14  C   UNL     1      -5.851  15.307  23.945  0.00  0.00    +0.000 A 
ATOM     15  C   UNL     1      -6.730  14.414  23.330  0.00  0.00    +0.000 A 
ATOM     16  C   UNL     1      -6.236  13.300  22.649  0.00  0.00    +0.000 A 
ATOM     17  C   UNL     1      -4.858  13.062  22.580  0.00  0.00    +0.000 A 
ATOM     18  C   UNL     1      -3.981  13.959  23.174  0.00  0.00    +0.000 A 
ATOM     19  N   UNL     1      -2.572  13.775  23.343  0.00  0.00    +0.000 N 
ENDBRANCH   8  19
ENDBRANCH   7   8
ENDBRANCH   1   7
BRANCH   4  20
ATOM     20  C   UNL     1       1.559   8.375  20.893  0.00  0.00    +0.000 C 
BRANCH  20  21
ATOM     21  C   UNL     1       1.925   7.161  20.067  0.00  0.00    +0.000 A 
ATOM     22  C   UNL     1       2.470   7.304  18.783  0.00  0.00    +0.000 A 
ATOM     23  C   UNL     1       2.705   6.181  17.990  0.00  0.00    +0.000 A 
ATOM     24  C   UNL     1       2.409   4.911  18.481  0.00  0.00    +0.000 A 
ATOM     25 CL   UNL     1       2.630   3.532  17.477  0.00  0.00    +0.000 Cl
ATOM     26  C   UNL     1       1.910   4.749  19.772  0.00  0.00    +0.000 A 
ATOM     27  C   UNL     1       1.673   5.873  20.565  0.00  0.00    +0.000 A 
ENDBRANCH  20  21
ENDBRANCH   4  20
TORSDOF 5
ENDMDL
MODEL 8
REMARK VINA RESULT:      -6.7      5.355      9.189
REMARK  Name = 
REMARK  5 active torsions:
REMARK  status: ('A' for Active; 'I' for Inactive)
REMARK    1  A    between atoms: N_11  and  C_12
REMARK    2  A    between atoms: C_12  and  C_13
REMARK    3  A    between atoms: C_13  and  N_14
REMARK    4  A    between atoms: N_17  and  C_18
REMARK    5  A    between atoms: C_18  and  C_19
REMARK                            x       y       z     vdW  Elec       q    Type
REMARK                         _______ _______ _______ _____ _____    ______ ____
ROOT
ATOM      1  N   UNL     1       0.790   8.769  19.631  0.00  0.00    +0.000 NA
ATOM      2  C   UNL     1       0.733   8.478  21.076  0.00  0.00    +0.000 C 
ATOM      3  C   UNL     1       1.114   9.639  22.019  0.00  0.00    +0.000 C 
ATOM      4  N   UNL     1       0.405  10.907  21.753  0.00  0.00    +0.000 NA
ATOM      5  C   UNL     1       0.591  11.224  20.319  0.00  0.00    +0.000 C 
ATOM      6  C   UNL     1       0.161  10.083  19.356  0.00  0.00    +0.000 C 
ENDROOT
BRANCH   1   7
ATOM      7  C   UNL     1       2.151   8.731  19.054  0.00  0.00    +0.000 C 
BRANCH   7   8
ATOM      8  C   UNL     1       2.449   7.648  17.991  0.00  0.00    +0.000 C 
BRANCH   8  19
ATOM      9  O   UNL     1       1.669   4.693  17.824  0.00  0.00    +0.000 OA
ATOM     10  S   UNL     1       2.433   5.124  18.977  0.00  0.00    +0.000 S 
ATOM     11  O   UNL     1       1.806   5.326  20.264  0.00  0.00    +0.000 OA
ATOM     12  C   UNL     1       3.886   4.081  19.129  0.00  0.00    +0.000 C 
ATOM     13  C   UNL     1       4.925   4.876  18.391  0.00  0.00    +0.000 A 
ATOM     14  C   UNL     1       6.201   4.397  18.099  0.00  0.00    +0.000 A 
ATOM     15  C   UNL     1       7.102   5.230  17.434  0.00  0.00    +0.000 A 
ATOM     16  C   UNL     1       6.725   6.525  17.074  0.00  0.00    +0.000 A 
ATOM     17  C   UNL     1       5.446   7.005  17.378  0.00  0.00    +0.000 A 
ATOM     18  C   UNL     1       4.541   6.172  18.021  0.00  0.00    +0.000 A 
ATOM     19  N   UNL     1       3.270   6.558  18.553  0.00  0.00    +0.000 N 
ENDBRANCH   8  19
ENDBRANCH   7   8
ENDBRANCH   1   7
BRANCH   4  20
ATOM     20  C   UNL     1      -1.036  10.848  22.075  0.00  0.00    +0.000 C 
BRANCH  20  21
ATOM     21  C   UNL     1      -1.562  12.091  22.760  0.00  0.00    +0.000 A 
ATOM     22  C   UNL     1      -0.792  13.263  22.809  0.00  0.00    +0.000 A 
ATOM     23  C   UNL     1      -1.240  14.368  23.533  0.00  0.00    +0.000 A 
ATOM     24  C   UNL     1      -2.464  14.313  24.197  0.00  0.00    +0.000 A 
ATOM     25 CL   UNL     1      -2.983  15.649  25.148  0.00  0.00    +0.000 Cl
ATOM     26  C   UNL     1      -3.261  13.172  24.118  0.00  0.00    +0.000 A 
ATOM     27  C   UNL     1      -2.812  12.066  23.397  0.00  0.00    +0.000 A 
ENDBRANCH  20  21
ENDBRANCH   4  20
TORSDOF 5
ENDMDL
MODEL 9
REMARK VINA RESULT:      -6.7      5.537      9.102
REMARK  Name = 
REMARK  5 active torsions:
REMARK  status: ('A' for Active; 'I' for Inactive)
REMARK    1  A    between atoms: N_11  and  C_12
REMARK    2  A    between atoms: C_12  and  C_13
REMARK    3  A    between atoms: C_13  and  N_14
REMARK    4  A    between atoms: N_17  and  C_18
REMARK    5  A    between atoms: C_18  and  C_19
REMARK                            x       y       z     vdW  Elec       q    Type
REMARK                         _______ _______ _______ _____ _____    ______ ____
ROOT
ATOM      1  N   UNL     1       0.840   8.793  19.076  0.00  0.00    +0.000 NA
ATOM      2  C   UNL     1       0.489   9.036  20.488  0.00  0.00    +0.000 C 
ATOM      3  C   UNL     1       1.028  10.342  21.108  0.00  0.00    +0.000 C 
ATOM      4  N   UNL     1       0.744  11.560  20.322  0.00  0.00    +0.000 NA
ATOM      5  C   UNL     1       1.223  11.318  18.943  0.00  0.00    +0.000 C 
ATOM      6  C   UNL     1       0.646  10.033  18.287  0.00  0.00    +0.000 C 
ENDROOT
BRANCH   1   7
ATOM      7  C   UNL     1       2.210   8.273  18.868  0.00  0.00    +0.000 C 
BRANCH   7   8
ATOM      8  C   UNL     1       2.588   6.949  19.573  0.00  0.00    +0.000 C 
BRANCH   8  19
ATOM      9  O   UNL     1       5.313   5.687  18.985  0.00  0.00    +0.000 OA
ATOM     10  S   UNL     1       4.349   5.741  17.905  0.00  0.00    +0.000 S 
ATOM     11  O   UNL     1       4.457   6.721  16.847  0.00  0.00    +0.000 OA
ATOM     12  C   UNL     1       4.145   4.090  17.231  0.00  0.00    +0.000 C 
ATOM     13  C   UNL     1       2.960   3.579  17.998  0.00  0.00    +0.000 A 
ATOM     14  C   UNL     1       2.509   2.261  17.936  0.00  0.00    +0.000 A 
ATOM     15  C   UNL     1       1.377   1.897  18.667  0.00  0.00    +0.000 A 
ATOM     16  C   UNL     1       0.709   2.845  19.445  0.00  0.00    +0.000 A 
ATOM     17  C   UNL     1       1.161   4.169  19.497  0.00  0.00    +0.000 A 
ATOM     18  C   UNL     1       2.298   4.529  18.787  0.00  0.00    +0.000 A 
ATOM     19  N   UNL     1       2.786   5.861  18.596  0.00  0.00    +0.000 N 
ENDBRANCH   8  19
ENDBRANCH   7   8
ENDBRANCH   1   7
BRANCH   4  20
ATOM     20  C   UNL     1      -0.690  11.921  20.304  0.00  0.00    +0.000 C 
BRANCH  20  21
ATOM     21  C   UNL     1      -1.134  12.727  21.505  0.00  0.00    +0.000 A 
ATOM     22  C   UNL     1      -0.443  13.886  21.886  0.00  0.00    +0.000 A 
ATOM     23  C   UNL     1      -0.796  14.562  23.054  0.00  0.00    +0.000 A 
ATOM     24  C   UNL     1      -1.847  14.091  23.838  0.00  0.00    +0.000 A 
ATOM     25 CL   UNL     1      -2.235  14.882  25.315  0.00  0.00    +0.000 Cl
ATOM     26  C   UNL     1      -2.572  12.967  23.448  0.00  0.00    +0.000 A 
ATOM     27  C   UNL     1      -2.218  12.289  22.281  0.00  0.00    +0.000 A 
ENDBRANCH  20  21
ENDBRANCH   4  20
TORSDOF 5
ENDMDL
