MODEL 1
REMARK VINA RESULT:      -8.1      0.000      0.000
REMARK  Name = 
REMARK  9 active torsions:
REMARK  status: ('A' for Active; 'I' for Inactive)
REMARK    1  A    between atoms: C_1  and  C_2
REMARK    2  A    between atoms: C_2  and  C_3
REMARK    3  A    between atoms: C_7  and  C_8
REMARK    4  A    between atoms: C_8  and  C_9
REMARK    5  A    between atoms: C_10  and  N_11
REMARK    6  A    between atoms: C_12  and  S_13
REMARK    7  A    between atoms: S_13  and  C_14
REMARK    8  A    between atoms: C_14  and  C_15
REMARK    9  A    between atoms: C_29  and  C_30
REMARK                            x       y       z     vdW  Elec       q    Type
REMARK                         _______ _______ _______ _____ _____    ______ ____
ROOT
ATOM      1  N   UNL     1       0.425  12.071  19.302  0.00  0.00    +0.000 N 
ATOM      2  C   UNL     1       1.295  13.233  19.314  0.00  0.00    +0.000 A 
ATOM      3  N   UNL     1       0.687  14.165  18.586  0.00  0.00    +0.000 NA
ATOM      4  N   UNL     1      -0.494  13.718  18.075  0.00  0.00    +0.000 NA
ATOM      5  C   UNL     1      -0.717  12.478  18.492  0.00  0.00    +0.000 A 
ENDROOT
BRANCH   1  11
ATOM      6  C   UNL     1       1.258   9.717  19.460  0.00  0.00    +0.000 A 
ATOM      7  C   UNL     1       1.493   8.530  20.179  0.00  0.00    +0.000 A 
ATOM      8  C   UNL     1       1.079   8.400  21.490  0.00  0.00    +0.000 A 
ATOM      9  C   UNL     1       0.486   9.486  22.123  0.00  0.00    +0.000 A 
ATOM     10  C   UNL     1       0.191  10.696  21.432  0.00  0.00    +0.000 A 
ATOM     11  C   UNL     1       0.622  10.838  20.078  0.00  0.00    +0.000 A 
BRANCH   6  13
ATOM     12  C   UNL     1       2.200   8.320  17.778  0.00  0.00    +0.000 C 
ATOM     13  C   UNL     1       1.452   9.595  17.968  0.00  0.00    +0.000 C 
ENDBRANCH   6  13
BRANCH  10  14
ATOM     14  C   UNL     1      -0.651  11.678  22.248  0.00  0.00    +0.000 C 
ATOM     15  C   UNL     1      -1.526  11.020  23.268  0.00  0.00    +0.000 C 
ENDBRANCH  10  14
ENDBRANCH   1  11
BRANCH   5  16
ATOM     16  C   UNL     1      -2.005  11.744  18.137  0.00  0.00    +0.000 A 
ATOM     17  C   UNL     1      -2.277  11.199  16.859  0.00  0.00    +0.000 A 
ATOM     18  C   UNL     1      -3.607  10.932  16.449  0.00  0.00    +0.000 A 
ATOM     19  C   UNL     1      -4.648  11.181  17.334  0.00  0.00    +0.000 A 
ATOM     20  N   UNL     1      -4.447  11.660  18.580  0.00  0.00    +0.000 NA
ATOM     21  C   UNL     1      -3.147  11.924  18.950  0.00  0.00    +0.000 A 
ENDBRANCH   5  16
BRANCH   2  22
ATOM     22  S   UNL     1       2.742  13.687  20.301  0.00  0.00    +0.000 S 
BRANCH  22  23
ATOM     23  C   UNL     1       3.826  15.092  19.616  0.00  0.00    +0.000 C 
BRANCH  23  24
ATOM     24  C   UNL     1       5.431  14.969  19.925  0.00  0.00    +0.000 C 
ATOM     25  O   UNL     1       5.788  15.188  21.103  0.00  0.00    +0.000 OA
ATOM     26  N   UNL     1       6.469  14.825  18.934  0.00  0.00    +0.000 N 
ATOM     27  C   UNL     1       7.794  14.939  19.360  0.00  0.00    +0.000 C 
ATOM     28  C   UNL     1       8.578  15.523  18.063  0.00  0.00    +0.000 C 
ATOM     29  C   UNL     1       9.451  14.392  17.959  0.00  0.00    +0.000 A 
ATOM     30  C   UNL     1      10.767  15.086  18.116  0.00  0.00    +0.000 A 
ATOM     31  C   UNL     1      11.881  14.350  17.950  0.00  0.00    +0.000 A 
ATOM     32  C   UNL     1      11.493  13.049  17.902  0.00  0.00    +0.000 A 
ATOM     33  C   UNL     1       9.928  12.543  17.761  0.00  0.00    +0.000 A 
ATOM     34  C   UNL     1       8.629  13.153  17.702  0.00  0.00    +0.000 A 
ATOM     35  C   UNL     1       6.865  14.015  17.628  0.00  0.00    +0.000 C 
ENDBRANCH  23  24
ENDBRANCH  22  23
ENDBRANCH   2  22
TORSDOF 7
ENDMDL
MODEL 2
REMARK VINA RESULT:      -8.1      0.846      1.335
REMARK  Name = 
REMARK  9 active torsions:
REMARK  status: ('A' for Active; 'I' for Inactive)
REMARK    1  A    between atoms: C_1  and  C_2
REMARK    2  A    between atoms: C_2  and  C_3
REMARK    3  A    between atoms: C_7  and  C_8
REMARK    4  A    between atoms: C_8  and  C_9
REMARK    5  A    between atoms: C_10  and  N_11
REMARK    6  A    between atoms: C_12  and  S_13
REMARK    7  A    between atoms: S_13  and  C_14
REMARK    8  A    between atoms: C_14  and  C_15
REMARK    9  A    between atoms: C_29  and  C_30
REMARK                            x       y       z     vdW  Elec       q    Type
REMARK                         _______ _______ _______ _____ _____    ______ ____
ROOT
ATOM      1  N   UNL     1       0.439  12.080  19.372  0.00  0.00    +0.000 N 
ATOM      2  C   UNL     1       1.333  13.224  19.365  0.00  0.00    +0.000 A 
ATOM      3  N   UNL     1       0.741  14.158  18.625  0.00  0.00    +0.000 NA
ATOM      4  N   UNL     1      -0.450  13.728  18.124  0.00  0.00    +0.000 NA
ATOM      5  C   UNL     1      -0.697  12.498  18.559  0.00  0.00    +0.000 A 
ENDROOT
BRANCH   1  11
ATOM      6  C   UNL     1       1.184   9.698  19.548  0.00  0.00    +0.000 A 
ATOM      7  C   UNL     1       1.397   8.516  20.281  0.00  0.00    +0.000 A 
ATOM      8  C   UNL     1       1.023   8.426  21.608  0.00  0.00    +0.000 A 
ATOM      9  C   UNL     1       0.495   9.546  22.239  0.00  0.00    +0.000 A 
ATOM     10  C   UNL     1       0.224  10.754  21.535  0.00  0.00    +0.000 A 
ATOM     11  C   UNL     1       0.614  10.854  20.164  0.00  0.00    +0.000 A 
BRANCH   6  13
ATOM     12  C   UNL     1       2.218   8.363  17.868  0.00  0.00    +0.000 C 
ATOM     13  C   UNL     1       1.323   9.541  18.053  0.00  0.00    +0.000 C 
ENDBRANCH   6  13
BRANCH  10  14
ATOM     14  C   UNL     1      -0.551  11.784  22.359  0.00  0.00    +0.000 C 
ATOM     15  C   UNL     1      -1.652  11.192  23.182  0.00  0.00    +0.000 C 
ENDBRANCH  10  14
ENDBRANCH   1  11
BRANCH   5  16
ATOM     16  C   UNL     1      -2.000  11.785  18.218  0.00  0.00    +0.000 A 
ATOM     17  C   UNL     1      -2.275  11.203  16.957  0.00  0.00    +0.000 A 
ATOM     18  C   UNL     1      -3.608  10.956  16.545  0.00  0.00    +0.000 A 
ATOM     19  C   UNL     1      -4.650  11.262  17.411  0.00  0.00    +0.000 A 
ATOM     20  N   UNL     1      -4.447  11.778  18.641  0.00  0.00    +0.000 NA
ATOM     21  C   UNL     1      -3.143  12.022  19.014  0.00  0.00    +0.000 A 
ENDBRANCH   5  16
BRANCH   2  22
ATOM     22  S   UNL     1       2.791  13.663  20.341  0.00  0.00    +0.000 S 
BRANCH  22  23
ATOM     23  C   UNL     1       3.731  15.227  19.802  0.00  0.00    +0.000 C 
BRANCH  23  24
ATOM     24  C   UNL     1       4.901  15.002  18.677  0.00  0.00    +0.000 C 
ATOM     25  O   UNL     1       4.515  14.850  17.497  0.00  0.00    +0.000 OA
ATOM     26  N   UNL     1       6.298  14.774  18.951  0.00  0.00    +0.000 N 
ATOM     27  C   UNL     1       7.118  14.401  17.883  0.00  0.00    +0.000 C 
ATOM     28  C   UNL     1       8.277  13.495  18.571  0.00  0.00    +0.000 C 
ATOM     29  C   UNL     1       9.338  14.365  18.161  0.00  0.00    +0.000 A 
ATOM     30  C   UNL     1      10.137  13.403  17.340  0.00  0.00    +0.000 A 
ATOM     31  C   UNL     1      11.321  13.828  16.863  0.00  0.00    +0.000 A 
ATOM     32  C   UNL     1      11.377  15.168  17.078  0.00  0.00    +0.000 A 
ATOM     33  C   UNL     1      10.318  16.010  18.025  0.00  0.00    +0.000 A 
ATOM     34  C   UNL     1       9.136  15.723  18.788  0.00  0.00    +0.000 A 
ATOM     35  C   UNL     1       7.518  15.302  19.819  0.00  0.00    +0.000 C 
ENDBRANCH  23  24
ENDBRANCH  22  23
ENDBRANCH   2  22
TORSDOF 7
ENDMDL
MODEL 3
REMARK VINA RESULT:      -8.1      5.313      7.488
REMARK  Name = 
REMARK  9 active torsions:
REMARK  status: ('A' for Active; 'I' for Inactive)
REMARK    1  A    between atoms: C_1  and  C_2
REMARK    2  A    between atoms: C_2  and  C_3
REMARK    3  A    between atoms: C_7  and  C_8
REMARK    4  A    between atoms: C_8  and  C_9
REMARK    5  A    between atoms: C_10  and  N_11
REMARK    6  A    between atoms: C_12  and  S_13
REMARK    7  A    between atoms: S_13  and  C_14
REMARK    8  A    between atoms: C_14  and  C_15
REMARK    9  A    between atoms: C_29  and  C_30
REMARK                            x       y       z     vdW  Elec       q    Type
REMARK                         _______ _______ _______ _____ _____    ______ ____
ROOT
ATOM      1  N   UNL     1      -0.635  12.083  20.279  0.00  0.00    +0.000 N 
ATOM      2  C   UNL     1       0.148  10.939  20.710  0.00  0.00    +0.000 A 
ATOM      3  N   UNL     1       1.313  11.421  21.138  0.00  0.00    +0.000 NA
ATOM      4  N   UNL     1       1.379  12.775  21.008  0.00  0.00    +0.000 NA
ATOM      5  C   UNL     1       0.230  13.231  20.523  0.00  0.00    +0.000 A 
ENDROOT
BRANCH   1  11
ATOM      6  C   UNL     1      -3.049  12.572  20.714  0.00  0.00    +0.000 A 
ATOM      7  C   UNL     1      -4.402  12.589  20.324  0.00  0.00    +0.000 A 
ATOM      8  C   UNL     1      -4.796  12.067  19.108  0.00  0.00    +0.000 A 
ATOM      9  C   UNL     1      -3.830  11.584  18.234  0.00  0.00    +0.000 A 
ATOM     10  C   UNL     1      -2.455  11.508  18.594  0.00  0.00    +0.000 A 
ATOM     11  C   UNL     1      -2.040  12.052  19.848  0.00  0.00    +0.000 A 
BRANCH   6  13
ATOM     12  C   UNL     1      -3.821  13.898  22.536  0.00  0.00    +0.000 C 
ATOM     13  C   UNL     1      -2.817  12.856  22.179  0.00  0.00    +0.000 C 
ENDBRANCH   6  13
BRANCH  10  14
ATOM     14  C   UNL     1      -1.596  10.751  17.579  0.00  0.00    +0.000 C 
ATOM     15  C   UNL     1      -2.379   9.837  16.690  0.00  0.00    +0.000 C 
ENDBRANCH  10  14
ENDBRANCH   1  11
BRANCH   5  16
ATOM     16  C   UNL     1      -0.014  14.725  20.342  0.00  0.00    +0.000 A 
ATOM     17  C   UNL     1      -0.666  15.540  21.298  0.00  0.00    +0.000 A 
ATOM     18  C   UNL     1      -1.252  16.775  20.923  0.00  0.00    +0.000 A 
ATOM     19  C   UNL     1      -1.150  17.196  19.603  0.00  0.00    +0.000 A 
ATOM     20  N   UNL     1      -0.504  16.482  18.658  0.00  0.00    +0.000 NA
ATOM     21  C   UNL     1       0.046  15.280  19.044  0.00  0.00    +0.000 A 
ENDBRANCH   5  16
BRANCH   2  22
ATOM     22  S   UNL     1      -0.261   9.205  21.027  0.00  0.00    +0.000 S 
BRANCH  22  23
ATOM     23  C   UNL     1       1.203   7.996  21.133  0.00  0.00    +0.000 C 
BRANCH  23  24
ATOM     24  C   UNL     1       2.046   7.774  19.744  0.00  0.00    +0.000 C 
ATOM     25  O   UNL     1       1.921   8.661  18.872  0.00  0.00    +0.000 OA
ATOM     26  N   UNL     1       2.750   6.573  19.371  0.00  0.00    +0.000 N 
ATOM     27  C   UNL     1       3.242   6.485  18.067  0.00  0.00    +0.000 C 
ATOM     28  C   UNL     1       3.215   4.895  17.739  0.00  0.00    +0.000 C 
ATOM     29  C   UNL     1       4.629   4.815  17.524  0.00  0.00    +0.000 A 
ATOM     30  C   UNL     1       4.631   4.332  16.108  0.00  0.00    +0.000 A 
ATOM     31  C   UNL     1       5.818   4.010  15.564  0.00  0.00    +0.000 A 
ATOM     32  C   UNL     1       6.778   4.446  16.420  0.00  0.00    +0.000 A 
ATOM     33  C   UNL     1       6.491   4.976  17.958  0.00  0.00    +0.000 A 
ATOM     34  C   UNL     1       5.346   5.190  18.797  0.00  0.00    +0.000 A 
ATOM     35  C   UNL     1       3.761   5.479  19.920  0.00  0.00    +0.000 C 
ENDBRANCH  23  24
ENDBRANCH  22  23
ENDBRANCH   2  22
TORSDOF 7
ENDMDL
MODEL 4
REMARK VINA RESULT:      -7.9      5.111      7.201
REMARK  Name = 
REMARK  9 active torsions:
REMARK  status: ('A' for Active; 'I' for Inactive)
REMARK    1  A    between atoms: C_1  and  C_2
REMARK    2  A    between atoms: C_2  and  C_3
REMARK    3  A    between atoms: C_7  and  C_8
REMARK    4  A    between atoms: C_8  and  C_9
REMARK    5  A    between atoms: C_10  and  N_11
REMARK    6  A    between atoms: C_12  and  S_13
REMARK    7  A    between atoms: S_13  and  C_14
REMARK    8  A    between atoms: C_14  and  C_15
REMARK    9  A    between atoms: C_29  and  C_30
REMARK                            x       y       z     vdW  Elec       q    Type
REMARK                         _______ _______ _______ _____ _____    ______ ____
ROOT
ATOM      1  N   UNL     1      -0.421  11.547  21.818  0.00  0.00    +0.000 N 
ATOM      2  C   UNL     1       0.144  10.378  22.469  0.00  0.00    +0.000 A 
ATOM      3  N   UNL     1      -0.722  10.019  23.413  0.00  0.00    +0.000 NA
ATOM      4  N   UNL     1      -1.796  10.856  23.461  0.00  0.00    +0.000 NA
ATOM      5  C   UNL     1      -1.684  11.776  22.511  0.00  0.00    +0.000 A 
ENDROOT
BRANCH   1  11
ATOM      6  C   UNL     1       0.767  13.485  20.775  0.00  0.00    +0.000 A 
ATOM      7  C   UNL     1       1.328  14.145  19.665  0.00  0.00    +0.000 A 
ATOM      8  C   UNL     1       1.235  13.605  18.397  0.00  0.00    +0.000 A 
ATOM      9  C   UNL     1       0.640  12.360  18.233  0.00  0.00    +0.000 A 
ATOM     10  C   UNL     1       0.024  11.668  19.315  0.00  0.00    +0.000 A 
ATOM     11  C   UNL     1       0.122  12.218  20.630  0.00  0.00    +0.000 A 
BRANCH   6  13
ATOM     12  C   UNL     1      -0.175  15.510  21.601  0.00  0.00    +0.000 C 
ATOM     13  C   UNL     1       0.646  14.337  22.015  0.00  0.00    +0.000 C 
ENDBRANCH   6  13
BRANCH  10  14
ATOM     14  C   UNL     1      -0.756  10.425  18.883  0.00  0.00    +0.000 C 
ATOM     15  C   UNL     1      -2.073  10.733  18.243  0.00  0.00    +0.000 C 
ENDBRANCH  10  14
ENDBRANCH   1  11
BRANCH   5  16
ATOM     16  C   UNL     1      -2.781  12.808  22.277  0.00  0.00    +0.000 A 
ATOM     17  C   UNL     1      -3.252  13.182  20.995  0.00  0.00    +0.000 A 
ATOM     18  C   UNL     1      -3.925  14.414  20.798  0.00  0.00    +0.000 A 
ATOM     19  C   UNL     1      -4.149  15.242  21.890  0.00  0.00    +0.000 A 
ATOM     20  N   UNL     1      -3.761  14.918  23.142  0.00  0.00    +0.000 NA
ATOM     21  C   UNL     1      -3.098  13.722  23.306  0.00  0.00    +0.000 A 
ENDBRANCH   5  16
BRANCH   2  22
ATOM     22  S   UNL     1       1.509   9.266  22.052  0.00  0.00    +0.000 S 
BRANCH  22  23
ATOM     23  C   UNL     1       1.103   7.839  20.861  0.00  0.00    +0.000 C 
BRANCH  23  24
ATOM     24  C   UNL     1       2.099   7.686  19.568  0.00  0.00    +0.000 C 
ATOM     25  O   UNL     1       2.087   8.626  18.744  0.00  0.00    +0.000 OA
ATOM     26  N   UNL     1       2.828   6.496  19.205  0.00  0.00    +0.000 N 
ATOM     27  C   UNL     1       3.467   6.478  17.964  0.00  0.00    +0.000 C 
ATOM     28  C   UNL     1       3.460   4.912  17.536  0.00  0.00    +0.000 C 
ATOM     29  C   UNL     1       4.888   4.818  17.481  0.00  0.00    +0.000 A 
ATOM     30  C   UNL     1       5.049   4.422  16.048  0.00  0.00    +0.000 A 
ATOM     31  C   UNL     1       6.288   4.110  15.625  0.00  0.00    +0.000 A 
ATOM     32  C   UNL     1       7.147   4.476  16.612  0.00  0.00    +0.000 A 
ATOM     33  C   UNL     1       6.689   4.918  18.136  0.00  0.00    +0.000 A 
ATOM     34  C   UNL     1       5.457   5.102  18.849  0.00  0.00    +0.000 A 
ATOM     35  C   UNL     1       3.755   5.352  19.798  0.00  0.00    +0.000 C 
ENDBRANCH  23  24
ENDBRANCH  22  23
ENDBRANCH   2  22
TORSDOF 7
ENDMDL
MODEL 5
REMARK VINA RESULT:      -7.8      5.068      7.319
REMARK  Name = 
REMARK  9 active torsions:
REMARK  status: ('A' for Active; 'I' for Inactive)
REMARK    1  A    between atoms: C_1  and  C_2
REMARK    2  A    between atoms: C_2  and  C_3
REMARK    3  A    between atoms: C_7  and  C_8
REMARK    4  A    between atoms: C_8  and  C_9
REMARK    5  A    between atoms: C_10  and  N_11
REMARK    6  A    between atoms: C_12  and  S_13
REMARK    7  A    between atoms: S_13  and  C_14
REMARK    8  A    between atoms: C_14  and  C_15
REMARK    9  A    between atoms: C_29  and  C_30
REMARK                            x       y       z     vdW  Elec       q    Type
REMARK                         _______ _______ _______ _____ _____    ______ ____
ROOT
ATOM      1  N   UNL     1      -0.160  11.083  21.461  0.00  0.00    +0.000 N 
ATOM      2  C   UNL     1       0.434   9.767  21.607  0.00  0.00    +0.000 A 
ATOM      3  N   UNL     1       0.039   9.307  22.792  0.00  0.00    +0.000 NA
ATOM      4  N   UNL     1      -0.742  10.207  23.451  0.00  0.00    +0.000 NA
ATOM      5  C   UNL     1      -0.918  11.281  22.691  0.00  0.00    +0.000 A 
ENDROOT
BRANCH   1  11
ATOM      6  C   UNL     1      -0.970  11.626  19.157  0.00  0.00    +0.000 A 
ATOM      7  C   UNL     1      -0.971  12.426  17.999  0.00  0.00    +0.000 A 
ATOM      8  C   UNL     1      -0.109  13.498  17.876  0.00  0.00    +0.000 A 
ATOM      9  C   UNL     1       0.718  13.827  18.943  0.00  0.00    +0.000 A 
ATOM     10  C   UNL     1       0.786  13.030  20.121  0.00  0.00    +0.000 A 
ATOM     11  C   UNL     1      -0.108  11.924  20.257  0.00  0.00    +0.000 A 
BRANCH   6  13
ATOM     12  C   UNL     1      -1.845  10.108  17.544  0.00  0.00    +0.000 C 
ATOM     13  C   UNL     1      -1.705  10.316  19.014  0.00  0.00    +0.000 C 
ENDBRANCH   6  13
BRANCH  10  14
ATOM     14  C   UNL     1       1.909  13.441  21.076  0.00  0.00    +0.000 C 
ATOM     15  C   UNL     1       2.453  14.810  20.812  0.00  0.00    +0.000 C 
ENDBRANCH  10  14
ENDBRANCH   1  11
BRANCH   5  16
ATOM     16  C   UNL     1      -1.815  12.429  23.141  0.00  0.00    +0.000 A 
ATOM     17  C   UNL     1      -1.336  13.716  23.486  0.00  0.00    +0.000 A 
ATOM     18  C   UNL     1      -2.108  14.586  24.296  0.00  0.00    +0.000 A 
ATOM     19  C   UNL     1      -3.362  14.173  24.724  0.00  0.00    +0.000 A 
ATOM     20  N   UNL     1      -3.889  12.976  24.392  0.00  0.00    +0.000 NA
ATOM     21  C   UNL     1      -3.115  12.143  23.615  0.00  0.00    +0.000 A 
ENDBRANCH   5  16
BRANCH   2  22
ATOM     22  S   UNL     1       1.258   8.644  20.453  0.00  0.00    +0.000 S 
BRANCH  22  23
ATOM     23  C   UNL     1       1.443   6.837  21.016  0.00  0.00    +0.000 C 
BRANCH  23  24
ATOM     24  C   UNL     1       2.163   5.826  19.945  0.00  0.00    +0.000 C 
ATOM     25  O   UNL     1       1.719   4.658  19.899  0.00  0.00    +0.000 OA
ATOM     26  N   UNL     1       3.368   6.107  19.205  0.00  0.00    +0.000 N 
ATOM     27  C   UNL     1       3.952   5.058  18.492  0.00  0.00    +0.000 C 
ATOM     28  C   UNL     1       5.536   5.415  18.486  0.00  0.00    +0.000 C 
ATOM     29  C   UNL     1       5.614   5.493  17.058  0.00  0.00    +0.000 A 
ATOM     30  C   UNL     1       6.633   4.425  16.813  0.00  0.00    +0.000 A 
ATOM     31  C   UNL     1       7.079   4.270  15.553  0.00  0.00    +0.000 A 
ATOM     32  C   UNL     1       6.275   5.018  14.753  0.00  0.00    +0.000 A 
ATOM     33  C   UNL     1       5.181   6.128  15.299  0.00  0.00    +0.000 A 
ATOM     34  C   UNL     1       4.710   6.599  16.572  0.00  0.00    +0.000 A 
ATOM     35  C   UNL     1       4.081   7.219  18.326  0.00  0.00    +0.000 C 
ENDBRANCH  23  24
ENDBRANCH  22  23
ENDBRANCH   2  22
TORSDOF 7
ENDMDL
MODEL 6
REMARK VINA RESULT:      -7.8      5.135      7.462
REMARK  Name = 
REMARK  9 active torsions:
REMARK  status: ('A' for Active; 'I' for Inactive)
REMARK    1  A    between atoms: C_1  and  C_2
REMARK    2  A    between atoms: C_2  and  C_3
REMARK    3  A    between atoms: C_7  and  C_8
REMARK    4  A    between atoms: C_8  and  C_9
REMARK    5  A    between atoms: C_10  and  N_11
REMARK    6  A    between atoms: C_12  and  S_13
REMARK    7  A    between atoms: S_13  and  C_14
REMARK    8  A    between atoms: C_14  and  C_15
REMARK    9  A    between atoms: C_29  and  C_30
REMARK                            x       y       z     vdW  Elec       q    Type
REMARK                         _______ _______ _______ _____ _____    ______ ____
ROOT
ATOM      1  N   UNL     1      -1.917  11.796  19.617  0.00  0.00    +0.000 N 
ATOM      2  C   UNL     1      -1.228  10.755  18.876  0.00  0.00    +0.000 A 
ATOM      3  N   UNL     1      -2.128  10.220  18.055  0.00  0.00    +0.000 NA
ATOM      4  N   UNL     1      -3.354  10.796  18.202  0.00  0.00    +0.000 NA
ATOM      5  C   UNL     1      -3.282  11.766  19.106  0.00  0.00    +0.000 A 
ENDROOT
BRANCH   1  11
ATOM      6  C   UNL     1      -0.627  13.899  20.034  0.00  0.00    +0.000 A 
ATOM      7  C   UNL     1      -0.046  14.847  20.896  0.00  0.00    +0.000 A 
ATOM      8  C   UNL     1      -0.069  14.670  22.266  0.00  0.00    +0.000 A 
ATOM      9  C   UNL     1      -0.739  13.573  22.795  0.00  0.00    +0.000 A 
ATOM     10  C   UNL     1      -1.310  12.565  21.967  0.00  0.00    +0.000 A 
ATOM     11  C   UNL     1      -1.295  12.746  20.550  0.00  0.00    +0.000 A 
BRANCH   6  13
ATOM     12  C   UNL     1       1.257  14.070  18.587  0.00  0.00    +0.000 C 
ATOM     13  C   UNL     1      -0.233  14.047  18.584  0.00  0.00    +0.000 C 
ENDBRANCH   6  13
BRANCH  10  14
ATOM     14  C   UNL     1      -1.807  11.343  22.743  0.00  0.00    +0.000 C 
ATOM     15  C   UNL     1      -0.723  10.375  23.101  0.00  0.00    +0.000 C 
ENDBRANCH  10  14
ENDBRANCH   1  11
BRANCH   5  16
ATOM     16  C   UNL     1      -4.491  12.640  19.424  0.00  0.00    +0.000 A 
ATOM     17  C   UNL     1      -4.718  13.242  20.685  0.00  0.00    +0.000 A 
ATOM     18  C   UNL     1      -6.018  13.658  21.068  0.00  0.00    +0.000 A 
ATOM     19  C   UNL     1      -7.068  13.497  20.174  0.00  0.00    +0.000 A 
ATOM     20  N   UNL     1      -6.904  12.969  18.943  0.00  0.00    +0.000 NA
ATOM     21  C   UNL     1      -5.634  12.561  18.599  0.00  0.00    +0.000 A 
ENDBRANCH   5  16
BRANCH   2  22
ATOM     22  S   UNL     1       0.518  10.328  18.672  0.00  0.00    +0.000 S 
BRANCH  22  23
ATOM     23  C   UNL     1       1.437   9.751  20.235  0.00  0.00    +0.000 C 
BRANCH  23  24
ATOM     24  C   UNL     1       1.497   8.130  20.468  0.00  0.00    +0.000 C 
ATOM     25  O   UNL     1       0.960   7.699  21.513  0.00  0.00    +0.000 OA
ATOM     26  N   UNL     1       2.270   7.197  19.687  0.00  0.00    +0.000 N 
ATOM     27  C   UNL     1       2.364   5.883  20.150  0.00  0.00    +0.000 C 
ATOM     28  C   UNL     1       3.807   5.374  19.608  0.00  0.00    +0.000 C 
ATOM     29  C   UNL     1       3.250   4.310  18.826  0.00  0.00    +0.000 A 
ATOM     30  C   UNL     1       3.937   3.149  19.473  0.00  0.00    +0.000 A 
ATOM     31  C   UNL     1       3.759   1.936  18.919  0.00  0.00    +0.000 A 
ATOM     32  C   UNL     1       2.765   2.061  18.002  0.00  0.00    +0.000 A 
ATOM     33  C   UNL     1       2.149   3.502  17.479  0.00  0.00    +0.000 A 
ATOM     34  C   UNL     1       2.344   4.894  17.771  0.00  0.00    +0.000 A 
ATOM     35  C   UNL     1       2.628   6.791  18.195  0.00  0.00    +0.000 C 
ENDBRANCH  23  24
ENDBRANCH  22  23
ENDBRANCH   2  22
TORSDOF 7
ENDMDL
MODEL 7
REMARK VINA RESULT:      -7.7      5.245      7.131
REMARK  Name = 
REMARK  9 active torsions:
REMARK  status: ('A' for Active; 'I' for Inactive)
REMARK    1  A    between atoms: C_1  and  C_2
REMARK    2  A    between atoms: C_2  and  C_3
REMARK    3  A    between atoms: C_7  and  C_8
REMARK    4  A    between atoms: C_8  and  C_9
REMARK    5  A    between atoms: C_10  and  N_11
REMARK    6  A    between atoms: C_12  and  S_13
REMARK    7  A    between atoms: S_13  and  C_14
REMARK    8  A    between atoms: C_14  and  C_15
REMARK    9  A    between atoms: C_29  and  C_30
REMARK                            x       y       z     vdW  Elec       q    Type
REMARK                         _______ _______ _______ _____ _____    ______ ____
ROOT
ATOM      1  N   UNL     1      -0.568  12.165  20.040  0.00  0.00    +0.000 N 
ATOM      2  C   UNL     1       0.222  10.983  20.335  0.00  0.00    +0.000 A 
ATOM      3  N   UNL     1       1.460  11.410  20.576  0.00  0.00    +0.000 NA
ATOM      4  N   UNL     1       1.564  12.761  20.443  0.00  0.00    +0.000 NA
ATOM      5  C   UNL     1       0.375  13.272  20.148  0.00  0.00    +0.000 A 
ENDROOT
BRANCH   1  11
ATOM      6  C   UNL     1      -2.568  11.739  18.598  0.00  0.00    +0.000 A 
ATOM      7  C   UNL     1      -3.957  11.727  18.377  0.00  0.00    +0.000 A 
ATOM      8  C   UNL     1      -4.833  12.200  19.335  0.00  0.00    +0.000 A 
ATOM      9  C   UNL     1      -4.331  12.625  20.559  0.00  0.00    +0.000 A 
ATOM     10  C   UNL     1      -2.933  12.693  20.821  0.00  0.00    +0.000 A 
ATOM     11  C   UNL     1      -2.023  12.200  19.836  0.00  0.00    +0.000 A 
BRANCH   6  13
ATOM     12  C   UNL     1      -2.504  10.538  16.543  0.00  0.00    +0.000 C 
ATOM     13  C   UNL     1      -1.734  11.519  17.359  0.00  0.00    +0.000 C 
ENDBRANCH   6  13
BRANCH  10  14
ATOM     14  C   UNL     1      -2.589  13.387  22.140  0.00  0.00    +0.000 C 
ATOM     15  C   UNL     1      -2.163  12.446  23.223  0.00  0.00    +0.000 C 
ENDBRANCH  10  14
ENDBRANCH   1  11
BRANCH   5  16
ATOM     16  C   UNL     1       0.173  14.777  20.014  0.00  0.00    +0.000 A 
ATOM     17  C   UNL     1      -0.100  15.637  21.105  0.00  0.00    +0.000 A 
ATOM     18  C   UNL     1      -0.703  16.903  20.901  0.00  0.00    +0.000 A 
ATOM     19  C   UNL     1      -0.995  17.309  19.605  0.00  0.00    +0.000 A 
ATOM     20  N   UNL     1      -0.719  16.551  18.523  0.00  0.00    +0.000 NA
ATOM     21  C   UNL     1      -0.145  15.319  18.749  0.00  0.00    +0.000 A 
ENDBRANCH   5  16
BRANCH   2  22
ATOM     22  S   UNL     1      -0.209   9.266  20.706  0.00  0.00    +0.000 S 
BRANCH  22  23
ATOM     23  C   UNL     1       1.242   8.047  20.874  0.00  0.00    +0.000 C 
BRANCH  23  24
ATOM     24  C   UNL     1       2.119   7.791  19.512  0.00  0.00    +0.000 C 
ATOM     25  O   UNL     1       2.017   8.657  18.616  0.00  0.00    +0.000 OA
ATOM     26  N   UNL     1       2.830   6.580  19.187  0.00  0.00    +0.000 N 
ATOM     27  C   UNL     1       3.354   6.461  17.898  0.00  0.00    +0.000 C 
ATOM     28  C   UNL     1       3.333   4.864  17.607  0.00  0.00    +0.000 C 
ATOM     29  C   UNL     1       4.752   4.777  17.429  0.00  0.00    +0.000 A 
ATOM     30  C   UNL     1       4.789   4.260  16.026  0.00  0.00    +0.000 A 
ATOM     31  C   UNL     1       5.989   3.924  15.520  0.00  0.00    +0.000 A 
ATOM     32  C   UNL     1       6.928   4.380  16.389  0.00  0.00    +0.000 A 
ATOM     33  C   UNL     1       6.604   4.948  17.906  0.00  0.00    +0.000 A 
ATOM     34  C   UNL     1       5.438   5.183  18.711  0.00  0.00    +0.000 A 
ATOM     35  C   UNL     1       3.826   5.499  19.787  0.00  0.00    +0.000 C 
ENDBRANCH  23  24
ENDBRANCH  22  23
ENDBRANCH   2  22
TORSDOF 7
ENDMDL
MODEL 8
REMARK VINA RESULT:      -7.7      1.116      2.786
REMARK  Name = 
REMARK  9 active torsions:
REMARK  status: ('A' for Active; 'I' for Inactive)
REMARK    1  A    between atoms: C_1  and  C_2
REMARK    2  A    between atoms: C_2  and  C_3
REMARK    3  A    between atoms: C_7  and  C_8
REMARK    4  A    between atoms: C_8  and  C_9
REMARK    5  A    between atoms: C_10  and  N_11
REMARK    6  A    between atoms: C_12  and  S_13
REMARK    7  A    between atoms: S_13  and  C_14
REMARK    8  A    between atoms: C_14  and  C_15
REMARK    9  A    between atoms: C_29  and  C_30
REMARK                            x       y       z     vdW  Elec       q    Type
REMARK                         _______ _______ _______ _____ _____    ______ ____
ROOT
ATOM      1  N   UNL     1       0.081  12.049  19.758  0.00  0.00    +0.000 N 
ATOM      2  C   UNL     1       1.117  13.057  19.626  0.00  0.00    +0.000 A 
ATOM      3  N   UNL     1       0.744  13.850  18.624  0.00  0.00    +0.000 NA
ATOM      4  N   UNL     1      -0.431  13.445  18.068  0.00  0.00    +0.000 NA
ATOM      5  C   UNL     1      -0.891  12.385  18.724  0.00  0.00    +0.000 A 
ENDROOT
BRANCH   1  11
ATOM      6  C   UNL     1      -0.657  11.353  22.045  0.00  0.00    +0.000 A 
ATOM      7  C   UNL     1      -0.784  10.396  23.070  0.00  0.00    +0.000 A 
ATOM      8  C   UNL     1      -0.245   9.132  22.932  0.00  0.00    +0.000 A 
ATOM      9  C   UNL     1       0.369   8.785  21.734  0.00  0.00    +0.000 A 
ATOM     10  C   UNL     1       0.558   9.725  20.682  0.00  0.00    +0.000 A 
ATOM     11  C   UNL     1      -0.003  11.032  20.816  0.00  0.00    +0.000 A 
BRANCH   6  13
ATOM     12  C   UNL     1      -2.240  12.652  23.259  0.00  0.00    +0.000 C 
ATOM     13  C   UNL     1      -0.986  12.765  22.463  0.00  0.00    +0.000 C 
ENDBRANCH   6  13
BRANCH  10  14
ATOM     14  C   UNL     1       1.441   9.205  19.546  0.00  0.00    +0.000 C 
ATOM     15  C   UNL     1       1.944   7.812  19.763  0.00  0.00    +0.000 C 
ENDBRANCH  10  14
ENDBRANCH   1  11
BRANCH   5  16
ATOM     16  C   UNL     1      -2.234  11.758  18.369  0.00  0.00    +0.000 A 
ATOM     17  C   UNL     1      -2.543  11.221  17.096  0.00  0.00    +0.000 A 
ATOM     18  C   UNL     1      -3.888  11.061  16.681  0.00  0.00    +0.000 A 
ATOM     19  C   UNL     1      -4.910  11.408  17.555  0.00  0.00    +0.000 A 
ATOM     20  N   UNL     1      -4.676  11.884  18.797  0.00  0.00    +0.000 NA
ATOM     21  C   UNL     1      -3.361  12.043  19.172  0.00  0.00    +0.000 A 
ENDBRANCH   5  16
BRANCH   2  22
ATOM     22  S   UNL     1       2.506  13.552  20.675  0.00  0.00    +0.000 S 
BRANCH  22  23
ATOM     23  C   UNL     1       3.467  15.100  20.130  0.00  0.00    +0.000 C 
BRANCH  23  24
ATOM     24  C   UNL     1       4.649  14.851  19.022  0.00  0.00    +0.000 C 
ATOM     25  O   UNL     1       4.306  14.278  17.964  0.00  0.00    +0.000 OA
ATOM     26  N   UNL     1       6.060  15.056  19.237  0.00  0.00    +0.000 N 
ATOM     27  C   UNL     1       6.940  14.602  18.253  0.00  0.00    +0.000 C 
ATOM     28  C   UNL     1       8.296  14.239  19.070  0.00  0.00    +0.000 C 
ATOM     29  C   UNL     1       9.099  15.184  18.353  0.00  0.00    +0.000 A 
ATOM     30  C   UNL     1      10.110  14.250  17.769  0.00  0.00    +0.000 A 
ATOM     31  C   UNL     1      11.145  14.792  17.102  0.00  0.00    +0.000 A 
ATOM     32  C   UNL     1      10.860  16.110  16.933  0.00  0.00    +0.000 A 
ATOM     33  C   UNL     1       9.628  16.907  17.691  0.00  0.00    +0.000 A 
ATOM     34  C   UNL     1       8.563  16.574  18.595  0.00  0.00    +0.000 A 
ATOM     35  C   UNL     1       7.111  16.089  19.826  0.00  0.00    +0.000 C 
ENDBRANCH  23  24
ENDBRANCH  22  23
ENDBRANCH   2  22
TORSDOF 7
ENDMDL
MODEL 9
REMARK VINA RESULT:      -7.7      0.788      2.443
REMARK  Name = 
REMARK  9 active torsions:
REMARK  status: ('A' for Active; 'I' for Inactive)
REMARK    1  A    between atoms: C_1  and  C_2
REMARK    2  A    between atoms: C_2  and  C_3
REMARK    3  A    between atoms: C_7  and  C_8
REMARK    4  A    between atoms: C_8  and  C_9
REMARK    5  A    between atoms: C_10  and  N_11
REMARK    6  A    between atoms: C_12  and  S_13
REMARK    7  A    between atoms: S_13  and  C_14
REMARK    8  A    between atoms: C_14  and  C_15
REMARK    9  A    between atoms: C_29  and  C_30
REMARK                            x       y       z     vdW  Elec       q    Type
REMARK                         _______ _______ _______ _____ _____    ______ ____
ROOT
ATOM      1  N   UNL     1      -0.036  12.089  19.758  0.00  0.00    +0.000 N 
ATOM      2  C   UNL     1       1.014  13.082  19.618  0.00  0.00    +0.000 A 
ATOM      3  N   UNL     1       0.720  13.789  18.529  0.00  0.00    +0.000 NA
ATOM      4  N   UNL     1      -0.415  13.339  17.925  0.00  0.00    +0.000 NA
ATOM      5  C   UNL     1      -0.927  12.338  18.631  0.00  0.00    +0.000 A 
ENDROOT
BRANCH   1  11
ATOM      6  C   UNL     1      -0.890  11.607  22.059  0.00  0.00    +0.000 A 
ATOM      7  C   UNL     1      -1.097  10.741  23.149  0.00  0.00    +0.000 A 
ATOM      8  C   UNL     1      -0.605   9.451  23.135  0.00  0.00    +0.000 A 
ATOM      9  C   UNL     1       0.042   8.986  21.996  0.00  0.00    +0.000 A 
ATOM     10  C   UNL     1       0.310   9.831  20.881  0.00  0.00    +0.000 A 
ATOM     11  C   UNL     1      -0.202  11.164  20.888  0.00  0.00    +0.000 A 
BRANCH   6  13
ATOM     12  C   UNL     1      -2.133  13.045  23.495  0.00  0.00    +0.000 C 
ATOM     13  C   UNL     1      -1.178  13.060  22.350  0.00  0.00    +0.000 C 
ENDBRANCH   6  13
BRANCH  10  14
ATOM     14  C   UNL     1       1.216   9.188  19.828  0.00  0.00    +0.000 C 
ATOM     15  C   UNL     1       1.790   7.872  20.251  0.00  0.00    +0.000 C 
ENDBRANCH  10  14
ENDBRANCH   1  11
BRANCH   5  16
ATOM     16  C   UNL     1      -2.245  11.683  18.233  0.00  0.00    +0.000 A 
ATOM     17  C   UNL     1      -2.497  11.130  16.954  0.00  0.00    +0.000 A 
ATOM     18  C   UNL     1      -3.823  10.943  16.491  0.00  0.00    +0.000 A 
ATOM     19  C   UNL     1      -4.882  11.278  17.325  0.00  0.00    +0.000 A 
ATOM     20  N   UNL     1      -4.703  11.767  18.570  0.00  0.00    +0.000 NA
ATOM     21  C   UNL     1      -3.405  11.953  18.992  0.00  0.00    +0.000 A 
ENDBRANCH   5  16
BRANCH   2  22
ATOM     22  S   UNL     1       2.325  13.663  20.721  0.00  0.00    +0.000 S 
BRANCH  22  23
ATOM     23  C   UNL     1       3.397  15.098  20.079  0.00  0.00    +0.000 C 
BRANCH  23  24
ATOM     24  C   UNL     1       5.013  14.933  20.298  0.00  0.00    +0.000 C 
ATOM     25  O   UNL     1       5.420  14.965  21.480  0.00  0.00    +0.000 OA
ATOM     26  N   UNL     1       6.009  14.948  19.255  0.00  0.00    +0.000 N 
ATOM     27  C   UNL     1       7.350  14.999  19.637  0.00  0.00    +0.000 C 
ATOM     28  C   UNL     1       8.082  15.780  18.416  0.00  0.00    +0.000 C 
ATOM     29  C   UNL     1       8.946  14.682  18.100  0.00  0.00    +0.000 A 
ATOM     30  C   UNL     1      10.270  15.347  18.309  0.00  0.00    +0.000 A 
ATOM     31  C   UNL     1      11.373  14.650  17.984  0.00  0.00    +0.000 A 
ATOM     32  C   UNL     1      10.979  13.371  17.749  0.00  0.00    +0.000 A 
ATOM     33  C   UNL     1       9.407  12.889  17.595  0.00  0.00    +0.000 A 
ATOM     34  C   UNL     1       8.109  13.497  17.686  0.00  0.00    +0.000 A 
ATOM     35  C   UNL     1       6.347  14.354  17.822  0.00  0.00    +0.000 C 
ENDBRANCH  23  24
ENDBRANCH  22  23
ENDBRANCH   2  22
TORSDOF 7
ENDMDL
