MODEL 1
REMARK VINA RESULT:      -8.3      0.000      0.000
REMARK  Name = 
REMARK  7 active torsions:
REMARK  status: ('A' for Active; 'I' for Inactive)
REMARK    1  A    between atoms: C_1  and  C_2
REMARK    2  A    between atoms: C_2  and  N_3
REMARK    3  A    between atoms: C_2  and  C_24
REMARK    4  A    between atoms: C_4  and  C_6
REMARK    5  A    between atoms: C_6  and  N_7
REMARK    6  A    between atoms: N_12  and  C_13
REMARK    7  A    between atoms: C_13  and  C_14
REMARK                            x       y       z     vdW  Elec       q    Type
REMARK                         _______ _______ _______ _____ _____    ______ ____
ROOT
ATOM      1  N   UNL     1      -0.522  10.488  20.965  0.00  0.00    +0.000 N 
ATOM      2  C   UNL     1      -0.338   9.632  22.019  0.00  0.00    +0.000 A 
ATOM      3  N   UNL     1       0.495   8.662  21.720  0.00  0.00    +0.000 NA
ATOM      4  C   UNL     1       0.910   8.939  20.431  0.00  0.00    +0.000 A 
ATOM      5  C   UNL     1       1.832   8.292  19.586  0.00  0.00    +0.000 A 
ATOM      6  N   UNL     1       2.544   7.183  20.038  0.00  0.00    +0.000 N 
ATOM      7  N   UNL     1       2.035   8.827  18.350  0.00  0.00    +0.000 NA
ATOM      8  C   UNL     1       1.361   9.948  18.012  0.00  0.00    +0.000 A 
ATOM      9  N   UNL     1       0.458  10.641  18.740  0.00  0.00    +0.000 NA
ATOM     10  C   UNL     1       0.285  10.073  19.943  0.00  0.00    +0.000 A 
ATOM     11  H   UNL     1       2.118   6.819  20.887  0.00  0.00    +0.000 HD
ENDROOT
BRANCH   1  12
ATOM     12  C   UNL     1      -1.350  11.673  20.983  0.00  0.00    +0.000 C 
BRANCH  12  14
ATOM     13  N   UNL     1      -1.041  14.102  20.540  0.00  0.00    +0.000 N 
ATOM     14  C   UNL     1      -0.618  12.979  21.220  0.00  0.00    +0.000 C 
ATOM     15  O   UNL     1       0.260  13.039  22.083  0.00  0.00    +0.000 OA
ATOM     16  H   UNL     1      -1.684  14.030  19.763  0.00  0.00    +0.000 HD
BRANCH  13  18
ATOM     17  C   UNL     1      -1.349  16.249  21.727  0.00  0.00    +0.000 C 
ATOM     18  C   UNL     1      -0.450  15.410  20.805  0.00  0.00    +0.000 C 
BRANCH  18  19
ATOM     19  C   UNL     1      -0.167  16.187  19.521  0.00  0.00    +0.000 A 
ATOM     20  C   UNL     1      -1.127  17.121  19.077  0.00  0.00    +0.000 A 
ATOM     21  C   UNL     1      -0.862  17.974  18.013  0.00  0.00    +0.000 A 
ATOM     22  C   UNL     1       0.381  17.939  17.395  0.00  0.00    +0.000 A 
ATOM     23  C   UNL     1       1.367  17.033  17.810  0.00  0.00    +0.000 A 
ATOM     24  C   UNL     1       2.637  17.074  17.212  0.00  0.00    +0.000 A 
ATOM     25  C   UNL     1       3.639  16.181  17.588  0.00  0.00    +0.000 A 
ATOM     26  C   UNL     1       3.365  15.207  18.533  0.00  0.00    +0.000 A 
ATOM     27  C   UNL     1       2.111  15.163  19.147  0.00  0.00    +0.000 A 
ATOM     28  C   UNL     1       1.091  16.100  18.845  0.00  0.00    +0.000 A 
ENDBRANCH  18  19
ENDBRANCH  13  18
ENDBRANCH  12  14
ENDBRANCH   1  12
BRANCH   6  29
ATOM     29  C   UNL     1       2.932   6.173  19.074  0.00  0.00    +0.000 C 
BRANCH  29  30
ATOM     30  C   UNL     1       2.183   4.879  19.307  0.00  0.00    +0.000 A 
ATOM     31  C   UNL     1       1.850   4.046  18.229  0.00  0.00    +0.000 A 
ATOM     32  C   UNL     1       1.186   2.837  18.447  0.00  0.00    +0.000 A 
ATOM     33  C   UNL     1       0.837   2.454  19.742  0.00  0.00    +0.000 A 
ATOM     34  C   UNL     1       1.142   3.284  20.817  0.00  0.00    +0.000 A 
ATOM     35  C   UNL     1       1.808   4.492  20.604  0.00  0.00    +0.000 A 
ENDBRANCH  29  30
ENDBRANCH   6  29
TORSDOF 6
ENDMDL
MODEL 2
REMARK VINA RESULT:      -8.2      0.664      1.033
REMARK  Name = 
REMARK  7 active torsions:
REMARK  status: ('A' for Active; 'I' for Inactive)
REMARK    1  A    between atoms: C_1  and  C_2
REMARK    2  A    between atoms: C_2  and  N_3
REMARK    3  A    between atoms: C_2  and  C_24
REMARK    4  A    between atoms: C_4  and  C_6
REMARK    5  A    between atoms: C_6  and  N_7
REMARK    6  A    between atoms: N_12  and  C_13
REMARK    7  A    between atoms: C_13  and  C_14
REMARK                            x       y       z     vdW  Elec       q    Type
REMARK                         _______ _______ _______ _____ _____    ______ ____
ROOT
ATOM      1  N   UNL     1      -0.091  10.047  20.508  0.00  0.00    +0.000 N 
ATOM      2  C   UNL     1       0.046   9.265  21.624  0.00  0.00    +0.000 A 
ATOM      3  N   UNL     1       0.906   8.290  21.434  0.00  0.00    +0.000 NA
ATOM      4  C   UNL     1       1.387   8.490  20.153  0.00  0.00    +0.000 A 
ATOM      5  C   UNL     1       2.360   7.803  19.402  0.00  0.00    +0.000 A 
ATOM      6  N   UNL     1       3.060   6.737  19.962  0.00  0.00    +0.000 N 
ATOM      7  N   UNL     1       2.623   8.261  18.145  0.00  0.00    +0.000 NA
ATOM      8  C   UNL     1       1.954   9.347  17.700  0.00  0.00    +0.000 A 
ATOM      9  N   UNL     1       1.005  10.072  18.332  0.00  0.00    +0.000 NA
ATOM     10  C   UNL     1       0.775   9.580  19.559  0.00  0.00    +0.000 A 
ATOM     11  H   UNL     1       2.594   6.422  20.810  0.00  0.00    +0.000 HD
ENDROOT
BRANCH   1  12
ATOM     12  C   UNL     1      -0.933  11.218  20.404  0.00  0.00    +0.000 C 
BRANCH  12  14
ATOM     13  N   UNL     1      -0.843  13.703  20.295  0.00  0.00    +0.000 N 
ATOM     14  C   UNL     1      -0.268  12.536  20.752  0.00  0.00    +0.000 C 
ATOM     15  O   UNL     1       0.701  12.548  21.514  0.00  0.00    +0.000 OA
ATOM     16  H   UNL     1      -1.568  13.686  19.590  0.00  0.00    +0.000 HD
BRANCH  13  18
ATOM     17  C   UNL     1      -1.325  15.780  21.548  0.00  0.00    +0.000 C 
ATOM     18  C   UNL     1      -0.315  15.006  20.686  0.00  0.00    +0.000 C 
BRANCH  18  19
ATOM     19  C   UNL     1       0.083  15.853  19.479  0.00  0.00    +0.000 A 
ATOM     20  C   UNL     1      -0.807  16.859  19.044  0.00  0.00    +0.000 A 
ATOM     21  C   UNL     1      -0.438  17.768  18.060  0.00  0.00    +0.000 A 
ATOM     22  C   UNL     1       0.840  17.716  17.518  0.00  0.00    +0.000 A 
ATOM     23  C   UNL     1       1.757  16.739  17.928  0.00  0.00    +0.000 A 
ATOM     24  C   UNL     1       3.064  16.760  17.412  0.00  0.00    +0.000 A 
ATOM     25  C   UNL     1       4.000  15.799  17.785  0.00  0.00    +0.000 A 
ATOM     26  C   UNL     1       3.626  14.777  18.642  0.00  0.00    +0.000 A 
ATOM     27  C   UNL     1       2.334  14.751  19.174  0.00  0.00    +0.000 A 
ATOM     28  C   UNL     1       1.376  15.753  18.877  0.00  0.00    +0.000 A 
ENDBRANCH  18  19
ENDBRANCH  13  18
ENDBRANCH  12  14
ENDBRANCH   1  12
BRANCH   6  29
ATOM     29  C   UNL     1       3.511   5.673  19.088  0.00  0.00    +0.000 C 
BRANCH  29  30
ATOM     30  C   UNL     1       2.581   4.482  19.152  0.00  0.00    +0.000 A 
ATOM     31  C   UNL     1       1.630   4.376  20.177  0.00  0.00    +0.000 A 
ATOM     32  C   UNL     1       0.752   3.292  20.219  0.00  0.00    +0.000 A 
ATOM     33  C   UNL     1       0.821   2.297  19.244  0.00  0.00    +0.000 A 
ATOM     34  C   UNL     1       1.775   2.379  18.235  0.00  0.00    +0.000 A 
ATOM     35  C   UNL     1       2.654   3.463  18.188  0.00  0.00    +0.000 A 
ENDBRANCH  29  30
ENDBRANCH   6  29
TORSDOF 6
ENDMDL
MODEL 3
REMARK VINA RESULT:      -8.2      3.719     10.204
REMARK  Name = 
REMARK  7 active torsions:
REMARK  status: ('A' for Active; 'I' for Inactive)
REMARK    1  A    between atoms: C_1  and  C_2
REMARK    2  A    between atoms: C_2  and  N_3
REMARK    3  A    between atoms: C_2  and  C_24
REMARK    4  A    between atoms: C_4  and  C_6
REMARK    5  A    between atoms: C_6  and  N_7
REMARK    6  A    between atoms: N_12  and  C_13
REMARK    7  A    between atoms: C_13  and  C_14
REMARK                            x       y       z     vdW  Elec       q    Type
REMARK                         _______ _______ _______ _____ _____    ______ ____
ROOT
ATOM      1  N   UNL     1       0.780  10.160  18.585  0.00  0.00    +0.000 N 
ATOM      2  C   UNL     1       1.163  10.754  19.759  0.00  0.00    +0.000 A 
ATOM      3  N   UNL     1       0.184  11.443  20.300  0.00  0.00    +0.000 NA
ATOM      4  C   UNL     1      -0.897  11.234  19.462  0.00  0.00    +0.000 A 
ATOM      5  C   UNL     1      -2.233  11.670  19.535  0.00  0.00    +0.000 A 
ATOM      6  N   UNL     1      -2.672  12.420  20.624  0.00  0.00    +0.000 N 
ATOM      7  N   UNL     1      -3.078  11.280  18.539  0.00  0.00    +0.000 NA
ATOM      8  C   UNL     1      -2.594  10.490  17.555  0.00  0.00    +0.000 A 
ATOM      9  N   UNL     1      -1.338  10.022  17.389  0.00  0.00    +0.000 NA
ATOM     10  C   UNL     1      -0.543  10.439  18.387  0.00  0.00    +0.000 A 
ATOM     11  H   UNL     1      -1.874  12.776  21.145  0.00  0.00    +0.000 HD
ENDROOT
BRANCH   1  12
ATOM     12  C   UNL     1       1.614   9.308  17.767  0.00  0.00    +0.000 C 
BRANCH  12  14
ATOM     13  N   UNL     1       3.182   7.376  17.805  0.00  0.00    +0.000 N 
ATOM     14  C   UNL     1       2.241   8.126  18.479  0.00  0.00    +0.000 C 
ATOM     15  O   UNL     1       1.982   7.921  19.667  0.00  0.00    +0.000 OA
ATOM     16  H   UNL     1       3.313   7.478  16.807  0.00  0.00    +0.000 HD
BRANCH  13  18
ATOM     17  C   UNL     1       5.357   6.214  17.987  0.00  0.00    +0.000 C 
ATOM     18  C   UNL     1       3.900   6.294  18.471  0.00  0.00    +0.000 C 
BRANCH  18  19
ATOM     19  C   UNL     1       3.220   4.941  18.273  0.00  0.00    +0.000 A 
ATOM     20  C   UNL     1       3.303   4.328  17.004  0.00  0.00    +0.000 A 
ATOM     21  C   UNL     1       2.849   3.031  16.801  0.00  0.00    +0.000 A 
ATOM     22  C   UNL     1       2.338   2.305  17.870  0.00  0.00    +0.000 A 
ATOM     23  C   UNL     1       2.246   2.872  19.148  0.00  0.00    +0.000 A 
ATOM     24  C   UNL     1       1.792   2.086  20.220  0.00  0.00    +0.000 A 
ATOM     25  C   UNL     1       1.674   2.617  21.502  0.00  0.00    +0.000 A 
ATOM     26  C   UNL     1       1.963   3.955  21.717  0.00  0.00    +0.000 A 
ATOM     27  C   UNL     1       2.429   4.745  20.663  0.00  0.00    +0.000 A 
ATOM     28  C   UNL     1       2.633   4.222  19.361  0.00  0.00    +0.000 A 
ENDBRANCH  18  19
ENDBRANCH  13  18
ENDBRANCH  12  14
ENDBRANCH   1  12
BRANCH   6  29
ATOM     29  C   UNL     1      -3.736  13.382  20.416  0.00  0.00    +0.000 C 
BRANCH  29  30
ATOM     30  C   UNL     1      -4.953  13.038  21.246  0.00  0.00    +0.000 A 
ATOM     31  C   UNL     1      -6.062  12.413  20.658  0.00  0.00    +0.000 A 
ATOM     32  C   UNL     1      -7.173  12.069  21.430  0.00  0.00    +0.000 A 
ATOM     33  C   UNL     1      -7.192  12.355  22.795  0.00  0.00    +0.000 A 
ATOM     34  C   UNL     1      -6.108  12.995  23.385  0.00  0.00    +0.000 A 
ATOM     35  C   UNL     1      -4.993  13.339  22.617  0.00  0.00    +0.000 A 
ENDBRANCH  29  30
ENDBRANCH   6  29
TORSDOF 6
ENDMDL
MODEL 4
REMARK VINA RESULT:      -8.2      3.417      6.024
REMARK  Name = 
REMARK  7 active torsions:
REMARK  status: ('A' for Active; 'I' for Inactive)
REMARK    1  A    between atoms: C_1  and  C_2
REMARK    2  A    between atoms: C_2  and  N_3
REMARK    3  A    between atoms: C_2  and  C_24
REMARK    4  A    between atoms: C_4  and  C_6
REMARK    5  A    between atoms: C_6  and  N_7
REMARK    6  A    between atoms: N_12  and  C_13
REMARK    7  A    between atoms: C_13  and  C_14
REMARK                            x       y       z     vdW  Elec       q    Type
REMARK                         _______ _______ _______ _____ _____    ______ ____
ROOT
ATOM      1  N   UNL     1       1.141   9.284  19.721  0.00  0.00    +0.000 N 
ATOM      2  C   UNL     1       1.543   9.740  18.493  0.00  0.00    +0.000 A 
ATOM      3  N   UNL     1       2.253   8.842  17.848  0.00  0.00    +0.000 NA
ATOM      4  C   UNL     1       2.259   7.736  18.678  0.00  0.00    +0.000 A 
ATOM      5  C   UNL     1       2.813   6.452  18.519  0.00  0.00    +0.000 A 
ATOM      6  N   UNL     1       3.462   6.105  17.336  0.00  0.00    +0.000 N 
ATOM      7  N   UNL     1       2.636   5.560  19.534  0.00  0.00    +0.000 NA
ATOM      8  C   UNL     1       1.931   5.948  20.619  0.00  0.00    +0.000 A 
ATOM      9  N   UNL     1       1.365   7.149  20.873  0.00  0.00    +0.000 NA
ATOM     10  C   UNL     1       1.572   7.994  19.851  0.00  0.00    +0.000 A 
ATOM     11  H   UNL     1       3.668   6.942  16.795  0.00  0.00    +0.000 HD
ENDROOT
BRANCH   1  12
ATOM     12  C   UNL     1       0.319  10.017  20.658  0.00  0.00    +0.000 C 
BRANCH  12  14
ATOM     13  N   UNL     1      -1.167  12.013  20.695  0.00  0.00    +0.000 N 
ATOM     14  C   UNL     1      -0.782  10.860  20.044  0.00  0.00    +0.000 C 
ATOM     15  O   UNL     1      -1.233  10.561  18.937  0.00  0.00    +0.000 OA
ATOM     16  H   UNL     1      -0.875  12.198  21.645  0.00  0.00    +0.000 HD
BRANCH  13  18
ATOM     17  C   UNL     1      -1.749  14.389  20.337  0.00  0.00    +0.000 C 
ATOM     18  C   UNL     1      -2.142  12.922  20.102  0.00  0.00    +0.000 C 
BRANCH  18  19
ATOM     19  C   UNL     1      -3.554  12.680  20.630  0.00  0.00    +0.000 A 
ATOM     20  C   UNL     1      -3.843  13.042  21.963  0.00  0.00    +0.000 A 
ATOM     21  C   UNL     1      -5.142  13.000  22.455  0.00  0.00    +0.000 A 
ATOM     22  C   UNL     1      -6.185  12.633  21.615  0.00  0.00    +0.000 A 
ATOM     23  C   UNL     1      -5.944  12.274  20.281  0.00  0.00    +0.000 A 
ATOM     24  C   UNL     1      -7.029  11.978  19.440  0.00  0.00    +0.000 A 
ATOM     25  C   UNL     1      -6.830  11.605  18.113  0.00  0.00    +0.000 A 
ATOM     26  C   UNL     1      -5.539  11.477  17.626  0.00  0.00    +0.000 A 
ATOM     27  C   UNL     1      -4.451  11.782  18.447  0.00  0.00    +0.000 A 
ATOM     28  C   UNL     1      -4.616  12.237  19.780  0.00  0.00    +0.000 A 
ENDBRANCH  18  19
ENDBRANCH  13  18
ENDBRANCH  12  14
ENDBRANCH   1  12
BRANCH   6  29
ATOM     29  C   UNL     1       4.543   5.142  17.398  0.00  0.00    +0.000 C 
BRANCH  29  30
ATOM     30  C   UNL     1       5.832   5.796  17.844  0.00  0.00    +0.000 A 
ATOM     31  C   UNL     1       6.553   5.281  18.931  0.00  0.00    +0.000 A 
ATOM     32  C   UNL     1       7.758   5.866  19.323  0.00  0.00    +0.000 A 
ATOM     33  C   UNL     1       8.250   6.980  18.641  0.00  0.00    +0.000 A 
ATOM     34  C   UNL     1       7.532   7.514  17.576  0.00  0.00    +0.000 A 
ATOM     35  C   UNL     1       6.328   6.930  17.179  0.00  0.00    +0.000 A 
ENDBRANCH  29  30
ENDBRANCH   6  29
TORSDOF 6
ENDMDL
MODEL 5
REMARK VINA RESULT:      -8.0      1.464      2.573
REMARK  Name = 
REMARK  7 active torsions:
REMARK  status: ('A' for Active; 'I' for Inactive)
REMARK    1  A    between atoms: C_1  and  C_2
REMARK    2  A    between atoms: C_2  and  N_3
REMARK    3  A    between atoms: C_2  and  C_24
REMARK    4  A    between atoms: C_4  and  C_6
REMARK    5  A    between atoms: C_6  and  N_7
REMARK    6  A    between atoms: N_12  and  C_13
REMARK    7  A    between atoms: C_13  and  C_14
REMARK                            x       y       z     vdW  Elec       q    Type
REMARK                         _______ _______ _______ _____ _____    ______ ____
ROOT
ATOM      1  N   UNL     1      -0.193  10.716  21.044  0.00  0.00    +0.000 N 
ATOM      2  C   UNL     1      -0.086   9.780  22.039  0.00  0.00    +0.000 A 
ATOM      3  N   UNL     1       0.629   8.745  21.661  0.00  0.00    +0.000 NA
ATOM      4  C   UNL     1       1.048   9.056  20.381  0.00  0.00    +0.000 A 
ATOM      5  C   UNL     1       1.877   8.366  19.475  0.00  0.00    +0.000 A 
ATOM      6  N   UNL     1       2.470   7.159  19.840  0.00  0.00    +0.000 N 
ATOM      7  N   UNL     1       2.115   8.953  18.268  0.00  0.00    +0.000 NA
ATOM      8  C   UNL     1       1.563  10.160  18.017  0.00  0.00    +0.000 A 
ATOM      9  N   UNL     1       0.757  10.901  18.808  0.00  0.00    +0.000 NA
ATOM     10  C   UNL     1       0.544  10.280  19.978  0.00  0.00    +0.000 A 
ATOM     11  H   UNL     1       2.022   6.791  20.676  0.00  0.00    +0.000 HD
ENDROOT
BRANCH   1  12
ATOM     12  C   UNL     1      -0.884  11.981  21.154  0.00  0.00    +0.000 C 
BRANCH  12  14
ATOM     13  N   UNL     1       0.299  13.945  20.186  0.00  0.00    +0.000 N 
ATOM     14  C   UNL     1       0.004  13.200  21.309  0.00  0.00    +0.000 C 
ATOM     15  O   UNL     1       0.354  13.561  22.435  0.00  0.00    +0.000 OA
ATOM     16  H   UNL     1       0.101  13.592  19.260  0.00  0.00    +0.000 HD
BRANCH  13  18
ATOM     17  C   UNL     1       0.244  16.378  19.749  0.00  0.00    +0.000 C 
ATOM     18  C   UNL     1       1.056  15.189  20.286  0.00  0.00    +0.000 C 
BRANCH  18  19
ATOM     19  C   UNL     1       2.394  15.110  19.554  0.00  0.00    +0.000 A 
ATOM     20  C   UNL     1       2.424  15.421  18.177  0.00  0.00    +0.000 A 
ATOM     21  C   UNL     1       3.627  15.527  17.490  0.00  0.00    +0.000 A 
ATOM     22  C   UNL     1       4.826  15.363  18.172  0.00  0.00    +0.000 A 
ATOM     23  C   UNL     1       4.842  15.063  19.541  0.00  0.00    +0.000 A 
ATOM     24  C   UNL     1       6.072  14.975  20.214  0.00  0.00    +0.000 A 
ATOM     25  C   UNL     1       6.129  14.665  21.571  0.00  0.00    +0.000 A 
ATOM     26  C   UNL     1       4.959  14.392  22.259  0.00  0.00    +0.000 A 
ATOM     27  C   UNL     1       3.727  14.489  21.606  0.00  0.00    +0.000 A 
ATOM     28  C   UNL     1       3.623  14.874  20.246  0.00  0.00    +0.000 A 
ENDBRANCH  18  19
ENDBRANCH  13  18
ENDBRANCH  12  14
ENDBRANCH   1  12
BRANCH   6  29
ATOM     29  C   UNL     1       2.725   6.176  18.807  0.00  0.00    +0.000 C 
BRANCH  29  30
ATOM     30  C   UNL     1       2.092   4.846  19.151  0.00  0.00    +0.000 A 
ATOM     31  C   UNL     1       1.746   4.544  20.476  0.00  0.00    +0.000 A 
ATOM     32  C   UNL     1       1.134   3.329  20.788  0.00  0.00    +0.000 A 
ATOM     33  C   UNL     1       0.873   2.397  19.783  0.00  0.00    +0.000 A 
ATOM     34  C   UNL     1       1.234   2.676  18.469  0.00  0.00    +0.000 A 
ATOM     35  C   UNL     1       1.843   3.891  18.151  0.00  0.00    +0.000 A 
ENDBRANCH  29  30
ENDBRANCH   6  29
TORSDOF 6
ENDMDL
MODEL 6
REMARK VINA RESULT:      -8.0      3.001      4.957
REMARK  Name = 
REMARK  7 active torsions:
REMARK  status: ('A' for Active; 'I' for Inactive)
REMARK    1  A    between atoms: C_1  and  C_2
REMARK    2  A    between atoms: C_2  and  N_3
REMARK    3  A    between atoms: C_2  and  C_24
REMARK    4  A    between atoms: C_4  and  C_6
REMARK    5  A    between atoms: C_6  and  N_7
REMARK    6  A    between atoms: N_12  and  C_13
REMARK    7  A    between atoms: C_13  and  C_14
REMARK                            x       y       z     vdW  Elec       q    Type
REMARK                         _______ _______ _______ _____ _____    ______ ____
ROOT
ATOM      1  N   UNL     1       0.158  12.069  21.124  0.00  0.00    +0.000 N 
ATOM      2  C   UNL     1       0.385  12.137  19.774  0.00  0.00    +0.000 A 
ATOM      3  N   UNL     1       0.898  11.021  19.308  0.00  0.00    +0.000 NA
ATOM      4  C   UNL     1       0.949  10.175  20.401  0.00  0.00    +0.000 A 
ATOM      5  C   UNL     1       1.356   8.833  20.525  0.00  0.00    +0.000 A 
ATOM      6  N   UNL     1       1.765   8.113  19.404  0.00  0.00    +0.000 N 
ATOM      7  N   UNL     1       1.277   8.263  21.760  0.00  0.00    +0.000 NA
ATOM      8  C   UNL     1       0.800   9.005  22.784  0.00  0.00    +0.000 A 
ATOM      9  N   UNL     1       0.389  10.292  22.775  0.00  0.00    +0.000 NA
ATOM     10  C   UNL     1       0.494  10.811  21.542  0.00  0.00    +0.000 A 
ATOM     11  H   UNL     1       1.948   8.749  18.631  0.00  0.00    +0.000 HD
ENDROOT
BRANCH   1  12
ATOM     12  C   UNL     1      -0.429  13.117  21.929  0.00  0.00    +0.000 C 
BRANCH  12  14
ATOM     13  N   UNL     1      -2.828  12.872  21.313  0.00  0.00    +0.000 N 
ATOM     14  C   UNL     1      -1.727  13.698  21.402  0.00  0.00    +0.000 C 
ATOM     15  O   UNL     1      -1.804  14.905  21.166  0.00  0.00    +0.000 OA
ATOM     16  H   UNL     1      -2.737  11.869  21.404  0.00  0.00    +0.000 HD
BRANCH  13  18
ATOM     17  C   UNL     1      -5.001  13.705  22.147  0.00  0.00    +0.000 C 
ATOM     18  C   UNL     1      -4.132  13.396  20.919  0.00  0.00    +0.000 C 
BRANCH  18  19
ATOM     19  C   UNL     1      -4.880  12.442  19.989  0.00  0.00    +0.000 A 
ATOM     20  C   UNL     1      -6.258  12.235  20.210  0.00  0.00    +0.000 A 
ATOM     21  C   UNL     1      -7.030  11.512  19.309  0.00  0.00    +0.000 A 
ATOM     22  C   UNL     1      -6.450  11.014  18.149  0.00  0.00    +0.000 A 
ATOM     23  C   UNL     1      -5.087  11.204  17.887  0.00  0.00    +0.000 A 
ATOM     24  C   UNL     1      -4.548  10.750  16.671  0.00  0.00    +0.000 A 
ATOM     25  C   UNL     1      -3.196  10.909  16.379  0.00  0.00    +0.000 A 
ATOM     26  C   UNL     1      -2.356  11.481  17.321  0.00  0.00    +0.000 A 
ATOM     27  C   UNL     1      -2.880  11.951  18.528  0.00  0.00    +0.000 A 
ATOM     28  C   UNL     1      -4.263  11.874  18.831  0.00  0.00    +0.000 A 
ENDBRANCH  18  19
ENDBRANCH  13  18
ENDBRANCH  12  14
ENDBRANCH   1  12
BRANCH   6  29
ATOM     29  C   UNL     1       2.755   7.069  19.577  0.00  0.00    +0.000 C 
BRANCH  29  30
ATOM     30  C   UNL     1       2.137   5.698  19.413  0.00  0.00    +0.000 A 
ATOM     31  C   UNL     1       1.605   5.020  20.518  0.00  0.00    +0.000 A 
ATOM     32  C   UNL     1       1.008   3.768  20.361  0.00  0.00    +0.000 A 
ATOM     33  C   UNL     1       0.947   3.175  19.100  0.00  0.00    +0.000 A 
ATOM     34  C   UNL     1       1.493   3.828  17.999  0.00  0.00    +0.000 A 
ATOM     35  C   UNL     1       2.088   5.082  18.151  0.00  0.00    +0.000 A 
ENDBRANCH  29  30
ENDBRANCH   6  29
TORSDOF 6
ENDMDL
MODEL 7
REMARK VINA RESULT:      -7.9      3.757      9.786
REMARK  Name = 
REMARK  7 active torsions:
REMARK  status: ('A' for Active; 'I' for Inactive)
REMARK    1  A    between atoms: C_1  and  C_2
REMARK    2  A    between atoms: C_2  and  N_3
REMARK    3  A    between atoms: C_2  and  C_24
REMARK    4  A    between atoms: C_4  and  C_6
REMARK    5  A    between atoms: C_6  and  N_7
REMARK    6  A    between atoms: N_12  and  C_13
REMARK    7  A    between atoms: C_13  and  C_14
REMARK                            x       y       z     vdW  Elec       q    Type
REMARK                         _______ _______ _______ _____ _____    ______ ____
ROOT
ATOM      1  N   UNL     1       1.228   8.311  20.456  0.00  0.00    +0.000 N 
ATOM      2  C   UNL     1       1.424   8.931  19.251  0.00  0.00    +0.000 A 
ATOM      3  N   UNL     1       0.774  10.070  19.176  0.00  0.00    +0.000 NA
ATOM      4  C   UNL     1       0.177  10.216  20.415  0.00  0.00    +0.000 A 
ATOM      5  C   UNL     1      -0.609  11.250  20.957  0.00  0.00    +0.000 A 
ATOM      6  N   UNL     1      -0.866  12.403  20.218  0.00  0.00    +0.000 N 
ATOM      7  N   UNL     1      -1.050  11.100  22.238  0.00  0.00    +0.000 NA
ATOM      8  C   UNL     1      -0.696   9.986  22.916  0.00  0.00    +0.000 A 
ATOM      9  N   UNL     1       0.045   8.939  22.492  0.00  0.00    +0.000 NA
ATOM     10  C   UNL     1       0.447   9.128  21.225  0.00  0.00    +0.000 A 
ATOM     11  H   UNL     1      -0.634  12.247  19.239  0.00  0.00    +0.000 HD
ENDROOT
BRANCH   1  12
ATOM     12  C   UNL     1       1.830   7.061  20.863  0.00  0.00    +0.000 C 
BRANCH  12  14
ATOM     13  N   UNL     1       3.309   5.208  20.106  0.00  0.00    +0.000 N 
ATOM     14  C   UNL     1       2.491   6.262  19.757  0.00  0.00    +0.000 C 
ATOM     15  O   UNL     1       2.207   6.497  18.581  0.00  0.00    +0.000 OA
ATOM     16  H   UNL     1       3.623   5.085  21.060  0.00  0.00    +0.000 HD
BRANCH  13  18
ATOM     17  C   UNL     1       4.105   2.915  19.636  0.00  0.00    +0.000 C 
ATOM     18  C   UNL     1       3.887   4.334  19.090  0.00  0.00    +0.000 C 
BRANCH  18  19
ATOM     19  C   UNL     1       5.202   4.879  18.539  0.00  0.00    +0.000 A 
ATOM     20  C   UNL     1       6.153   5.385  19.453  0.00  0.00    +0.000 A 
ATOM     21  C   UNL     1       7.429   5.744  19.037  0.00  0.00    +0.000 A 
ATOM     22  C   UNL     1       7.795   5.570  17.708  0.00  0.00    +0.000 A 
ATOM     23  C   UNL     1       6.886   5.062  16.771  0.00  0.00    +0.000 A 
ATOM     24  C   UNL     1       7.312   4.831  15.452  0.00  0.00    +0.000 A 
ATOM     25  C   UNL     1       6.434   4.340  14.488  0.00  0.00    +0.000 A 
ATOM     26  C   UNL     1       5.107   4.120  14.821  0.00  0.00    +0.000 A 
ATOM     27  C   UNL     1       4.673   4.332  16.132  0.00  0.00    +0.000 A 
ATOM     28  C   UNL     1       5.553   4.760  17.158  0.00  0.00    +0.000 A 
ENDBRANCH  18  19
ENDBRANCH  13  18
ENDBRANCH  12  14
ENDBRANCH   1  12
BRANCH   6  29
ATOM     29  C   UNL     1      -2.116  13.101  20.440  0.00  0.00    +0.000 C 
BRANCH  29  30
ATOM     30  C   UNL     1      -3.245  12.462  19.662  0.00  0.00    +0.000 A 
ATOM     31  C   UNL     1      -2.982  11.755  18.480  0.00  0.00    +0.000 A 
ATOM     32  C   UNL     1      -4.020  11.139  17.778  0.00  0.00    +0.000 A 
ATOM     33  C   UNL     1      -5.332  11.234  18.242  0.00  0.00    +0.000 A 
ATOM     34  C   UNL     1      -5.608  11.952  19.401  0.00  0.00    +0.000 A 
ATOM     35  C   UNL     1      -4.572  12.567  20.108  0.00  0.00    +0.000 A 
ENDBRANCH  29  30
ENDBRANCH   6  29
TORSDOF 6
ENDMDL
MODEL 8
REMARK VINA RESULT:      -7.9      3.490     10.323
REMARK  Name = 
REMARK  7 active torsions:
REMARK  status: ('A' for Active; 'I' for Inactive)
REMARK    1  A    between atoms: C_1  and  C_2
REMARK    2  A    between atoms: C_2  and  N_3
REMARK    3  A    between atoms: C_2  and  C_24
REMARK    4  A    between atoms: C_4  and  C_6
REMARK    5  A    between atoms: C_6  and  N_7
REMARK    6  A    between atoms: N_12  and  C_13
REMARK    7  A    between atoms: C_13  and  C_14
REMARK                            x       y       z     vdW  Elec       q    Type
REMARK                         _______ _______ _______ _____ _____    ______ ____
ROOT
ATOM      1  N   UNL     1       0.463   9.933  18.258  0.00  0.00    +0.000 N 
ATOM      2  C   UNL     1      -0.789   9.668  17.771  0.00  0.00    +0.000 A 
ATOM      3  N   UNL     1      -1.717  10.332  18.423  0.00  0.00    +0.000 NA
ATOM      4  C   UNL     1      -1.022  11.103  19.336  0.00  0.00    +0.000 A 
ATOM      5  C   UNL     1      -1.457  12.052  20.280  0.00  0.00    +0.000 A 
ATOM      6  N   UNL     1      -2.807  12.385  20.375  0.00  0.00    +0.000 N 
ATOM      7  N   UNL     1      -0.507  12.664  21.041  0.00  0.00    +0.000 NA
ATOM      8  C   UNL     1       0.790  12.341  20.838  0.00  0.00    +0.000 A 
ATOM      9  N   UNL     1       1.311  11.447  19.969  0.00  0.00    +0.000 NA
ATOM     10  C   UNL     1       0.339  10.867  19.249  0.00  0.00    +0.000 A 
ATOM     11  H   UNL     1      -3.370  11.696  19.883  0.00  0.00    +0.000 HD
ENDROOT
BRANCH   1  12
ATOM     12  C   UNL     1       1.698   9.389  17.738  0.00  0.00    +0.000 C 
BRANCH  12  14
ATOM     13  N   UNL     1       3.219   7.425  17.877  0.00  0.00    +0.000 N 
ATOM     14  C   UNL     1       2.258   8.200  18.492  0.00  0.00    +0.000 C 
ATOM     15  O   UNL     1       1.929   8.010  19.665  0.00  0.00    +0.000 OA
ATOM     16  H   UNL     1       3.409   7.516  16.888  0.00  0.00    +0.000 HD
BRANCH  13  18
ATOM     17  C   UNL     1       5.363   6.238  18.212  0.00  0.00    +0.000 C 
ATOM     18  C   UNL     1       3.876   6.334  18.590  0.00  0.00    +0.000 C 
BRANCH  18  19
ATOM     19  C   UNL     1       3.197   4.989  18.340  0.00  0.00    +0.000 A 
ATOM     20  C   UNL     1       3.280   4.426  17.048  0.00  0.00    +0.000 A 
ATOM     21  C   UNL     1       2.828   3.137  16.794  0.00  0.00    +0.000 A 
ATOM     22  C   UNL     1       2.318   2.369  17.834  0.00  0.00    +0.000 A 
ATOM     23  C   UNL     1       2.226   2.886  19.133  0.00  0.00    +0.000 A 
ATOM     24  C   UNL     1       1.774   2.058  20.174  0.00  0.00    +0.000 A 
ATOM     25  C   UNL     1       1.656   2.538  21.476  0.00  0.00    +0.000 A 
ATOM     26  C   UNL     1       1.944   3.867  21.743  0.00  0.00    +0.000 A 
ATOM     27  C   UNL     1       2.408   4.698  20.720  0.00  0.00    +0.000 A 
ATOM     28  C   UNL     1       2.612   4.227  19.399  0.00  0.00    +0.000 A 
ENDBRANCH  18  19
ENDBRANCH  13  18
ENDBRANCH  12  14
ENDBRANCH   1  12
BRANCH   6  29
ATOM     29  C   UNL     1      -3.329  12.785  21.666  0.00  0.00    +0.000 C 
BRANCH  29  30
ATOM     30  C   UNL     1      -4.814  13.063  21.592  0.00  0.00    +0.000 A 
ATOM     31  C   UNL     1      -5.387  14.081  22.367  0.00  0.00    +0.000 A 
ATOM     32  C   UNL     1      -6.752  14.358  22.276  0.00  0.00    +0.000 A 
ATOM     33  C   UNL     1      -7.562  13.613  21.418  0.00  0.00    +0.000 A 
ATOM     34  C   UNL     1      -7.009  12.585  20.661  0.00  0.00    +0.000 A 
ATOM     35  C   UNL     1      -5.644  12.307  20.747  0.00  0.00    +0.000 A 
ENDBRANCH  29  30
ENDBRANCH   6  29
TORSDOF 6
ENDMDL
MODEL 9
REMARK VINA RESULT:      -7.9      3.416      9.569
REMARK  Name = 
REMARK  7 active torsions:
REMARK  status: ('A' for Active; 'I' for Inactive)
REMARK    1  A    between atoms: C_1  and  C_2
REMARK    2  A    between atoms: C_2  and  N_3
REMARK    3  A    between atoms: C_2  and  C_24
REMARK    4  A    between atoms: C_4  and  C_6
REMARK    5  A    between atoms: C_6  and  N_7
REMARK    6  A    between atoms: N_12  and  C_13
REMARK    7  A    between atoms: C_13  and  C_14
REMARK                            x       y       z     vdW  Elec       q    Type
REMARK                         _______ _______ _______ _____ _____    ______ ____
ROOT
ATOM      1  N   UNL     1       1.517   7.366  20.410  0.00  0.00    +0.000 N 
ATOM      2  C   UNL     1       1.941   7.799  19.182  0.00  0.00    +0.000 A 
ATOM      3  N   UNL     1       1.667   9.070  18.992  0.00  0.00    +0.000 NA
ATOM      4  C   UNL     1       1.090   9.487  20.177  0.00  0.00    +0.000 A 
ATOM      5  C   UNL     1       0.629  10.748  20.599  0.00  0.00    +0.000 A 
ATOM      6  N   UNL     1       0.762  11.861  19.771  0.00  0.00    +0.000 N 
ATOM      7  N   UNL     1       0.111  10.840  21.856  0.00  0.00    +0.000 NA
ATOM      8  C   UNL     1       0.084   9.730  22.626  0.00  0.00    +0.000 A 
ATOM      9  N   UNL     1       0.493   8.480  22.320  0.00  0.00    +0.000 NA
ATOM     10  C   UNL     1       0.986   8.437  21.073  0.00  0.00    +0.000 A 
ATOM     11  H   UNL     1       0.977  11.564  18.822  0.00  0.00    +0.000 HD
ENDROOT
BRANCH   1  12
ATOM     12  C   UNL     1       1.698   6.031  20.936  0.00  0.00    +0.000 C 
BRANCH  12  14
ATOM     13  N   UNL     1       3.410   4.669  19.749  0.00  0.00    +0.000 N 
ATOM     14  C   UNL     1       2.075   4.972  19.918  0.00  0.00    +0.000 C 
ATOM     15  O   UNL     1       1.190   4.335  19.343  0.00  0.00    +0.000 OA
ATOM     16  H   UNL     1       4.132   5.259  20.139  0.00  0.00    +0.000 HD
BRANCH  13  18
ATOM     17  C   UNL     1       4.526   2.464  19.654  0.00  0.00    +0.000 C 
ATOM     18  C   UNL     1       3.830   3.585  18.867  0.00  0.00    +0.000 C 
BRANCH  18  19
ATOM     19  C   UNL     1       4.749   4.073  17.750  0.00  0.00    +0.000 A 
ATOM     20  C   UNL     1       4.378   3.811  16.413  0.00  0.00    +0.000 A 
ATOM     21  C   UNL     1       5.080   4.365  15.350  0.00  0.00    +0.000 A 
ATOM     22  C   UNL     1       6.143   5.223  15.599  0.00  0.00    +0.000 A 
ATOM     23  C   UNL     1       6.539   5.518  16.911  0.00  0.00    +0.000 A 
ATOM     24  C   UNL     1       7.571   6.446  17.127  0.00  0.00    +0.000 A 
ATOM     25  C   UNL     1       8.002   6.756  18.415  0.00  0.00    +0.000 A 
ATOM     26  C   UNL     1       7.437   6.103  19.499  0.00  0.00    +0.000 A 
ATOM     27  C   UNL     1       6.400   5.189  19.300  0.00  0.00    +0.000 A 
ATOM     28  C   UNL     1       5.884   4.903  18.011  0.00  0.00    +0.000 A 
ENDBRANCH  18  19
ENDBRANCH  13  18
ENDBRANCH  12  14
ENDBRANCH   1  12
BRANCH   6  29
ATOM     29  C   UNL     1      -0.228  12.914  19.867  0.00  0.00    +0.000 C 
BRANCH  29  30
ATOM     30  C   UNL     1      -1.554  12.471  19.290  0.00  0.00    +0.000 A 
ATOM     31  C   UNL     1      -1.617  11.886  18.017  0.00  0.00    +0.000 A 
ATOM     32  C   UNL     1      -2.837  11.449  17.498  0.00  0.00    +0.000 A 
ATOM     33  C   UNL     1      -4.008  11.603  18.239  0.00  0.00    +0.000 A 
ATOM     34  C   UNL     1      -3.962  12.203  19.493  0.00  0.00    +0.000 A 
ATOM     35  C   UNL     1      -2.744  12.638  20.018  0.00  0.00    +0.000 A 
ENDBRANCH  29  30
ENDBRANCH   6  29
TORSDOF 6
ENDMDL
