MODEL 1
REMARK VINA RESULT:      -7.8      0.000      0.000
REMARK  Name = 
REMARK  5 active torsions:
REMARK  status: ('A' for Active; 'I' for Inactive)
REMARK    1  A    between atoms: C_1  and  S_2
REMARK    2  A    between atoms: S_2  and  C_3
REMARK    3  A    between atoms: C_8  and  N_9
REMARK    4  A    between atoms: C_10  and  C_12
REMARK    5  A    between atoms: C_12  and  C_14
REMARK                            x       y       z     vdW  Elec       q    Type
REMARK                         _______ _______ _______ _____ _____    ______ ____
ROOT
ATOM      1  N   UNL     1       3.162   5.689  18.038  0.00  0.00    +0.000 N 
ATOM      2  C   UNL     1       4.492   5.707  17.582  0.00  0.00    +0.000 C 
ATOM      3  O   UNL     1       5.321   6.589  17.768  0.00  0.00    +0.000 OA
ATOM      4  H   UNL     1       2.617   4.860  17.839  0.00  0.00    +0.000 HD
ENDROOT
BRANCH   1  10
ATOM      5  C   UNL     1       2.097   6.496  20.120  0.00  0.00    +0.000 A 
ATOM      6  C   UNL     1       1.504   7.531  20.863  0.00  0.00    +0.000 A 
ATOM      7  C   UNL     1       1.220   8.757  20.280  0.00  0.00    +0.000 A 
ATOM      8  C   UNL     1       1.527   8.953  18.939  0.00  0.00    +0.000 A 
ATOM      9  C   UNL     1       2.164   7.948  18.196  0.00  0.00    +0.000 A 
ATOM     10  C   UNL     1       2.483   6.714  18.774  0.00  0.00    +0.000 A 
BRANCH   5  12
ATOM     11  C   UNL     1       0.824   4.092  20.183  0.00  0.00    +0.000 C 
ATOM     12  S   UNL     1       2.275   4.900  20.923  0.00  0.00    +0.000 S 
ENDBRANCH   5  12
ENDBRANCH   1  10
BRANCH   2  13
ATOM     13  C   UNL     1       4.884   4.491  16.734  0.00  0.00    +0.000 C 
ATOM     14  O   UNL     1       4.404   3.428  17.133  0.00  0.00    +0.000 OA
BRANCH  13  15
ATOM     15  C   UNL     1       5.893   4.511  15.656  0.00  0.00    +0.000 A 
ATOM     16  C   UNL     1       7.207   4.822  15.968  0.00  0.00    +0.000 A 
ATOM     17  N   UNL     1       7.711   5.394  14.833  0.00  0.00    +0.000 N 
ATOM     18  C   UNL     1       7.150   4.744  13.774  0.00  0.00    +0.000 A 
ATOM     19  C   UNL     1       7.628   4.630  12.461  0.00  0.00    +0.000 A 
ATOM     20  C   UNL     1       6.883   3.857  11.579  0.00  0.00    +0.000 A 
ATOM     21  C   UNL     1       5.671   3.302  11.987  0.00  0.00    +0.000 A 
ATOM     22  C   UNL     1       5.166   3.495  13.292  0.00  0.00    +0.000 A 
ATOM     23  C   UNL     1       5.943   4.194  14.239  0.00  0.00    +0.000 A 
ATOM     24  H   UNL     1       8.452   6.072  14.791  0.00  0.00    +0.000 HD
ENDBRANCH  13  15
ENDBRANCH   2  13
TORSDOF 4
ENDMDL
MODEL 2
REMARK VINA RESULT:      -7.8      1.107      1.122
REMARK  Name = 
REMARK  5 active torsions:
REMARK  status: ('A' for Active; 'I' for Inactive)
REMARK    1  A    between atoms: C_1  and  S_2
REMARK    2  A    between atoms: S_2  and  C_3
REMARK    3  A    between atoms: C_8  and  N_9
REMARK    4  A    between atoms: C_10  and  C_12
REMARK    5  A    between atoms: C_12  and  C_14
REMARK                            x       y       z     vdW  Elec       q    Type
REMARK                         _______ _______ _______ _____ _____    ______ ____
ROOT
ATOM      1  N   UNL     1       3.772   5.771  17.915  0.00  0.00    +0.000 N 
ATOM      2  C   UNL     1       3.366   4.562  17.324  0.00  0.00    +0.000 C 
ATOM      3  O   UNL     1       2.216   4.169  17.171  0.00  0.00    +0.000 OA
ATOM      4  H   UNL     1       4.764   5.971  17.923  0.00  0.00    +0.000 HD
ENDROOT
BRANCH   1  10
ATOM      5  C   UNL     1       2.393   6.593  19.798  0.00  0.00    +0.000 A 
ATOM      6  C   UNL     1       1.640   7.614  20.401  0.00  0.00    +0.000 A 
ATOM      7  C   UNL     1       1.350   8.787  19.718  0.00  0.00    +0.000 A 
ATOM      8  C   UNL     1       1.814   8.942  18.418  0.00  0.00    +0.000 A 
ATOM      9  C   UNL     1       2.609   7.952  17.818  0.00  0.00    +0.000 A 
ATOM     10  C   UNL     1       2.934   6.775  18.501  0.00  0.00    +0.000 A 
BRANCH   5  12
ATOM     11  C   UNL     1       0.928   4.369  20.355  0.00  0.00    +0.000 C 
ATOM     12  S   UNL     1       2.575   5.055  20.706  0.00  0.00    +0.000 S 
ENDBRANCH   5  12
ENDBRANCH   1  10
BRANCH   2  13
ATOM     13  C   UNL     1       4.521   3.658  16.879  0.00  0.00    +0.000 C 
ATOM     14  O   UNL     1       4.538   2.558  17.434  0.00  0.00    +0.000 OA
BRANCH  13  15
ATOM     15  C   UNL     1       5.642   4.091  16.020  0.00  0.00    +0.000 A 
ATOM     16  C   UNL     1       6.798   4.574  16.614  0.00  0.00    +0.000 A 
ATOM     17  N   UNL     1       7.318   5.454  15.705  0.00  0.00    +0.000 N 
ATOM     18  C   UNL     1       7.069   4.943  14.465  0.00  0.00    +0.000 A 
ATOM     19  C   UNL     1       7.740   5.196  13.261  0.00  0.00    +0.000 A 
ATOM     20  C   UNL     1       7.315   4.496  12.138  0.00  0.00    +0.000 A 
ATOM     21  C   UNL     1       6.210   3.649  12.218  0.00  0.00    +0.000 A 
ATOM     22  C   UNL     1       5.497   3.469  13.424  0.00  0.00    +0.000 A 
ATOM     23  C   UNL     1       5.959   4.090  14.603  0.00  0.00    +0.000 A 
ATOM     24  H   UNL     1       7.890   6.253  15.916  0.00  0.00    +0.000 HD
ENDBRANCH  13  15
ENDBRANCH   2  13
TORSDOF 4
ENDMDL
MODEL 3
REMARK VINA RESULT:      -7.6      2.884      8.463
REMARK  Name = 
REMARK  5 active torsions:
REMARK  status: ('A' for Active; 'I' for Inactive)
REMARK    1  A    between atoms: C_1  and  S_2
REMARK    2  A    between atoms: S_2  and  C_3
REMARK    3  A    between atoms: C_8  and  N_9
REMARK    4  A    between atoms: C_10  and  C_12
REMARK    5  A    between atoms: C_12  and  C_14
REMARK                            x       y       z     vdW  Elec       q    Type
REMARK                         _______ _______ _______ _____ _____    ______ ____
ROOT
ATOM      1  N   UNL     1       2.217   6.281  17.775  0.00  0.00    +0.000 N 
ATOM      2  C   UNL     1       2.276   7.203  18.834  0.00  0.00    +0.000 C 
ATOM      3  O   UNL     1       2.576   6.967  19.998  0.00  0.00    +0.000 OA
ATOM      4  H   UNL     1       1.998   6.646  16.857  0.00  0.00    +0.000 HD
ENDROOT
BRANCH   1  10
ATOM      5  C   UNL     1       3.708   4.330  17.472  0.00  0.00    +0.000 A 
ATOM      6  C   UNL     1       3.957   2.954  17.614  0.00  0.00    +0.000 A 
ATOM      7  C   UNL     1       2.962   2.088  18.044  0.00  0.00    +0.000 A 
ATOM      8  C   UNL     1       1.703   2.598  18.334  0.00  0.00    +0.000 A 
ATOM      9  C   UNL     1       1.451   3.976  18.246  0.00  0.00    +0.000 A 
ATOM     10  C   UNL     1       2.450   4.868  17.839  0.00  0.00    +0.000 A 
BRANCH   5  12
ATOM     11  C   UNL     1       5.697   4.083  15.632  0.00  0.00    +0.000 C 
ATOM     12  S   UNL     1       5.011   5.336  16.757  0.00  0.00    +0.000 S 
ENDBRANCH   5  12
ENDBRANCH   1  10
BRANCH   2  13
ATOM     13  C   UNL     1       1.875   8.632  18.449  0.00  0.00    +0.000 C 
ATOM     14  O   UNL     1       2.525   9.098  17.511  0.00  0.00    +0.000 OA
BRANCH  13  15
ATOM     15  C   UNL     1       0.947   9.480  19.224  0.00  0.00    +0.000 A 
ATOM     16  C   UNL     1       0.126  10.371  18.549  0.00  0.00    +0.000 A 
ATOM     17  N   UNL     1      -0.081  11.395  19.432  0.00  0.00    +0.000 N 
ATOM     18  C   UNL     1      -0.156  10.841  20.676  0.00  0.00    +0.000 A 
ATOM     19  C   UNL     1      -0.772  11.351  21.827  0.00  0.00    +0.000 A 
ATOM     20  C   UNL     1      -0.751  10.553  22.965  0.00  0.00    +0.000 A 
ATOM     21  C   UNL     1      -0.063   9.340  22.956  0.00  0.00    +0.000 A 
ATOM     22  C   UNL     1       0.620   8.880  21.808  0.00  0.00    +0.000 A 
ATOM     23  C   UNL     1       0.538   9.620  20.610  0.00  0.00    +0.000 A 
ATOM     24  H   UNL     1      -0.274  12.352  19.193  0.00  0.00    +0.000 HD
ENDBRANCH  13  15
ENDBRANCH   2  13
TORSDOF 4
ENDMDL
MODEL 4
REMARK VINA RESULT:      -7.5      1.058      1.122
REMARK  Name = 
REMARK  5 active torsions:
REMARK  status: ('A' for Active; 'I' for Inactive)
REMARK    1  A    between atoms: C_1  and  S_2
REMARK    2  A    between atoms: S_2  and  C_3
REMARK    3  A    between atoms: C_8  and  N_9
REMARK    4  A    between atoms: C_10  and  C_12
REMARK    5  A    between atoms: C_12  and  C_14
REMARK                            x       y       z     vdW  Elec       q    Type
REMARK                         _______ _______ _______ _____ _____    ______ ____
ROOT
ATOM      1  N   UNL     1       3.153   5.128  17.927  0.00  0.00    +0.000 N 
ATOM      2  C   UNL     1       4.365   4.436  18.094  0.00  0.00    +0.000 C 
ATOM      3  O   UNL     1       5.077   4.432  19.091  0.00  0.00    +0.000 OA
ATOM      4  H   UNL     1       2.659   4.989  17.054  0.00  0.00    +0.000 HD
ENDROOT
BRANCH   1  10
ATOM      5  C   UNL     1       1.788   5.482  19.960  0.00  0.00    +0.000 A 
ATOM      6  C   UNL     1       1.234   6.345  20.921  0.00  0.00    +0.000 A 
ATOM      7  C   UNL     1       1.328   7.723  20.781  0.00  0.00    +0.000 A 
ATOM      8  C   UNL     1       1.977   8.246  19.670  0.00  0.00    +0.000 A 
ATOM      9  C   UNL     1       2.578   7.398  18.726  0.00  0.00    +0.000 A 
ATOM     10  C   UNL     1       2.517   6.006  18.864  0.00  0.00    +0.000 A 
BRANCH   5  12
ATOM     11  C   UNL     1       2.250   3.513  21.780  0.00  0.00    +0.000 C 
ATOM     12  S   UNL     1       1.473   3.725  20.150  0.00  0.00    +0.000 S 
ENDBRANCH   5  12
ENDBRANCH   1  10
BRANCH   2  13
ATOM     13  C   UNL     1       4.820   3.654  16.857  0.00  0.00    +0.000 C 
ATOM     14  O   UNL     1       4.348   2.517  16.783  0.00  0.00    +0.000 OA
BRANCH  13  15
ATOM     15  C   UNL     1       5.874   4.100  15.923  0.00  0.00    +0.000 A 
ATOM     16  C   UNL     1       7.050   4.626  16.436  0.00  0.00    +0.000 A 
ATOM     17  N   UNL     1       7.488   5.501  15.480  0.00  0.00    +0.000 N 
ATOM     18  C   UNL     1       7.178   4.958  14.268  0.00  0.00    +0.000 A 
ATOM     19  C   UNL     1       7.767   5.205  13.020  0.00  0.00    +0.000 A 
ATOM     20  C   UNL     1       7.294   4.471  11.939  0.00  0.00    +0.000 A 
ATOM     21  C   UNL     1       6.221   3.596  12.103  0.00  0.00    +0.000 A 
ATOM     22  C   UNL     1       5.588   3.421  13.354  0.00  0.00    +0.000 A 
ATOM     23  C   UNL     1       6.104   4.079  14.489  0.00  0.00    +0.000 A 
ATOM     24  H   UNL     1       8.049   6.319  15.641  0.00  0.00    +0.000 HD
ENDBRANCH  13  15
ENDBRANCH   2  13
TORSDOF 4
ENDMDL
MODEL 5
REMARK VINA RESULT:      -7.4      3.278      8.156
REMARK  Name = 
REMARK  5 active torsions:
REMARK  status: ('A' for Active; 'I' for Inactive)
REMARK    1  A    between atoms: C_1  and  S_2
REMARK    2  A    between atoms: S_2  and  C_3
REMARK    3  A    between atoms: C_8  and  N_9
REMARK    4  A    between atoms: C_10  and  C_12
REMARK    5  A    between atoms: C_12  and  C_14
REMARK                            x       y       z     vdW  Elec       q    Type
REMARK                         _______ _______ _______ _____ _____    ______ ____
ROOT
ATOM      1  N   UNL     1       2.808   6.960  18.719  0.00  0.00    +0.000 N 
ATOM      2  C   UNL     1       2.183   8.191  18.452  0.00  0.00    +0.000 C 
ATOM      3  O   UNL     1       2.201   8.810  17.395  0.00  0.00    +0.000 OA
ATOM      4  H   UNL     1       2.657   6.555  19.634  0.00  0.00    +0.000 HD
ENDROOT
BRANCH   1  10
ATOM      5  C   UNL     1       3.393   4.809  17.646  0.00  0.00    +0.000 A 
ATOM      6  C   UNL     1       4.151   4.079  16.714  0.00  0.00    +0.000 A 
ATOM      7  C   UNL     1       5.190   4.676  16.013  0.00  0.00    +0.000 A 
ATOM      8  C   UNL     1       5.478   6.015  16.245  0.00  0.00    +0.000 A 
ATOM      9  C   UNL     1       4.699   6.771  17.135  0.00  0.00    +0.000 A 
ATOM     10  C   UNL     1       3.632   6.194  17.831  0.00  0.00    +0.000 A 
BRANCH   5  12
ATOM     11  C   UNL     1       2.418   2.277  17.841  0.00  0.00    +0.000 C 
ATOM     12  S   UNL     1       2.182   3.906  18.614  0.00  0.00    +0.000 S 
ENDBRANCH   5  12
ENDBRANCH   1  10
BRANCH   2  13
ATOM     13  C   UNL     1       1.450   8.800  19.653  0.00  0.00    +0.000 C 
ATOM     14  O   UNL     1       1.634   8.193  20.710  0.00  0.00    +0.000 OA
BRANCH  13  15
ATOM     15  C   UNL     1       0.454   9.887  19.565  0.00  0.00    +0.000 A 
ATOM     16  C   UNL     1       0.593  10.995  20.385  0.00  0.00    +0.000 A 
ATOM     17  N   UNL     1      -0.683  11.448  20.582  0.00  0.00    +0.000 N 
ATOM     18  C   UNL     1      -1.363  11.248  19.417  0.00  0.00    +0.000 A 
ATOM     19  C   UNL     1      -2.510  11.903  18.948  0.00  0.00    +0.000 A 
ATOM     20  C   UNL     1      -2.976  11.544  17.689  0.00  0.00    +0.000 A 
ATOM     21  C   UNL     1      -2.359  10.512  16.983  0.00  0.00    +0.000 A 
ATOM     22  C   UNL     1      -1.253   9.808  17.508  0.00  0.00    +0.000 A 
ATOM     23  C   UNL     1      -0.697  10.211  18.740  0.00  0.00    +0.000 A 
ATOM     24  H   UNL     1      -1.014  11.950  21.387  0.00  0.00    +0.000 HD
ENDBRANCH  13  15
ENDBRANCH   2  13
TORSDOF 4
ENDMDL
MODEL 6
REMARK VINA RESULT:      -7.3      4.319      7.879
REMARK  Name = 
REMARK  5 active torsions:
REMARK  status: ('A' for Active; 'I' for Inactive)
REMARK    1  A    between atoms: C_1  and  S_2
REMARK    2  A    between atoms: S_2  and  C_3
REMARK    3  A    between atoms: C_8  and  N_9
REMARK    4  A    between atoms: C_10  and  C_12
REMARK    5  A    between atoms: C_12  and  C_14
REMARK                            x       y       z     vdW  Elec       q    Type
REMARK                         _______ _______ _______ _____ _____    ______ ____
ROOT
ATOM      1  N   UNL     1       2.265   6.319  18.758  0.00  0.00    +0.000 N 
ATOM      2  C   UNL     1       2.045   7.605  19.282  0.00  0.00    +0.000 C 
ATOM      3  O   UNL     1       1.958   7.911  20.465  0.00  0.00    +0.000 OA
ATOM      4  H   UNL     1       2.360   6.240  17.753  0.00  0.00    +0.000 HD
ENDROOT
BRANCH   1  10
ATOM      5  C   UNL     1       3.518   4.259  19.310  0.00  0.00    +0.000 A 
ATOM      6  C   UNL     1       3.673   3.098  20.087  0.00  0.00    +0.000 A 
ATOM      7  C   UNL     1       2.693   2.707  20.989  0.00  0.00    +0.000 A 
ATOM      8  C   UNL     1       1.546   3.479  21.115  0.00  0.00    +0.000 A 
ATOM      9  C   UNL     1       1.398   4.667  20.383  0.00  0.00    +0.000 A 
ATOM     10  C   UNL     1       2.387   5.092  19.489  0.00  0.00    +0.000 A 
BRANCH   5  12
ATOM     11  C   UNL     1       6.039   5.273  19.164  0.00  0.00    +0.000 C 
ATOM     12  S   UNL     1       4.765   4.589  18.061  0.00  0.00    +0.000 S 
ENDBRANCH   5  12
ENDBRANCH   1  10
BRANCH   2  13
ATOM     13  C   UNL     1       1.863   8.696  18.221  0.00  0.00    +0.000 C 
ATOM     14  O   UNL     1       2.656   8.615  17.280  0.00  0.00    +0.000 OA
BRANCH  13  15
ATOM     15  C   UNL     1       0.972   9.865  18.364  0.00  0.00    +0.000 A 
ATOM     16  C   UNL     1       1.510  11.074  18.777  0.00  0.00    +0.000 A 
ATOM     17  N   UNL     1       0.487  11.708  19.429  0.00  0.00    +0.000 N 
ATOM     18  C   UNL     1      -0.664  11.394  18.769  0.00  0.00    +0.000 A 
ATOM     19  C   UNL     1      -1.878  12.093  18.741  0.00  0.00    +0.000 A 
ATOM     20  C   UNL     1      -2.889  11.580  17.937  0.00  0.00    +0.000 A 
ATOM     21  C   UNL     1      -2.703  10.372  17.266  0.00  0.00    +0.000 A 
ATOM     22  C   UNL     1      -1.499   9.640  17.370  0.00  0.00    +0.000 A 
ATOM     23  C   UNL     1      -0.421  10.180  18.101  0.00  0.00    +0.000 A 
ATOM     24  H   UNL     1       0.585  12.381  20.169  0.00  0.00    +0.000 HD
ENDBRANCH  13  15
ENDBRANCH   2  13
TORSDOF 4
ENDMDL
MODEL 7
REMARK VINA RESULT:      -7.3      3.885      5.518
REMARK  Name = 
REMARK  5 active torsions:
REMARK  status: ('A' for Active; 'I' for Inactive)
REMARK    1  A    between atoms: C_1  and  S_2
REMARK    2  A    between atoms: S_2  and  C_3
REMARK    3  A    between atoms: C_8  and  N_9
REMARK    4  A    between atoms: C_10  and  C_12
REMARK    5  A    between atoms: C_12  and  C_14
REMARK                            x       y       z     vdW  Elec       q    Type
REMARK                         _______ _______ _______ _____ _____    ______ ____
ROOT
ATOM      1  N   UNL     1       1.047   9.297  19.816  0.00  0.00    +0.000 N 
ATOM      2  C   UNL     1       1.666   8.035  19.787  0.00  0.00    +0.000 C 
ATOM      3  O   UNL     1       1.668   7.197  20.681  0.00  0.00    +0.000 OA
ATOM      4  H   UNL     1       1.098   9.855  18.973  0.00  0.00    +0.000 HD
ENDROOT
BRANCH   1  10
ATOM      5  C   UNL     1      -0.381  11.100  20.727  0.00  0.00    +0.000 A 
ATOM      6  C   UNL     1      -1.149  11.633  21.776  0.00  0.00    +0.000 A 
ATOM      7  C   UNL     1      -1.173  11.026  23.024  0.00  0.00    +0.000 A 
ATOM      8  C   UNL     1      -0.420   9.877  23.229  0.00  0.00    +0.000 A 
ATOM      9  C   UNL     1       0.314   9.305  22.179  0.00  0.00    +0.000 A 
ATOM     10  C   UNL     1       0.329   9.887  20.906  0.00  0.00    +0.000 A 
BRANCH   5  12
ATOM     11  C   UNL     1      -1.712  11.286  18.361  0.00  0.00    +0.000 C 
ATOM     12  S   UNL     1      -0.292  12.047  19.204  0.00  0.00    +0.000 S 
ENDBRANCH   5  12
ENDBRANCH   1  10
BRANCH   2  13
ATOM     13  C   UNL     1       2.441   7.742  18.497  0.00  0.00    +0.000 C 
ATOM     14  O   UNL     1       2.396   8.654  17.669  0.00  0.00    +0.000 OA
BRANCH  13  15
ATOM     15  C   UNL     1       3.032   6.433  18.152  0.00  0.00    +0.000 A 
ATOM     16  C   UNL     1       4.379   6.365  17.834  0.00  0.00    +0.000 A 
ATOM     17  N   UNL     1       4.484   5.305  16.975  0.00  0.00    +0.000 N 
ATOM     18  C   UNL     1       3.592   4.362  17.393  0.00  0.00    +0.000 A 
ATOM     19  C   UNL     1       3.603   2.981  17.159  0.00  0.00    +0.000 A 
ATOM     20  C   UNL     1       2.595   2.228  17.750  0.00  0.00    +0.000 A 
ATOM     21  C   UNL     1       1.580   2.860  18.468  0.00  0.00    +0.000 A 
ATOM     22  C   UNL     1       1.543   4.264  18.626  0.00  0.00    +0.000 A 
ATOM     23  C   UNL     1       2.601   5.046  18.119  0.00  0.00    +0.000 A 
ATOM     24  H   UNL     1       5.179   5.193  16.258  0.00  0.00    +0.000 HD
ENDBRANCH  13  15
ENDBRANCH   2  13
TORSDOF 4
ENDMDL
MODEL 8
REMARK VINA RESULT:      -7.3      1.431      2.724
REMARK  Name = 
REMARK  5 active torsions:
REMARK  status: ('A' for Active; 'I' for Inactive)
REMARK    1  A    between atoms: C_1  and  S_2
REMARK    2  A    between atoms: S_2  and  C_3
REMARK    3  A    between atoms: C_8  and  N_9
REMARK    4  A    between atoms: C_10  and  C_12
REMARK    5  A    between atoms: C_12  and  C_14
REMARK                            x       y       z     vdW  Elec       q    Type
REMARK                         _______ _______ _______ _____ _____    ______ ____
ROOT
ATOM      1  N   UNL     1       3.284   4.824  17.453  0.00  0.00    +0.000 N 
ATOM      2  C   UNL     1       4.684   4.919  17.374  0.00  0.00    +0.000 C 
ATOM      3  O   UNL     1       5.497   4.466  18.170  0.00  0.00    +0.000 OA
ATOM      4  H   UNL     1       2.751   5.213  16.685  0.00  0.00    +0.000 HD
ENDROOT
BRANCH   1  10
ATOM      5  C   UNL     1       2.034   5.000  19.580  0.00  0.00    +0.000 A 
ATOM      6  C   UNL     1       1.210   4.421  20.561  0.00  0.00    +0.000 A 
ATOM      7  C   UNL     1       0.907   3.067  20.530  0.00  0.00    +0.000 A 
ATOM      8  C   UNL     1       1.434   2.281  19.514  0.00  0.00    +0.000 A 
ATOM      9  C   UNL     1       2.218   2.852  18.499  0.00  0.00    +0.000 A 
ATOM     10  C   UNL     1       2.512   4.220  18.498  0.00  0.00    +0.000 A 
BRANCH   5  12
ATOM     11  C   UNL     1       1.216   7.161  21.018  0.00  0.00    +0.000 C 
ATOM     12  S   UNL     1       2.494   6.721  19.801  0.00  0.00    +0.000 S 
ENDBRANCH   5  12
ENDBRANCH   1  10
BRANCH   2  13
ATOM     13  C   UNL     1       5.195   5.717  16.169  0.00  0.00    +0.000 C 
ATOM     14  O   UNL     1       4.687   6.835  16.058  0.00  0.00    +0.000 OA
BRANCH  13  15
ATOM     15  C   UNL     1       6.063   5.170  15.107  0.00  0.00    +0.000 A 
ATOM     16  C   UNL     1       7.439   5.257  15.249  0.00  0.00    +0.000 A 
ATOM     17  N   UNL     1       7.921   5.315  13.971  0.00  0.00    +0.000 N 
ATOM     18  C   UNL     1       7.128   4.511  13.207  0.00  0.00    +0.000 A 
ATOM     19  C   UNL     1       7.426   3.887  11.988  0.00  0.00    +0.000 A 
ATOM     20  C   UNL     1       6.449   3.067  11.438  0.00  0.00    +0.000 A 
ATOM     21  C   UNL     1       5.201   2.957  12.051  0.00  0.00    +0.000 A 
ATOM     22  C   UNL     1       4.892   3.658  13.239  0.00  0.00    +0.000 A 
ATOM     23  C   UNL     1       5.893   4.423  13.873  0.00  0.00    +0.000 A 
ATOM     24  H   UNL     1       8.775   5.760  13.680  0.00  0.00    +0.000 HD
ENDBRANCH  13  15
ENDBRANCH   2  13
TORSDOF 4
ENDMDL
MODEL 9
REMARK VINA RESULT:      -7.2      3.862      5.613
REMARK  Name = 
REMARK  5 active torsions:
REMARK  status: ('A' for Active; 'I' for Inactive)
REMARK    1  A    between atoms: C_1  and  S_2
REMARK    2  A    between atoms: S_2  and  C_3
REMARK    3  A    between atoms: C_8  and  N_9
REMARK    4  A    between atoms: C_10  and  C_12
REMARK    5  A    between atoms: C_12  and  C_14
REMARK                            x       y       z     vdW  Elec       q    Type
REMARK                         _______ _______ _______ _____ _____    ______ ____
ROOT
ATOM      1  N   UNL     1       1.049   9.352  19.678  0.00  0.00    +0.000 N 
ATOM      2  C   UNL     1       1.770   8.145  19.687  0.00  0.00    +0.000 C 
ATOM      3  O   UNL     1       1.953   7.406  20.646  0.00  0.00    +0.000 OA
ATOM      4  H   UNL     1       0.950   9.823  18.787  0.00  0.00    +0.000 HD
ENDROOT
BRANCH   1  10
ATOM      5  C   UNL     1       0.361  11.407  20.870  0.00  0.00    +0.000 A 
ATOM      6  C   UNL     1      -0.331  12.031  21.922  0.00  0.00    +0.000 A 
ATOM      7  C   UNL     1      -0.911  11.284  22.938  0.00  0.00    +0.000 A 
ATOM      8  C   UNL     1      -0.797   9.901  22.907  0.00  0.00    +0.000 A 
ATOM      9  C   UNL     1      -0.152   9.259  21.839  0.00  0.00    +0.000 A 
ATOM     10  C   UNL     1       0.415   9.993  20.791  0.00  0.00    +0.000 A 
BRANCH   5  12
ATOM     11  C   UNL     1       1.517  13.869  20.813  0.00  0.00    +0.000 C 
ATOM     12  S   UNL     1       1.209  12.467  19.696  0.00  0.00    +0.000 S 
ENDBRANCH   5  12
ENDBRANCH   1  10
BRANCH   2  13
ATOM     13  C   UNL     1       2.409   7.782  18.342  0.00  0.00    +0.000 C 
ATOM     14  O   UNL     1       2.222   8.620  17.457  0.00  0.00    +0.000 OA
BRANCH  13  15
ATOM     15  C   UNL     1       3.028   6.477  18.032  0.00  0.00    +0.000 A 
ATOM     16  C   UNL     1       4.377   6.430  17.714  0.00  0.00    +0.000 A 
ATOM     17  N   UNL     1       4.504   5.350  16.884  0.00  0.00    +0.000 N 
ATOM     18  C   UNL     1       3.633   4.400  17.329  0.00  0.00    +0.000 A 
ATOM     19  C   UNL     1       3.674   3.012  17.132  0.00  0.00    +0.000 A 
ATOM     20  C   UNL     1       2.683   2.255  17.745  0.00  0.00    +0.000 A 
ATOM     21  C   UNL     1       1.656   2.883  18.447  0.00  0.00    +0.000 A 
ATOM     22  C   UNL     1       1.588   4.290  18.566  0.00  0.00    +0.000 A 
ATOM     23  C   UNL     1       2.628   5.081  18.037  0.00  0.00    +0.000 A 
ATOM     24  H   UNL     1       5.201   5.233  16.169  0.00  0.00    +0.000 HD
ENDBRANCH  13  15
ENDBRANCH   2  13
TORSDOF 4
ENDMDL
