MODEL 1
REMARK VINA RESULT:      -7.2      0.000      0.000
REMARK  Name = 
REMARK  8 active torsions:
REMARK  status: ('A' for Active; 'I' for Inactive)
REMARK    1  A    between atoms: C_1  and  C_2
REMARK    2  A    between atoms: C_5  and  C_6
REMARK    3  A    between atoms: C_6  and  N_7
REMARK    4  A    between atoms: C_8  and  C_10
REMARK    5  A    between atoms: C_10  and  N_11
REMARK    6  A    between atoms: N_11  and  C_12
REMARK    7  A    between atoms: N_11  and  S_18
REMARK    8  A    between atoms: S_18  and  C_19
REMARK                            x       y       z     vdW  Elec       q    Type
REMARK                         _______ _______ _______ _____ _____    ______ ____
ROOT
ATOM      1  N   UNL     1       2.016   8.454  18.186  0.00  0.00    +0.000 N 
ATOM      2  C   UNL     1       2.282   7.312  18.909  0.00  0.00    +0.000 C 
ATOM      3  O   UNL     1       2.217   7.271  20.139  0.00  0.00    +0.000 OA
ATOM      4  H   UNL     1       2.119   8.440  17.179  0.00  0.00    +0.000 HD
ENDROOT
BRANCH   1   5
ATOM      5  C   UNL     1       1.662   9.701  18.827  0.00  0.00    +0.000 C 
BRANCH   5  10
ATOM      6  C   UNL     1      -3.896  11.166  17.864  0.00  0.00    +0.000 C 
ATOM      7  C   UNL     1      -2.461  10.798  18.097  0.00  0.00    +0.000 A 
ATOM      8  C   UNL     1      -1.801   9.904  17.247  0.00  0.00    +0.000 A 
ATOM      9  C   UNL     1      -0.467   9.555  17.475  0.00  0.00    +0.000 A 
ATOM     10  C   UNL     1       0.232  10.091  18.566  0.00  0.00    +0.000 A 
ATOM     11  C   UNL     1      -0.426  10.997  19.408  0.00  0.00    +0.000 A 
ATOM     12  C   UNL     1      -1.761  11.344  19.178  0.00  0.00    +0.000 A 
ENDBRANCH   5  10
ENDBRANCH   1   5
BRANCH   2  13
ATOM     13  C   UNL     1       2.578   6.071  18.094  0.00  0.00    +0.000 C 
BRANCH  13  14
ATOM     14  N   UNL     1       3.377   4.932  18.685  0.00  0.00    +0.000 NA
BRANCH  14  15
ATOM     15  C   UNL     1       2.713   3.555  18.556  0.00  0.00    +0.000 C 
ATOM     16  C   UNL     1       3.260   2.490  19.532  0.00  0.00    +0.000 C 
ATOM     17  C   UNL     1       2.949   2.817  20.995  0.00  0.00    +0.000 C 
ATOM     18  C   UNL     1       1.451   2.972  21.227  0.00  0.00    +0.000 C 
ATOM     19  C   UNL     1       0.832   3.948  20.234  0.00  0.00    +0.000 C 
ATOM     20  C   UNL     1       1.193   3.581  18.798  0.00  0.00    +0.000 C 
ENDBRANCH  14  15
BRANCH  14  21
ATOM     21  S   UNL     1       5.048   5.056  18.193  0.00  0.00    +0.000 S 
ATOM     22  C   UNL     1       5.103   4.006  16.743  0.00  0.00    +0.000 C 
ATOM     23  O   UNL     1       5.283   6.418  17.759  0.00  0.00    +0.000 OA
ATOM     24  O   UNL     1       5.902   4.472  19.197  0.00  0.00    +0.000 OA
ENDBRANCH  14  21
ENDBRANCH  13  14
ENDBRANCH   2  13
TORSDOF 6
ENDMDL
MODEL 2
REMARK VINA RESULT:      -7.1      2.468      3.357
REMARK  Name = 
REMARK  8 active torsions:
REMARK  status: ('A' for Active; 'I' for Inactive)
REMARK    1  A    between atoms: C_1  and  C_2
REMARK    2  A    between atoms: C_5  and  C_6
REMARK    3  A    between atoms: C_6  and  N_7
REMARK    4  A    between atoms: C_8  and  C_10
REMARK    5  A    between atoms: C_10  and  N_11
REMARK    6  A    between atoms: N_11  and  C_12
REMARK    7  A    between atoms: N_11  and  S_18
REMARK    8  A    between atoms: S_18  and  C_19
REMARK                            x       y       z     vdW  Elec       q    Type
REMARK                         _______ _______ _______ _____ _____    ______ ____
ROOT
ATOM      1  N   UNL     1       3.620   7.042  17.531  0.00  0.00    +0.000 N 
ATOM      2  C   UNL     1       4.498   6.691  16.529  0.00  0.00    +0.000 C 
ATOM      3  O   UNL     1       4.689   7.390  15.533  0.00  0.00    +0.000 OA
ATOM      4  H   UNL     1       3.476   6.412  18.310  0.00  0.00    +0.000 HD
ENDROOT
BRANCH   1   5
ATOM      5  C   UNL     1       2.837   8.256  17.470  0.00  0.00    +0.000 C 
BRANCH   5  10
ATOM      6  C   UNL     1      -0.337   9.063  22.292  0.00  0.00    +0.000 C 
ATOM      7  C   UNL     1       0.489   8.869  21.054  0.00  0.00    +0.000 A 
ATOM      8  C   UNL     1       0.415   9.777  19.992  0.00  0.00    +0.000 A 
ATOM      9  C   UNL     1       1.179   9.586  18.837  0.00  0.00    +0.000 A 
ATOM     10  C   UNL     1       2.029   8.477  18.721  0.00  0.00    +0.000 A 
ATOM     11  C   UNL     1       2.112   7.577  19.792  0.00  0.00    +0.000 A 
ATOM     12  C   UNL     1       1.347   7.770  20.946  0.00  0.00    +0.000 A 
ENDBRANCH   5  10
ENDBRANCH   1   5
BRANCH   2  13
ATOM     13  C   UNL     1       5.291   5.422  16.764  0.00  0.00    +0.000 C 
BRANCH  13  14
ATOM     14  N   UNL     1       5.530   4.910  18.166  0.00  0.00    +0.000 NA
BRANCH  14  15
ATOM     15  C   UNL     1       4.998   3.495  18.426  0.00  0.00    +0.000 C 
ATOM     16  C   UNL     1       4.388   3.291  19.830  0.00  0.00    +0.000 C 
ATOM     17  C   UNL     1       3.116   4.115  20.045  0.00  0.00    +0.000 C 
ATOM     18  C   UNL     1       2.057   3.791  18.998  0.00  0.00    +0.000 C 
ATOM     19  C   UNL     1       2.621   3.888  17.587  0.00  0.00    +0.000 C 
ATOM     20  C   UNL     1       3.896   3.063  17.441  0.00  0.00    +0.000 C 
ENDBRANCH  14  15
BRANCH  14  21
ATOM     21  S   UNL     1       7.176   5.239  18.649  0.00  0.00    +0.000 S 
ATOM     22  C   UNL     1       7.487   6.838  17.905  0.00  0.00    +0.000 C 
ATOM     23  O   UNL     1       7.191   5.413  20.087  0.00  0.00    +0.000 OA
ATOM     24  O   UNL     1       8.069   4.285  18.039  0.00  0.00    +0.000 OA
ENDBRANCH  14  21
ENDBRANCH  13  14
ENDBRANCH   2  13
TORSDOF 6
ENDMDL
MODEL 3
REMARK VINA RESULT:      -7.0      5.784      7.533
REMARK  Name = 
REMARK  8 active torsions:
REMARK  status: ('A' for Active; 'I' for Inactive)
REMARK    1  A    between atoms: C_1  and  C_2
REMARK    2  A    between atoms: C_5  and  C_6
REMARK    3  A    between atoms: C_6  and  N_7
REMARK    4  A    between atoms: C_8  and  C_10
REMARK    5  A    between atoms: C_10  and  N_11
REMARK    6  A    between atoms: N_11  and  C_12
REMARK    7  A    between atoms: N_11  and  S_18
REMARK    8  A    between atoms: S_18  and  C_19
REMARK                            x       y       z     vdW  Elec       q    Type
REMARK                         _______ _______ _______ _____ _____    ______ ____
ROOT
ATOM      1  N   UNL     1       8.044   8.981  18.042  0.00  0.00    +0.000 N 
ATOM      2  C   UNL     1       7.698   7.648  18.064  0.00  0.00    +0.000 C 
ATOM      3  O   UNL     1       8.222   6.834  18.826  0.00  0.00    +0.000 OA
ATOM      4  H   UNL     1       7.606   9.598  17.369  0.00  0.00    +0.000 HD
ENDROOT
BRANCH   1   5
ATOM      5  C   UNL     1       9.073   9.519  18.905  0.00  0.00    +0.000 C 
BRANCH   5  10
ATOM      6  C   UNL     1      10.841  14.784  17.139  0.00  0.00    +0.000 C 
ATOM      7  C   UNL     1      10.389  13.434  17.611  0.00  0.00    +0.000 A 
ATOM      8  C   UNL     1      11.288  12.541  18.203  0.00  0.00    +0.000 A 
ATOM      9  C   UNL     1      10.864  11.279  18.630  0.00  0.00    +0.000 A 
ATOM     10  C   UNL     1       9.528  10.885  18.466  0.00  0.00    +0.000 A 
ATOM     11  C   UNL     1       8.626  11.786  17.886  0.00  0.00    +0.000 A 
ATOM     12  C   UNL     1       9.053  13.047  17.459  0.00  0.00    +0.000 A 
ENDBRANCH   5  10
ENDBRANCH   1   5
BRANCH   2  13
ATOM     13  C   UNL     1       6.562   7.248  17.146  0.00  0.00    +0.000 C 
BRANCH  13  14
ATOM     14  N   UNL     1       6.081   5.816  17.093  0.00  0.00    +0.000 NA
BRANCH  14  15
ATOM     15  C   UNL     1       4.578   5.659  16.824  0.00  0.00    +0.000 C 
ATOM     16  C   UNL     1       4.016   4.258  17.147  0.00  0.00    +0.000 C 
ATOM     17  C   UNL     1       4.071   3.931  18.642  0.00  0.00    +0.000 C 
ATOM     18  C   UNL     1       3.316   4.965  19.468  0.00  0.00    +0.000 C 
ATOM     19  C   UNL     1       3.764   6.382  19.131  0.00  0.00    +0.000 C 
ATOM     20  C   UNL     1       3.705   6.639  17.629  0.00  0.00    +0.000 C 
ENDBRANCH  14  15
BRANCH  14  21
ATOM     21  S   UNL     1       7.165   4.857  16.116  0.00  0.00    +0.000 S 
ATOM     22  C   UNL     1       6.048   3.715  15.305  0.00  0.00    +0.000 C 
ATOM     23  O   UNL     1       7.727   5.721  15.097  0.00  0.00    +0.000 OA
ATOM     24  O   UNL     1       8.045   4.091  16.963  0.00  0.00    +0.000 OA
ENDBRANCH  14  21
ENDBRANCH  13  14
ENDBRANCH   2  13
TORSDOF 6
ENDMDL
MODEL 4
REMARK VINA RESULT:      -6.9      0.358      1.054
REMARK  Name = 
REMARK  8 active torsions:
REMARK  status: ('A' for Active; 'I' for Inactive)
REMARK    1  A    between atoms: C_1  and  C_2
REMARK    2  A    between atoms: C_5  and  C_6
REMARK    3  A    between atoms: C_6  and  N_7
REMARK    4  A    between atoms: C_8  and  C_10
REMARK    5  A    between atoms: C_10  and  N_11
REMARK    6  A    between atoms: N_11  and  C_12
REMARK    7  A    between atoms: N_11  and  S_18
REMARK    8  A    between atoms: S_18  and  C_19
REMARK                            x       y       z     vdW  Elec       q    Type
REMARK                         _______ _______ _______ _____ _____    ______ ____
ROOT
ATOM      1  N   UNL     1       2.119   8.398  17.877  0.00  0.00    +0.000 N 
ATOM      2  C   UNL     1       2.256   7.361  18.772  0.00  0.00    +0.000 C 
ATOM      3  O   UNL     1       2.233   7.525  19.993  0.00  0.00    +0.000 OA
ATOM      4  H   UNL     1       2.181   8.211  16.884  0.00  0.00    +0.000 HD
ENDROOT
BRANCH   1   5
ATOM      5  C   UNL     1       1.962   9.769  18.312  0.00  0.00    +0.000 C 
BRANCH   5  10
ATOM      6  C   UNL     1      -3.615  11.464  18.363  0.00  0.00    +0.000 C 
ATOM      7  C   UNL     1      -2.181  11.021  18.366  0.00  0.00    +0.000 A 
ATOM      8  C   UNL     1      -1.246  11.621  19.216  0.00  0.00    +0.000 A 
ATOM      9  C   UNL     1       0.091  11.213  19.206  0.00  0.00    +0.000 A 
ATOM     10  C   UNL     1       0.519  10.196  18.340  0.00  0.00    +0.000 A 
ATOM     11  C   UNL     1      -0.423   9.588  17.500  0.00  0.00    +0.000 A 
ATOM     12  C   UNL     1      -1.759   9.998  17.510  0.00  0.00    +0.000 A 
ENDBRANCH   5  10
ENDBRANCH   1   5
BRANCH   2  13
ATOM     13  C   UNL     1       2.350   5.976  18.165  0.00  0.00    +0.000 C 
BRANCH  13  14
ATOM     14  N   UNL     1       3.295   4.946  18.738  0.00  0.00    +0.000 NA
BRANCH  14  15
ATOM     15  C   UNL     1       2.806   3.497  18.618  0.00  0.00    +0.000 C 
ATOM     16  C   UNL     1       3.391   2.536  19.677  0.00  0.00    +0.000 C 
ATOM     17  C   UNL     1       2.929   2.874  21.097  0.00  0.00    +0.000 C 
ATOM     18  C   UNL     1       1.410   2.860  21.209  0.00  0.00    +0.000 C 
ATOM     19  C   UNL     1       0.765   3.723  20.132  0.00  0.00    +0.000 C 
ATOM     20  C   UNL     1       1.278   3.352  18.744  0.00  0.00    +0.000 C 
ENDBRANCH  14  15
BRANCH  14  21
ATOM     21  S   UNL     1       4.928   5.276  18.215  0.00  0.00    +0.000 S 
ATOM     22  C   UNL     1       5.170   4.070  16.913  0.00  0.00    +0.000 C 
ATOM     23  O   UNL     1       4.942   6.590  17.604  0.00  0.00    +0.000 OA
ATOM     24  O   UNL     1       5.857   4.976  19.276  0.00  0.00    +0.000 OA
ENDBRANCH  14  21
ENDBRANCH  13  14
ENDBRANCH   2  13
TORSDOF 6
ENDMDL
MODEL 5
REMARK VINA RESULT:      -6.8      0.922      1.489
REMARK  Name = 
REMARK  8 active torsions:
REMARK  status: ('A' for Active; 'I' for Inactive)
REMARK    1  A    between atoms: C_1  and  C_2
REMARK    2  A    between atoms: C_5  and  C_6
REMARK    3  A    between atoms: C_6  and  N_7
REMARK    4  A    between atoms: C_8  and  C_10
REMARK    5  A    between atoms: C_10  and  N_11
REMARK    6  A    between atoms: N_11  and  C_12
REMARK    7  A    between atoms: N_11  and  S_18
REMARK    8  A    between atoms: S_18  and  C_19
REMARK                            x       y       z     vdW  Elec       q    Type
REMARK                         _______ _______ _______ _____ _____    ______ ____
ROOT
ATOM      1  N   UNL     1       1.803   8.689  18.130  0.00  0.00    +0.000 N 
ATOM      2  C   UNL     1       2.278   7.546  18.734  0.00  0.00    +0.000 C 
ATOM      3  O   UNL     1       2.320   7.406  19.958  0.00  0.00    +0.000 OA
ATOM      4  H   UNL     1       1.825   8.764  17.120  0.00  0.00    +0.000 HD
ENDROOT
BRANCH   1   5
ATOM      5  C   UNL     1       1.339   9.824  18.896  0.00  0.00    +0.000 C 
BRANCH   5  10
ATOM      6  C   UNL     1      -3.991  11.535  17.271  0.00  0.00    +0.000 C 
ATOM      7  C   UNL     1      -2.625  11.090  17.706  0.00  0.00    +0.000 A 
ATOM      8  C   UNL     1      -1.907  11.810  18.667  0.00  0.00    +0.000 A 
ATOM      9  C   UNL     1      -0.631  11.399  19.060  0.00  0.00    +0.000 A 
ATOM     10  C   UNL     1      -0.044  10.258  18.492  0.00  0.00    +0.000 A 
ATOM     11  C   UNL     1      -0.771   9.531  17.540  0.00  0.00    +0.000 A 
ATOM     12  C   UNL     1      -2.048   9.945  17.148  0.00  0.00    +0.000 A 
ENDBRANCH   5  10
ENDBRANCH   1   5
BRANCH   2  13
ATOM     13  C   UNL     1       2.671   6.421  17.800  0.00  0.00    +0.000 C 
BRANCH  13  14
ATOM     14  N   UNL     1       3.511   5.266  18.293  0.00  0.00    +0.000 NA
BRANCH  14  15
ATOM     15  C   UNL     1       2.879   3.884  18.085  0.00  0.00    +0.000 C 
ATOM     16  C   UNL     1       3.513   2.759  18.932  0.00  0.00    +0.000 C 
ATOM     17  C   UNL     1       3.284   2.951  20.434  0.00  0.00    +0.000 C 
ATOM     18  C   UNL     1       1.800   3.038  20.766  0.00  0.00    +0.000 C 
ATOM     19  C   UNL     1       1.095   4.073  19.899  0.00  0.00    +0.000 C 
ATOM     20  C   UNL     1       1.376   3.840  18.418  0.00  0.00    +0.000 C 
ENDBRANCH  14  15
BRANCH  14  21
ATOM     21  S   UNL     1       5.166   5.466  17.772  0.00  0.00    +0.000 S 
ATOM     22  C   UNL     1       6.082   5.240  19.293  0.00  0.00    +0.000 C 
ATOM     23  O   UNL     1       5.492   4.361  16.893  0.00  0.00    +0.000 OA
ATOM     24  O   UNL     1       5.381   6.819  17.321  0.00  0.00    +0.000 OA
ENDBRANCH  14  21
ENDBRANCH  13  14
ENDBRANCH   2  13
TORSDOF 6
ENDMDL
MODEL 6
REMARK VINA RESULT:      -6.8      0.932      1.141
REMARK  Name = 
REMARK  8 active torsions:
REMARK  status: ('A' for Active; 'I' for Inactive)
REMARK    1  A    between atoms: C_1  and  C_2
REMARK    2  A    between atoms: C_5  and  C_6
REMARK    3  A    between atoms: C_6  and  N_7
REMARK    4  A    between atoms: C_8  and  C_10
REMARK    5  A    between atoms: C_10  and  N_11
REMARK    6  A    between atoms: N_11  and  C_12
REMARK    7  A    between atoms: N_11  and  S_18
REMARK    8  A    between atoms: S_18  and  C_19
REMARK                            x       y       z     vdW  Elec       q    Type
REMARK                         _______ _______ _______ _____ _____    ______ ____
ROOT
ATOM      1  N   UNL     1       2.112   8.212  17.832  0.00  0.00    +0.000 N 
ATOM      2  C   UNL     1       2.263   7.146  18.691  0.00  0.00    +0.000 C 
ATOM      3  O   UNL     1       2.358   7.280  19.912  0.00  0.00    +0.000 OA
ATOM      4  H   UNL     1       2.074   8.047  16.834  0.00  0.00    +0.000 HD
ENDROOT
BRANCH   1   5
ATOM      5  C   UNL     1       2.079   9.578  18.307  0.00  0.00    +0.000 C 
BRANCH   5  10
ATOM      6  C   UNL     1      -3.360  11.644  18.656  0.00  0.00    +0.000 C 
ATOM      7  C   UNL     1      -1.959  11.119  18.550  0.00  0.00    +0.000 A 
ATOM      8  C   UNL     1      -1.640  10.099  17.648  0.00  0.00    +0.000 A 
ATOM      9  C   UNL     1      -0.335   9.605  17.561  0.00  0.00    +0.000 A 
ATOM     10  C   UNL     1       0.677  10.122  18.383  0.00  0.00    +0.000 A 
ATOM     11  C   UNL     1       0.359  11.154  19.276  0.00  0.00    +0.000 A 
ATOM     12  C   UNL     1      -0.948  11.645  19.361  0.00  0.00    +0.000 A 
ENDBRANCH   5  10
ENDBRANCH   1   5
BRANCH   2  13
ATOM     13  C   UNL     1       2.217   5.774  18.050  0.00  0.00    +0.000 C 
BRANCH  13  14
ATOM     14  N   UNL     1       3.211   4.706  18.444  0.00  0.00    +0.000 NA
BRANCH  14  15
ATOM     15  C   UNL     1       2.639   3.283  18.472  0.00  0.00    +0.000 C 
ATOM     16  C   UNL     1       3.314   2.344  19.496  0.00  0.00    +0.000 C 
ATOM     17  C   UNL     1       3.067   2.777  20.944  0.00  0.00    +0.000 C 
ATOM     18  C   UNL     1       1.578   2.856  21.257  0.00  0.00    +0.000 C 
ATOM     19  C   UNL     1       0.836   3.700  20.229  0.00  0.00    +0.000 C 
ATOM     20  C   UNL     1       1.137   3.233  18.808  0.00  0.00    +0.000 C 
ENDBRANCH  14  15
BRANCH  14  21
ATOM     21  S   UNL     1       4.712   4.939  17.580  0.00  0.00    +0.000 S 
ATOM     22  C   UNL     1       5.911   5.034  18.906  0.00  0.00    +0.000 C 
ATOM     23  O   UNL     1       4.983   3.731  16.827  0.00  0.00    +0.000 OA
ATOM     24  O   UNL     1       4.697   6.212  16.902  0.00  0.00    +0.000 OA
ENDBRANCH  14  21
ENDBRANCH  13  14
ENDBRANCH   2  13
TORSDOF 6
ENDMDL
MODEL 7
REMARK VINA RESULT:      -6.7      3.362      7.017
REMARK  Name = 
REMARK  8 active torsions:
REMARK  status: ('A' for Active; 'I' for Inactive)
REMARK    1  A    between atoms: C_1  and  C_2
REMARK    2  A    between atoms: C_5  and  C_6
REMARK    3  A    between atoms: C_6  and  N_7
REMARK    4  A    between atoms: C_8  and  C_10
REMARK    5  A    between atoms: C_10  and  N_11
REMARK    6  A    between atoms: N_11  and  C_12
REMARK    7  A    between atoms: N_11  and  S_18
REMARK    8  A    between atoms: S_18  and  C_19
REMARK                            x       y       z     vdW  Elec       q    Type
REMARK                         _______ _______ _______ _____ _____    ______ ____
ROOT
ATOM      1  N   UNL     1       6.123   5.927  17.281  0.00  0.00    +0.000 N 
ATOM      2  C   UNL     1       6.041   5.167  18.426  0.00  0.00    +0.000 C 
ATOM      3  O   UNL     1       6.868   4.301  18.714  0.00  0.00    +0.000 OA
ATOM      4  H   UNL     1       5.395   6.600  17.077  0.00  0.00    +0.000 HD
ENDROOT
BRANCH   1   5
ATOM      5  C   UNL     1       7.183   5.741  16.314  0.00  0.00    +0.000 C 
BRANCH   5  10
ATOM      6  C   UNL     1       5.387   2.843  11.587  0.00  0.00    +0.000 C 
ATOM      7  C   UNL     1       5.847   3.605  12.795  0.00  0.00    +0.000 A 
ATOM      8  C   UNL     1       7.058   4.304  12.785  0.00  0.00    +0.000 A 
ATOM      9  C   UNL     1       7.488   5.002  13.917  0.00  0.00    +0.000 A 
ATOM     10  C   UNL     1       6.713   5.009  15.086  0.00  0.00    +0.000 A 
ATOM     11  C   UNL     1       5.493   4.320  15.089  0.00  0.00    +0.000 A 
ATOM     12  C   UNL     1       5.066   3.622  13.955  0.00  0.00    +0.000 A 
ENDBRANCH   5  10
ENDBRANCH   1   5
BRANCH   2  13
ATOM     13  C   UNL     1       4.909   5.520  19.370  0.00  0.00    +0.000 C 
BRANCH  13  14
ATOM     14  N   UNL     1       3.474   5.232  18.995  0.00  0.00    +0.000 NA
BRANCH  14  15
ATOM     15  C   UNL     1       2.713   4.367  20.008  0.00  0.00    +0.000 C 
ATOM     16  C   UNL     1       1.303   3.938  19.547  0.00  0.00    +0.000 C 
ATOM     17  C   UNL     1       1.339   2.995  18.341  0.00  0.00    +0.000 C 
ATOM     18  C   UNL     1       2.161   1.746  18.632  0.00  0.00    +0.000 C 
ATOM     19  C   UNL     1       3.539   2.101  19.176  0.00  0.00    +0.000 C 
ATOM     20  C   UNL     1       3.438   3.055  20.362  0.00  0.00    +0.000 C 
ENDBRANCH  14  15
BRANCH  14  21
ATOM     21  S   UNL     1       2.691   6.699  18.460  0.00  0.00    +0.000 S 
ATOM     22  C   UNL     1       2.116   7.414  19.997  0.00  0.00    +0.000 C 
ATOM     23  O   UNL     1       3.711   7.576  17.921  0.00  0.00    +0.000 OA
ATOM     24  O   UNL     1       1.535   6.377  17.660  0.00  0.00    +0.000 OA
ENDBRANCH  14  21
ENDBRANCH  13  14
ENDBRANCH   2  13
TORSDOF 6
ENDMDL
MODEL 8
REMARK VINA RESULT:      -6.7      3.399      7.064
REMARK  Name = 
REMARK  8 active torsions:
REMARK  status: ('A' for Active; 'I' for Inactive)
REMARK    1  A    between atoms: C_1  and  C_2
REMARK    2  A    between atoms: C_5  and  C_6
REMARK    3  A    between atoms: C_6  and  N_7
REMARK    4  A    between atoms: C_8  and  C_10
REMARK    5  A    between atoms: C_10  and  N_11
REMARK    6  A    between atoms: N_11  and  C_12
REMARK    7  A    between atoms: N_11  and  S_18
REMARK    8  A    between atoms: S_18  and  C_19
REMARK                            x       y       z     vdW  Elec       q    Type
REMARK                         _______ _______ _______ _____ _____    ______ ____
ROOT
ATOM      1  N   UNL     1       6.131   5.889  17.127  0.00  0.00    +0.000 N 
ATOM      2  C   UNL     1       6.125   5.185  18.311  0.00  0.00    +0.000 C 
ATOM      3  O   UNL     1       7.007   4.379  18.613  0.00  0.00    +0.000 OA
ATOM      4  H   UNL     1       5.362   6.512  16.915  0.00  0.00    +0.000 HD
ENDROOT
BRANCH   1   5
ATOM      5  C   UNL     1       7.170   5.712  16.136  0.00  0.00    +0.000 C 
BRANCH   5  10
ATOM      6  C   UNL     1       5.272   2.821  11.444  0.00  0.00    +0.000 C 
ATOM      7  C   UNL     1       5.762   3.550  12.661  0.00  0.00    +0.000 A 
ATOM      8  C   UNL     1       4.991   3.602  13.827  0.00  0.00    +0.000 A 
ATOM      9  C   UNL     1       5.447   4.292  14.953  0.00  0.00    +0.000 A 
ATOM     10  C   UNL     1       6.685   4.949  14.932  0.00  0.00    +0.000 A 
ATOM     11  C   UNL     1       7.462   4.884  13.768  0.00  0.00    +0.000 A 
ATOM     12  C   UNL     1       7.004   4.194  12.642  0.00  0.00    +0.000 A 
ENDBRANCH   5  10
ENDBRANCH   1   5
BRANCH   2  13
ATOM     13  C   UNL     1       5.006   5.524  19.273  0.00  0.00    +0.000 C 
BRANCH  13  14
ATOM     14  N   UNL     1       3.569   5.204  18.929  0.00  0.00    +0.000 NA
BRANCH  14  15
ATOM     15  C   UNL     1       2.850   4.322  19.957  0.00  0.00    +0.000 C 
ATOM     16  C   UNL     1       1.431   3.881  19.537  0.00  0.00    +0.000 C 
ATOM     17  C   UNL     1       1.439   2.950  18.322  0.00  0.00    +0.000 C 
ATOM     18  C   UNL     1       2.283   1.707  18.576  0.00  0.00    +0.000 C 
ATOM     19  C   UNL     1       3.674   2.073  19.080  0.00  0.00    +0.000 C 
ATOM     20  C   UNL     1       3.599   3.016  20.277  0.00  0.00    +0.000 C 
ENDBRANCH  14  15
BRANCH  14  21
ATOM     21  S   UNL     1       2.743   6.653  18.411  0.00  0.00    +0.000 S 
ATOM     22  C   UNL     1       2.157   7.339  19.958  0.00  0.00    +0.000 C 
ATOM     23  O   UNL     1       3.734   7.563  17.874  0.00  0.00    +0.000 OA
ATOM     24  O   UNL     1       1.591   6.306  17.615  0.00  0.00    +0.000 OA
ENDBRANCH  14  21
ENDBRANCH  13  14
ENDBRANCH   2  13
TORSDOF 6
ENDMDL
MODEL 9
REMARK VINA RESULT:      -6.7      2.401      3.942
REMARK  Name = 
REMARK  8 active torsions:
REMARK  status: ('A' for Active; 'I' for Inactive)
REMARK    1  A    between atoms: C_1  and  C_2
REMARK    2  A    between atoms: C_5  and  C_6
REMARK    3  A    between atoms: C_6  and  N_7
REMARK    4  A    between atoms: C_8  and  C_10
REMARK    5  A    between atoms: C_10  and  N_11
REMARK    6  A    between atoms: N_11  and  C_12
REMARK    7  A    between atoms: N_11  and  S_18
REMARK    8  A    between atoms: S_18  and  C_19
REMARK                            x       y       z     vdW  Elec       q    Type
REMARK                         _______ _______ _______ _____ _____    ______ ____
ROOT
ATOM      1  N   UNL     1       2.435   7.824  19.355  0.00  0.00    +0.000 N 
ATOM      2  C   UNL     1       2.536   6.554  18.831  0.00  0.00    +0.000 C 
ATOM      3  O   UNL     1       1.828   6.156  17.905  0.00  0.00    +0.000 OA
ATOM      4  H   UNL     1       3.018   8.086  20.140  0.00  0.00    +0.000 HD
ENDROOT
BRANCH   1   5
ATOM      5  C   UNL     1       1.466   8.779  18.866  0.00  0.00    +0.000 C 
BRANCH   5  10
ATOM      6  C   UNL     1      -1.504  11.323  23.188  0.00  0.00    +0.000 C 
ATOM      7  C   UNL     1      -0.730  10.682  22.073  0.00  0.00    +0.000 A 
ATOM      8  C   UNL     1      -0.834  11.156  20.762  0.00  0.00    +0.000 A 
ATOM      9  C   UNL     1      -0.120  10.549  19.725  0.00  0.00    +0.000 A 
ATOM     10  C   UNL     1       0.711   9.449  19.983  0.00  0.00    +0.000 A 
ATOM     11  C   UNL     1       0.825   8.985  21.300  0.00  0.00    +0.000 A 
ATOM     12  C   UNL     1       0.109   9.594  22.335  0.00  0.00    +0.000 A 
ENDBRANCH   5  10
ENDBRANCH   1   5
BRANCH   2  13
ATOM     13  C   UNL     1       3.640   5.691  19.406  0.00  0.00    +0.000 C 
BRANCH  13  14
ATOM     14  N   UNL     1       4.208   4.536  18.613  0.00  0.00    +0.000 NA
BRANCH  14  15
ATOM     15  C   UNL     1       5.647   4.747  18.124  0.00  0.00    +0.000 C 
ATOM     16  C   UNL     1       6.033   3.897  16.894  0.00  0.00    +0.000 C 
ATOM     17  C   UNL     1       5.247   4.285  15.639  0.00  0.00    +0.000 C 
ATOM     18  C   UNL     1       5.436   5.758  15.296  0.00  0.00    +0.000 C 
ATOM     19  C   UNL     1       5.155   6.650  16.498  0.00  0.00    +0.000 C 
ATOM     20  C   UNL     1       5.950   6.201  17.719  0.00  0.00    +0.000 C 
ENDBRANCH  14  15
BRANCH  14  21
ATOM     21  S   UNL     1       3.859   3.028  19.421  0.00  0.00    +0.000 S 
ATOM     22  C   UNL     1       3.359   1.969  18.067  0.00  0.00    +0.000 C 
ATOM     23  O   UNL     1       5.104   2.508  19.949  0.00  0.00    +0.000 OA
ATOM     24  O   UNL     1       2.727   3.189  20.300  0.00  0.00    +0.000 OA
ENDBRANCH  14  21
ENDBRANCH  13  14
ENDBRANCH   2  13
TORSDOF 6
ENDMDL
