MODEL 1
REMARK VINA RESULT:      -7.5      0.000      0.000
REMARK  Name = 
REMARK  6 active torsions:
REMARK  status: ('A' for Active; 'I' for Inactive)
REMARK    1  A    between atoms: C_1  and  N_2
REMARK    2  A    between atoms: N_2  and  C_3
REMARK    3  A    between atoms: N_2  and  C_4
REMARK    4  A    between atoms: C_4  and  C_5
REMARK    5  A    between atoms: C_12  and  C_14
REMARK    6  A    between atoms: C_14  and  C_15
REMARK                            x       y       z     vdW  Elec       q    Type
REMARK                         _______ _______ _______ _____ _____    ______ ____
ROOT
ATOM      1  C   UNL     1       2.741   5.483  18.656  0.00  0.00    +0.000 C 
ATOM      2  C   UNL     1       3.605   4.159  18.370  0.00  0.00    +0.000 C 
ATOM      3  O   UNL     1       4.410   4.152  17.200  0.00  0.00    +0.000 OA
ATOM      4  C   UNL     1       4.776   5.473  16.952  0.00  0.00    +0.000 C 
ATOM      5  C   UNL     1       4.080   6.256  18.029  0.00  0.00    +0.000 C 
ATOM      6  C   UNL     1       3.597   7.561  17.388  0.00  0.00    +0.000 C 
ATOM      7  N   UNL     1       2.563   7.926  18.291  0.00  0.00    +0.000 N 
ATOM      8  C   UNL     1       1.921   9.145  18.281  0.00  0.00    +0.000 C 
ATOM      9  O   UNL     1       2.209  10.011  17.450  0.00  0.00    +0.000 OA
ATOM     10  C   UNL     1       2.501   6.919  19.305  0.00  0.00    +0.000 C 
ENDROOT
BRANCH   1  11
ATOM     11  C   UNL     1       2.253   4.736  20.087  0.00  0.00    +0.000 C 
BRANCH  11  13
ATOM     12  C   UNL     1       2.114   2.754  21.574  0.00  0.00    +0.000 C 
ATOM     13  N   UNL     1       2.009   3.276  20.209  0.00  0.00    +0.000 NA
ATOM     14  C   UNL     1       0.708   2.894  19.645  0.00  0.00    +0.000 C 
ENDBRANCH  11  13
ENDBRANCH   1  11
BRANCH   8  15
ATOM     15  C   UNL     1       0.810   9.388  19.306  0.00  0.00    +0.000 C 
BRANCH  15  16
ATOM     16  C   UNL     1      -0.419  10.061  18.745  0.00  0.00    +0.000 A 
ATOM     17  C   UNL     1      -1.071  11.101  19.452  0.00  0.00    +0.000 A 
ATOM     18  C   UNL     1      -2.228  11.708  18.950  0.00  0.00    +0.000 A 
ATOM     19  C   UNL     1      -2.716  11.253  17.744  0.00  0.00    +0.000 A 
ATOM     20  C   UNL     1      -2.097  10.243  17.046  0.00  0.00    +0.000 A 
ATOM     21  C   UNL     1      -0.953   9.631  17.516  0.00  0.00    +0.000 A 
ATOM     22  O   UNL     1      -2.740   9.940  15.889  0.00  0.00    +0.000 OA
ATOM     23  C   UNL     1      -3.831  10.887  15.933  0.00  0.00    +0.000 C 
ATOM     24  O   UNL     1      -3.828  11.717  17.112  0.00  0.00    +0.000 OA
ENDBRANCH  15  16
ENDBRANCH   8  15
TORSDOF 4
ENDMDL
MODEL 2
REMARK VINA RESULT:      -7.1      3.335      8.223
REMARK  Name = 
REMARK  6 active torsions:
REMARK  status: ('A' for Active; 'I' for Inactive)
REMARK    1  A    between atoms: C_1  and  N_2
REMARK    2  A    between atoms: N_2  and  C_3
REMARK    3  A    between atoms: N_2  and  C_4
REMARK    4  A    between atoms: C_4  and  C_5
REMARK    5  A    between atoms: C_12  and  C_14
REMARK    6  A    between atoms: C_14  and  C_15
REMARK                            x       y       z     vdW  Elec       q    Type
REMARK                         _______ _______ _______ _____ _____    ______ ____
ROOT
ATOM      1  C   UNL     1      -0.085  10.203  20.548  0.00  0.00    +0.000 C 
ATOM      2  C   UNL     1      -0.878  11.163  21.563  0.00  0.00    +0.000 C 
ATOM      3  O   UNL     1      -1.171  10.641  22.851  0.00  0.00    +0.000 OA
ATOM      4  C   UNL     1      -0.163   9.730  23.158  0.00  0.00    +0.000 C 
ATOM      5  C   UNL     1       0.707   9.717  21.933  0.00  0.00    +0.000 C 
ATOM      6  C   UNL     1       1.154   8.267  21.721  0.00  0.00    +0.000 C 
ATOM      7  N   UNL     1       1.482   8.297  20.339  0.00  0.00    +0.000 N 
ATOM      8  C   UNL     1       2.131   7.278  19.675  0.00  0.00    +0.000 C 
ATOM      9  O   UNL     1       2.460   6.243  20.261  0.00  0.00    +0.000 OA
ATOM     10  C   UNL     1       1.234   9.624  19.866  0.00  0.00    +0.000 C 
ENDROOT
BRANCH   1  11
ATOM     11  C   UNL     1      -0.092  11.501  19.471  0.00  0.00    +0.000 C 
BRANCH  11  13
ATOM     12  C   UNL     1       1.688  13.189  19.848  0.00  0.00    +0.000 C 
ATOM     13  N   UNL     1       0.253  12.893  19.859  0.00  0.00    +0.000 NA
ATOM     14  C   UNL     1      -0.450  13.878  19.030  0.00  0.00    +0.000 C 
ENDBRANCH  11  13
ENDBRANCH   1  11
BRANCH   8  15
ATOM     15  C   UNL     1       2.401   7.446  18.178  0.00  0.00    +0.000 C 
BRANCH  15  16
ATOM     16  C   UNL     1       3.334   6.411  17.594  0.00  0.00    +0.000 A 
ATOM     17  C   UNL     1       3.019   5.032  17.645  0.00  0.00    +0.000 A 
ATOM     18  C   UNL     1       3.893   4.066  17.132  0.00  0.00    +0.000 A 
ATOM     19  C   UNL     1       5.078   4.505  16.582  0.00  0.00    +0.000 A 
ATOM     20  C   UNL     1       5.401   5.842  16.528  0.00  0.00    +0.000 A 
ATOM     21  C   UNL     1       4.555   6.813  17.022  0.00  0.00    +0.000 A 
ATOM     22  O   UNL     1       6.613   6.061  15.956  0.00  0.00    +0.000 OA
ATOM     23  C   UNL     1       7.011   4.708  15.644  0.00  0.00    +0.000 C 
ATOM     24  O   UNL     1       6.047   3.714  16.047  0.00  0.00    +0.000 OA
ENDBRANCH  15  16
ENDBRANCH   8  15
TORSDOF 4
ENDMDL
MODEL 3
REMARK VINA RESULT:      -7.1      2.251      3.187
REMARK  Name = 
REMARK  6 active torsions:
REMARK  status: ('A' for Active; 'I' for Inactive)
REMARK    1  A    between atoms: C_1  and  N_2
REMARK    2  A    between atoms: N_2  and  C_3
REMARK    3  A    between atoms: N_2  and  C_4
REMARK    4  A    between atoms: C_4  and  C_5
REMARK    5  A    between atoms: C_12  and  C_14
REMARK    6  A    between atoms: C_14  and  C_15
REMARK                            x       y       z     vdW  Elec       q    Type
REMARK                         _______ _______ _______ _____ _____    ______ ____
ROOT
ATOM      1  C   UNL     1       2.864   5.342  17.704  0.00  0.00    +0.000 C 
ATOM      2  C   UNL     1       3.854   4.084  17.564  0.00  0.00    +0.000 C 
ATOM      3  O   UNL     1       5.112   4.316  16.949  0.00  0.00    +0.000 OA
ATOM      4  C   UNL     1       5.456   5.639  17.218  0.00  0.00    +0.000 C 
ATOM      5  C   UNL     1       4.281   6.177  17.984  0.00  0.00    +0.000 C 
ATOM      6  C   UNL     1       4.064   7.618  17.513  0.00  0.00    +0.000 C 
ATOM      7  N   UNL     1       2.704   7.807  17.874  0.00  0.00    +0.000 N 
ATOM      8  C   UNL     1       2.056   9.024  17.843  0.00  0.00    +0.000 C 
ATOM      9  O   UNL     1       2.639  10.047  17.474  0.00  0.00    +0.000 OA
ATOM     10  C   UNL     1       2.244   6.592  18.474  0.00  0.00    +0.000 C 
ENDROOT
BRANCH   1  11
ATOM     11  C   UNL     1       1.815   4.300  18.517  0.00  0.00    +0.000 C 
BRANCH  11  13
ATOM     12  C   UNL     1       2.114   3.896  20.947  0.00  0.00    +0.000 C 
ATOM     13  N   UNL     1       2.250   3.367  19.587  0.00  0.00    +0.000 NA
ATOM     14  C   UNL     1       1.555   2.078  19.498  0.00  0.00    +0.000 C 
ENDBRANCH  11  13
ENDBRANCH   1  11
BRANCH   8  15
ATOM     15  C   UNL     1       0.580   9.068  18.245  0.00  0.00    +0.000 C 
BRANCH  15  16
ATOM     16  C   UNL     1       0.330   9.598  19.638  0.00  0.00    +0.000 A 
ATOM     17  C   UNL     1       0.896   8.967  20.773  0.00  0.00    +0.000 A 
ATOM     18  C   UNL     1       0.644   9.436  22.067  0.00  0.00    +0.000 A 
ATOM     19  C   UNL     1      -0.183  10.530  22.200  0.00  0.00    +0.000 A 
ATOM     20  C   UNL     1      -0.744  11.152  21.109  0.00  0.00    +0.000 A 
ATOM     21  C   UNL     1      -0.507  10.713  19.822  0.00  0.00    +0.000 A 
ATOM     22  O   UNL     1      -1.530  12.203  21.456  0.00  0.00    +0.000 OA
ATOM     23  C   UNL     1      -1.391  12.179  22.894  0.00  0.00    +0.000 C 
ATOM     24  O   UNL     1      -0.545  11.114  23.374  0.00  0.00    +0.000 OA
ENDBRANCH  15  16
ENDBRANCH   8  15
TORSDOF 4
ENDMDL
MODEL 4
REMARK VINA RESULT:      -7.0      1.779      3.281
REMARK  Name = 
REMARK  6 active torsions:
REMARK  status: ('A' for Active; 'I' for Inactive)
REMARK    1  A    between atoms: C_1  and  N_2
REMARK    2  A    between atoms: N_2  and  C_3
REMARK    3  A    between atoms: N_2  and  C_4
REMARK    4  A    between atoms: C_4  and  C_5
REMARK    5  A    between atoms: C_12  and  C_14
REMARK    6  A    between atoms: C_14  and  C_15
REMARK                            x       y       z     vdW  Elec       q    Type
REMARK                         _______ _______ _______ _____ _____    ______ ____
ROOT
ATOM      1  C   UNL     1       4.322   5.373  18.199  0.00  0.00    +0.000 C 
ATOM      2  C   UNL     1       5.038   3.935  18.192  0.00  0.00    +0.000 C 
ATOM      3  O   UNL     1       4.962   3.168  19.385  0.00  0.00    +0.000 OA
ATOM      4  C   UNL     1       3.771   3.520  20.017  0.00  0.00    +0.000 C 
ATOM      5  C   UNL     1       3.187   4.587  19.135  0.00  0.00    +0.000 C 
ATOM      6  C   UNL     1       2.553   5.631  20.060  0.00  0.00    +0.000 C 
ATOM      7  N   UNL     1       2.531   6.760  19.199  0.00  0.00    +0.000 N 
ATOM      8  C   UNL     1       1.870   7.936  19.481  0.00  0.00    +0.000 C 
ATOM      9  O   UNL     1       1.254   8.083  20.540  0.00  0.00    +0.000 OA
ATOM     10  C   UNL     1       3.095   6.359  17.947  0.00  0.00    +0.000 C 
ENDROOT
BRANCH   1  11
ATOM     11  C   UNL     1       4.776   5.496  16.579  0.00  0.00    +0.000 C 
BRANCH  11  13
ATOM     12  C   UNL     1       6.769   6.847  17.183  0.00  0.00    +0.000 C 
ATOM     13  N   UNL     1       6.025   6.158  16.124  0.00  0.00    +0.000 NA
ATOM     14  C   UNL     1       6.919   5.217  15.440  0.00  0.00    +0.000 C 
ENDBRANCH  11  13
ENDBRANCH   1  11
BRANCH   8  15
ATOM     15  C   UNL     1       1.951   9.075  18.462  0.00  0.00    +0.000 C 
BRANCH  15  16
ATOM     16  C   UNL     1       0.678   9.875  18.321  0.00  0.00    +0.000 A 
ATOM     17  C   UNL     1       0.534  11.137  18.946  0.00  0.00    +0.000 A 
ATOM     18  C   UNL     1      -0.654  11.870  18.844  0.00  0.00    +0.000 A 
ATOM     19  C   UNL     1      -1.685  11.314  18.117  0.00  0.00    +0.000 A 
ATOM     20  C   UNL     1      -1.563  10.088  17.505  0.00  0.00    +0.000 A 
ATOM     21  C   UNL     1      -0.401   9.348  17.588  0.00  0.00    +0.000 A 
ATOM     22  O   UNL     1      -2.693   9.720  16.848  0.00  0.00    +0.000 OA
ATOM     23  C   UNL     1      -3.538  10.863  17.105  0.00  0.00    +0.000 C 
ATOM     24  O   UNL     1      -2.909  11.875  17.918  0.00  0.00    +0.000 OA
ENDBRANCH  15  16
ENDBRANCH   8  15
TORSDOF 4
ENDMDL
MODEL 5
REMARK VINA RESULT:      -7.0      1.830      3.288
REMARK  Name = 
REMARK  6 active torsions:
REMARK  status: ('A' for Active; 'I' for Inactive)
REMARK    1  A    between atoms: C_1  and  N_2
REMARK    2  A    between atoms: N_2  and  C_3
REMARK    3  A    between atoms: N_2  and  C_4
REMARK    4  A    between atoms: C_4  and  C_5
REMARK    5  A    between atoms: C_12  and  C_14
REMARK    6  A    between atoms: C_14  and  C_15
REMARK                            x       y       z     vdW  Elec       q    Type
REMARK                         _______ _______ _______ _____ _____    ______ ____
ROOT
ATOM      1  C   UNL     1       3.743   4.653  18.811  0.00  0.00    +0.000 C 
ATOM      2  C   UNL     1       4.197   3.112  18.829  0.00  0.00    +0.000 C 
ATOM      3  O   UNL     1       4.024   2.401  20.045  0.00  0.00    +0.000 OA
ATOM      4  C   UNL     1       2.932   2.970  20.696  0.00  0.00    +0.000 C 
ATOM      5  C   UNL     1       2.516   4.101  19.797  0.00  0.00    +0.000 C 
ATOM      6  C   UNL     1       2.101   5.262  20.706  0.00  0.00    +0.000 C 
ATOM      7  N   UNL     1       2.250   6.356  19.813  0.00  0.00    +0.000 N 
ATOM      8  C   UNL     1       1.813   7.636  20.077  0.00  0.00    +0.000 C 
ATOM      9  O   UNL     1       1.262   7.914  21.145  0.00  0.00    +0.000 OA
ATOM     10  C   UNL     1       2.700   5.831  18.560  0.00  0.00    +0.000 C 
ENDROOT
BRANCH   1  11
ATOM     11  C   UNL     1       4.164   4.655  17.177  0.00  0.00    +0.000 C 
BRANCH  11  13
ATOM     12  C   UNL     1       6.349   4.177  16.102  0.00  0.00    +0.000 C 
ATOM     13  N   UNL     1       5.449   5.190  16.661  0.00  0.00    +0.000 NA
ATOM     14  C   UNL     1       5.237   6.248  15.666  0.00  0.00    +0.000 C 
ENDBRANCH  11  13
ENDBRANCH   1  11
BRANCH   8  15
ATOM     15  C   UNL     1       2.061   8.718  19.022  0.00  0.00    +0.000 C 
BRANCH  15  16
ATOM     16  C   UNL     1       0.902   9.665  18.818  0.00  0.00    +0.000 A 
ATOM     17  C   UNL     1       0.778  10.846  19.590  0.00  0.00    +0.000 A 
ATOM     18  C   UNL     1      -0.309  11.712  19.426  0.00  0.00    +0.000 A 
ATOM     19  C   UNL     1      -1.262  11.370  18.490  0.00  0.00    +0.000 A 
ATOM     20  C   UNL     1      -1.159  10.225  17.735  0.00  0.00    +0.000 A 
ATOM     21  C   UNL     1      -0.095   9.357  17.874  0.00  0.00    +0.000 A 
ATOM     22  O   UNL     1      -2.202  10.070  16.880  0.00  0.00    +0.000 OA
ATOM     23  C   UNL     1      -2.970  11.258  17.175  0.00  0.00    +0.000 C 
ATOM     24  O   UNL     1      -2.385  12.083  18.203  0.00  0.00    +0.000 OA
ENDBRANCH  15  16
ENDBRANCH   8  15
TORSDOF 4
ENDMDL
MODEL 6
REMARK VINA RESULT:      -7.0      2.884      5.069
REMARK  Name = 
REMARK  6 active torsions:
REMARK  status: ('A' for Active; 'I' for Inactive)
REMARK    1  A    between atoms: C_1  and  N_2
REMARK    2  A    between atoms: N_2  and  C_3
REMARK    3  A    between atoms: N_2  and  C_4
REMARK    4  A    between atoms: C_4  and  C_5
REMARK    5  A    between atoms: C_12  and  C_14
REMARK    6  A    between atoms: C_14  and  C_15
REMARK                            x       y       z     vdW  Elec       q    Type
REMARK                         _______ _______ _______ _____ _____    ______ ____
ROOT
ATOM      1  C   UNL     1       6.232   5.279  16.476  0.00  0.00    +0.000 C 
ATOM      2  C   UNL     1       7.212   4.934  15.251  0.00  0.00    +0.000 C 
ATOM      3  O   UNL     1       6.884   3.802  14.459  0.00  0.00    +0.000 OA
ATOM      4  C   UNL     1       5.498   3.667  14.499  0.00  0.00    +0.000 C 
ATOM      5  C   UNL     1       5.048   4.768  15.419  0.00  0.00    +0.000 C 
ATOM      6  C   UNL     1       3.896   4.204  16.257  0.00  0.00    +0.000 C 
ATOM      7  N   UNL     1       3.930   5.086  17.370  0.00  0.00    +0.000 N 
ATOM      8  C   UNL     1       2.960   5.137  18.347  0.00  0.00    +0.000 C 
ATOM      9  O   UNL     1       1.982   4.385  18.315  0.00  0.00    +0.000 OA
ATOM     10  C   UNL     1       4.991   6.020  17.147  0.00  0.00    +0.000 C 
ENDROOT
BRANCH   1  11
ATOM     11  C   UNL     1       7.206   6.629  16.746  0.00  0.00    +0.000 C 
BRANCH  11  13
ATOM     12  C   UNL     1       8.094   6.321  19.043  0.00  0.00    +0.000 C 
ATOM     13  N   UNL     1       7.438   7.219  18.089  0.00  0.00    +0.000 NA
ATOM     14  C   UNL     1       8.197   8.473  18.006  0.00  0.00    +0.000 C 
ENDBRANCH  11  13
ENDBRANCH   1  11
BRANCH   8  15
ATOM     15  C   UNL     1       3.143   6.130  19.498  0.00  0.00    +0.000 C 
BRANCH  15  16
ATOM     16  C   UNL     1       2.311   7.385  19.375  0.00  0.00    +0.000 A 
ATOM     17  C   UNL     1       2.214   8.081  18.146  0.00  0.00    +0.000 A 
ATOM     18  C   UNL     1       1.469   9.260  18.034  0.00  0.00    +0.000 A 
ATOM     19  C   UNL     1       0.839   9.727  19.167  0.00  0.00    +0.000 A 
ATOM     20  C   UNL     1       0.926   9.065  20.370  0.00  0.00    +0.000 A 
ATOM     21  C   UNL     1       1.649   7.898  20.506  0.00  0.00    +0.000 A 
ATOM     22  O   UNL     1       0.240   9.693  21.360  0.00  0.00    +0.000 OA
ATOM     23  C   UNL     1      -0.300  10.822  20.638  0.00  0.00    +0.000 C 
ATOM     24  O   UNL     1       0.083  10.856  19.248  0.00  0.00    +0.000 OA
ENDBRANCH  15  16
ENDBRANCH   8  15
TORSDOF 4
ENDMDL
MODEL 7
REMARK VINA RESULT:      -7.0      1.934      2.868
REMARK  Name = 
REMARK  6 active torsions:
REMARK  status: ('A' for Active; 'I' for Inactive)
REMARK    1  A    between atoms: C_1  and  N_2
REMARK    2  A    between atoms: N_2  and  C_3
REMARK    3  A    between atoms: N_2  and  C_4
REMARK    4  A    between atoms: C_4  and  C_5
REMARK    5  A    between atoms: C_12  and  C_14
REMARK    6  A    between atoms: C_14  and  C_15
REMARK                            x       y       z     vdW  Elec       q    Type
REMARK                         _______ _______ _______ _____ _____    ______ ____
ROOT
ATOM      1  C   UNL     1       3.223   4.911  18.084  0.00  0.00    +0.000 C 
ATOM      2  C   UNL     1       4.125   3.703  17.529  0.00  0.00    +0.000 C 
ATOM      3  O   UNL     1       4.858   3.937  16.336  0.00  0.00    +0.000 OA
ATOM      4  C   UNL     1       5.151   5.299  16.302  0.00  0.00    +0.000 C 
ATOM      5  C   UNL     1       4.487   5.850  17.532  0.00  0.00    +0.000 C 
ATOM      6  C   UNL     1       3.911   7.217  17.152  0.00  0.00    +0.000 C 
ATOM      7  N   UNL     1       2.918   7.368  18.156  0.00  0.00    +0.000 N 
ATOM      8  C   UNL     1       2.224   8.535  18.391  0.00  0.00    +0.000 C 
ATOM      9  O   UNL     1       2.424   9.544  17.708  0.00  0.00    +0.000 OA
ATOM     10  C   UNL     1       2.961   6.201  18.983  0.00  0.00    +0.000 C 
ENDROOT
BRANCH   1  11
ATOM     11  C   UNL     1       2.855   3.907  19.388  0.00  0.00    +0.000 C 
BRANCH  11  13
ATOM     12  C   UNL     1       0.839   2.559  18.861  0.00  0.00    +0.000 C 
ATOM     13  N   UNL     1       1.470   3.524  19.764  0.00  0.00    +0.000 NA
ATOM     14  C   UNL     1       1.403   3.015  21.139  0.00  0.00    +0.000 C 
ENDBRANCH  11  13
ENDBRANCH   1  11
BRANCH   8  15
ATOM     15  C   UNL     1       1.168   8.541  19.499  0.00  0.00    +0.000 C 
BRANCH  15  16
ATOM     16  C   UNL     1       0.469   9.866  19.685  0.00  0.00    +0.000 A 
ATOM     17  C   UNL     1      -0.592  10.260  18.833  0.00  0.00    +0.000 A 
ATOM     18  C   UNL     1      -1.225  11.499  18.982  0.00  0.00    +0.000 A 
ATOM     19  C   UNL     1      -0.772  12.330  19.985  0.00  0.00    +0.000 A 
ATOM     20  C   UNL     1       0.260  11.965  20.818  0.00  0.00    +0.000 A 
ATOM     21  C   UNL     1       0.896  10.747  20.695  0.00  0.00    +0.000 A 
ATOM     22  O   UNL     1       0.556  12.926  21.731  0.00  0.00    +0.000 OA
ATOM     23  C   UNL     1      -0.418  13.936  21.383  0.00  0.00    +0.000 C 
ATOM     24  O   UNL     1      -1.258  13.568  20.270  0.00  0.00    +0.000 OA
ENDBRANCH  15  16
ENDBRANCH   8  15
TORSDOF 4
ENDMDL
MODEL 8
REMARK VINA RESULT:      -7.0      2.707      7.885
REMARK  Name = 
REMARK  6 active torsions:
REMARK  status: ('A' for Active; 'I' for Inactive)
REMARK    1  A    between atoms: C_1  and  N_2
REMARK    2  A    between atoms: N_2  and  C_3
REMARK    3  A    between atoms: N_2  and  C_4
REMARK    4  A    between atoms: C_4  and  C_5
REMARK    5  A    between atoms: C_12  and  C_14
REMARK    6  A    between atoms: C_14  and  C_15
REMARK                            x       y       z     vdW  Elec       q    Type
REMARK                         _______ _______ _______ _____ _____    ______ ____
ROOT
ATOM      1  C   UNL     1      -0.752  11.255  18.984  0.00  0.00    +0.000 C 
ATOM      2  C   UNL     1      -1.071  12.638  18.232  0.00  0.00    +0.000 C 
ATOM      3  O   UNL     1      -0.651  13.834  18.872  0.00  0.00    +0.000 OA
ATOM      4  C   UNL     1       0.480  13.517  19.621  0.00  0.00    +0.000 C 
ATOM      5  C   UNL     1       0.656  12.039  19.416  0.00  0.00    +0.000 C 
ATOM      6  C   UNL     1       1.113  11.455  20.757  0.00  0.00    +0.000 C 
ATOM      7  N   UNL     1       0.737  10.096  20.589  0.00  0.00    +0.000 N 
ATOM      8  C   UNL     1       1.104   9.080  21.445  0.00  0.00    +0.000 C 
ATOM      9  O   UNL     1       1.791   9.305  22.445  0.00  0.00    +0.000 OA
ATOM     10  C   UNL     1       0.140   9.970  19.295  0.00  0.00    +0.000 C 
ENDROOT
BRANCH   1  11
ATOM     11  C   UNL     1      -1.422  10.484  17.642  0.00  0.00    +0.000 C 
BRANCH  11  13
ATOM     12  C   UNL     1      -2.766  10.613  15.559  0.00  0.00    +0.000 C 
ATOM     13  N   UNL     1      -2.683  10.921  16.989  0.00  0.00    +0.000 NA
ATOM     14  C   UNL     1      -3.864  10.377  17.671  0.00  0.00    +0.000 C 
ENDBRANCH  11  13
ENDBRANCH   1  11
BRANCH   8  15
ATOM     15  C   UNL     1       0.607   7.664  21.143  0.00  0.00    +0.000 C 
BRANCH  15  16
ATOM     16  C   UNL     1       1.631   6.772  20.482  0.00  0.00    +0.000 A 
ATOM     17  C   UNL     1       2.413   7.236  19.396  0.00  0.00    +0.000 A 
ATOM     18  C   UNL     1       3.342   6.405  18.760  0.00  0.00    +0.000 A 
ATOM     19  C   UNL     1       3.464   5.112  19.224  0.00  0.00    +0.000 A 
ATOM     20  C   UNL     1       2.710   4.645  20.275  0.00  0.00    +0.000 A 
ATOM     21  C   UNL     1       1.791   5.445  20.922  0.00  0.00    +0.000 A 
ATOM     22  O   UNL     1       2.977   3.346  20.570  0.00  0.00    +0.000 OA
ATOM     23  C   UNL     1       3.997   3.053  19.589  0.00  0.00    +0.000 C 
ATOM     24  O   UNL     1       4.305   4.166  18.725  0.00  0.00    +0.000 OA
ENDBRANCH  15  16
ENDBRANCH   8  15
TORSDOF 4
ENDMDL
MODEL 9
REMARK VINA RESULT:      -6.9      2.566      4.784
REMARK  Name = 
REMARK  6 active torsions:
REMARK  status: ('A' for Active; 'I' for Inactive)
REMARK    1  A    between atoms: C_1  and  N_2
REMARK    2  A    between atoms: N_2  and  C_3
REMARK    3  A    between atoms: N_2  and  C_4
REMARK    4  A    between atoms: C_4  and  C_5
REMARK    5  A    between atoms: C_12  and  C_14
REMARK    6  A    between atoms: C_14  and  C_15
REMARK                            x       y       z     vdW  Elec       q    Type
REMARK                         _______ _______ _______ _____ _____    ______ ____
ROOT
ATOM      1  C   UNL     1       5.894   5.710  17.084  0.00  0.00    +0.000 C 
ATOM      2  C   UNL     1       6.910   5.314  15.904  0.00  0.00    +0.000 C 
ATOM      3  O   UNL     1       6.722   4.050  15.286  0.00  0.00    +0.000 OA
ATOM      4  C   UNL     1       5.363   3.755  15.369  0.00  0.00    +0.000 C 
ATOM      5  C   UNL     1       4.781   4.913  16.130  0.00  0.00    +0.000 C 
ATOM      6  C   UNL     1       3.708   4.339  17.060  0.00  0.00    +0.000 C 
ATOM      7  N   UNL     1       3.633   5.368  18.036  0.00  0.00    +0.000 N 
ATOM      8  C   UNL     1       2.663   5.441  19.012  0.00  0.00    +0.000 C 
ATOM      9  O   UNL     1       1.785   4.579  19.104  0.00  0.00    +0.000 OA
ATOM     10  C   UNL     1       4.571   6.383  17.664  0.00  0.00    +0.000 C 
ENDROOT
BRANCH   1  11
ATOM     11  C   UNL     1       6.695   7.193  17.142  0.00  0.00    +0.000 C 
BRANCH  11  13
ATOM     12  C   UNL     1       8.305   8.792  18.148  0.00  0.00    +0.000 C 
ATOM     13  N   UNL     1       7.999   7.396  17.823  0.00  0.00    +0.000 NA
ATOM     14  C   UNL     1       8.109   6.582  19.039  0.00  0.00    +0.000 C 
ENDBRANCH  11  13
ENDBRANCH   1  11
BRANCH   8  15
ATOM     15  C   UNL     1       2.723   6.603  20.007  0.00  0.00    +0.000 C 
BRANCH  15  16
ATOM     16  C   UNL     1       1.900   7.806  19.610  0.00  0.00    +0.000 A 
ATOM     17  C   UNL     1       1.920   8.299  18.282  0.00  0.00    +0.000 A 
ATOM     18  C   UNL     1       1.183   9.431  17.915  0.00  0.00    +0.000 A 
ATOM     19  C   UNL     1       0.442  10.055  18.895  0.00  0.00    +0.000 A 
ATOM     20  C   UNL     1       0.414   9.591  20.190  0.00  0.00    +0.000 A 
ATOM     21  C   UNL     1       1.128   8.475  20.576  0.00  0.00    +0.000 A 
ATOM     22  O   UNL     1      -0.369  10.351  20.999  0.00  0.00    +0.000 OA
ATOM     23  C   UNL     1      -0.842  11.342  20.059  0.00  0.00    +0.000 C 
ATOM     24  O   UNL     1      -0.324  11.166  18.725  0.00  0.00    +0.000 OA
ENDBRANCH  15  16
ENDBRANCH   8  15
TORSDOF 4
ENDMDL
