MODEL 1
REMARK VINA RESULT:      -6.8      0.000      0.000
REMARK  Name = 
REMARK  10 active torsions:
REMARK  status: ('A' for Active; 'I' for Inactive)
REMARK    1  A    between atoms: C_1  and  C_2
REMARK    2  A    between atoms: C_6  and  S_7
REMARK    3  A    between atoms: S_7  and  N_10
REMARK    4  A    between atoms: N_10  and  C_11
REMARK    5  A    between atoms: C_11  and  C_12
REMARK    6  A    between atoms: C_11  and  C_16
REMARK    7  A    between atoms: C_12  and  C_13
REMARK    8  A    between atoms: C_13  and  C_14
REMARK    9  A    between atoms: C_13  and  C_15
REMARK   10  A    between atoms: C_16  and  O_18
REMARK                            x       y       z     vdW  Elec       q    Type
REMARK                         _______ _______ _______ _____ _____    ______ ____
ROOT
ATOM      1  N   UNL     1       5.390   3.305  19.371  0.00  0.00    +0.000 NA
ATOM      2  H   UNL     1       6.082   2.999  20.068  0.00  0.00    +0.000 HD
ENDROOT
BRANCH   1   3
ATOM      3  S   UNL     1       5.593   4.975  19.203  0.00  0.00    +0.000 S 
ATOM      4  O   UNL     1       6.888   5.318  19.736  0.00  0.00    +0.000 OA
ATOM      5  O   UNL     1       4.379   5.565  19.719  0.00  0.00    +0.000 OA
BRANCH   3  11
ATOM      6  C   UNL     1       3.921   7.280  17.237  0.00  0.00    +0.000 C 
ATOM      7  C   UNL     1       4.938   6.325  16.704  0.00  0.00    +0.000 A 
ATOM      8  C   UNL     1       5.311   6.245  15.321  0.00  0.00    +0.000 A 
ATOM      9  C   UNL     1       6.272   5.289  15.085  0.00  0.00    +0.000 A 
ATOM     10  S   UNL     1       6.732   4.482  16.518  0.00  0.00    +0.000 S 
ATOM     11  C   UNL     1       5.634   5.395  17.468  0.00  0.00    +0.000 A 
ENDBRANCH   3  11
ENDBRANCH   1   3
BRANCH   1  12
ATOM     12  C   UNL     1       4.024   2.741  19.676  0.00  0.00    +0.000 C 
BRANCH  12  13
ATOM     13  C   UNL     1       4.221   2.047  21.037  0.00  0.00    +0.000 C 
ATOM     14  O   UNL     1       5.216   1.418  21.362  0.00  0.00    +0.000 OA
BRANCH  13  15
ATOM     15  O   UNL     1       3.152   2.211  21.861  0.00  0.00    +0.000 OA
ATOM     16  H   UNL     1       2.702   1.341  21.972  0.00  0.00    +0.000 HD
ENDBRANCH  13  15
ENDBRANCH  12  13
BRANCH  12  17
ATOM     17  C   UNL     1       3.499   1.718  18.654  0.00  0.00    +0.000 C 
BRANCH  17  18
ATOM     18  C   UNL     1       2.239   2.200  17.891  0.00  0.00    +0.000 C 
ATOM     19  C   UNL     1       1.006   2.292  18.796  0.00  0.00    +0.000 C 
ATOM     20  C   UNL     1       2.464   3.554  17.211  0.00  0.00    +0.000 C 
ENDBRANCH  17  18
ENDBRANCH  12  17
ENDBRANCH   1  12
TORSDOF 7
ENDMDL
MODEL 2
REMARK VINA RESULT:      -6.6      2.670      5.527
REMARK  Name = 
REMARK  10 active torsions:
REMARK  status: ('A' for Active; 'I' for Inactive)
REMARK    1  A    between atoms: C_1  and  C_2
REMARK    2  A    between atoms: C_6  and  S_7
REMARK    3  A    between atoms: S_7  and  N_10
REMARK    4  A    between atoms: N_10  and  C_11
REMARK    5  A    between atoms: C_11  and  C_12
REMARK    6  A    between atoms: C_11  and  C_16
REMARK    7  A    between atoms: C_12  and  C_13
REMARK    8  A    between atoms: C_13  and  C_14
REMARK    9  A    between atoms: C_13  and  C_15
REMARK   10  A    between atoms: C_16  and  O_18
REMARK                            x       y       z     vdW  Elec       q    Type
REMARK                         _______ _______ _______ _____ _____    ______ ____
ROOT
ATOM      1  N   UNL     1       4.878   4.739  17.009  0.00  0.00    +0.000 NA
ATOM      2  H   UNL     1       5.151   5.671  17.347  0.00  0.00    +0.000 HD
ENDROOT
BRANCH   1   3
ATOM      3  S   UNL     1       4.514   3.825  18.384  0.00  0.00    +0.000 S 
ATOM      4  O   UNL     1       5.707   3.742  19.188  0.00  0.00    +0.000 OA
ATOM      5  O   UNL     1       3.845   2.641  17.894  0.00  0.00    +0.000 OA
BRANCH   3  11
ATOM      6  C   UNL     1       2.575   2.979  21.123  0.00  0.00    +0.000 C 
ATOM      7  C   UNL     1       2.530   4.318  20.463  0.00  0.00    +0.000 A 
ATOM      8  C   UNL     1       1.662   5.383  20.875  0.00  0.00    +0.000 A 
ATOM      9  C   UNL     1       1.813   6.516  20.109  0.00  0.00    +0.000 A 
ATOM     10  S   UNL     1       2.992   6.310  18.892  0.00  0.00    +0.000 S 
ATOM     11  C   UNL     1       3.302   4.692  19.369  0.00  0.00    +0.000 A 
ENDBRANCH   3  11
ENDBRANCH   1   3
BRANCH   1  12
ATOM     12  C   UNL     1       5.867   4.214  15.998  0.00  0.00    +0.000 C 
BRANCH  12  13
ATOM     13  C   UNL     1       7.206   4.817  16.463  0.00  0.00    +0.000 C 
ATOM     14  O   UNL     1       8.129   4.178  16.944  0.00  0.00    +0.000 OA
BRANCH  13  15
ATOM     15  O   UNL     1       7.260   6.162  16.276  0.00  0.00    +0.000 OA
ATOM     16  H   UNL     1       7.083   6.357  15.326  0.00  0.00    +0.000 HD
ENDBRANCH  13  15
ENDBRANCH  12  13
BRANCH  12  17
ATOM     17  C   UNL     1       5.597   4.637  14.544  0.00  0.00    +0.000 C 
BRANCH  17  18
ATOM     18  C   UNL     1       6.575   4.000  13.523  0.00  0.00    +0.000 C 
ATOM     19  C   UNL     1       5.846   3.329  12.355  0.00  0.00    +0.000 C 
ATOM     20  C   UNL     1       7.572   5.024  12.970  0.00  0.00    +0.000 C 
ENDBRANCH  17  18
ENDBRANCH  12  17
ENDBRANCH   1  12
TORSDOF 7
ENDMDL
MODEL 3
REMARK VINA RESULT:      -6.6      2.486      5.328
REMARK  Name = 
REMARK  10 active torsions:
REMARK  status: ('A' for Active; 'I' for Inactive)
REMARK    1  A    between atoms: C_1  and  C_2
REMARK    2  A    between atoms: C_6  and  S_7
REMARK    3  A    between atoms: S_7  and  N_10
REMARK    4  A    between atoms: N_10  and  C_11
REMARK    5  A    between atoms: C_11  and  C_12
REMARK    6  A    between atoms: C_11  and  C_16
REMARK    7  A    between atoms: C_12  and  C_13
REMARK    8  A    between atoms: C_13  and  C_14
REMARK    9  A    between atoms: C_13  and  C_15
REMARK   10  A    between atoms: C_16  and  O_18
REMARK                            x       y       z     vdW  Elec       q    Type
REMARK                         _______ _______ _______ _____ _____    ______ ____
ROOT
ATOM      1  N   UNL     1       4.776   4.923  17.267  0.00  0.00    +0.000 NA
ATOM      2  H   UNL     1       4.778   5.951  17.251  0.00  0.00    +0.000 HD
ENDROOT
BRANCH   1   3
ATOM      3  S   UNL     1       4.905   4.474  18.892  0.00  0.00    +0.000 S 
ATOM      4  O   UNL     1       5.580   5.537  19.592  0.00  0.00    +0.000 OA
ATOM      5  O   UNL     1       5.421   3.125  18.880  0.00  0.00    +0.000 OA
BRANCH   3  11
ATOM      6  C   UNL     1       2.422   6.772  19.624  0.00  0.00    +0.000 C 
ATOM      7  C   UNL     1       2.298   5.308  19.897  0.00  0.00    +0.000 A 
ATOM      8  C   UNL     1       1.151   4.705  20.512  0.00  0.00    +0.000 A 
ATOM      9  C   UNL     1       1.279   3.342  20.649  0.00  0.00    +0.000 A 
ATOM     10  S   UNL     1       2.772   2.778  20.043  0.00  0.00    +0.000 S 
ATOM     11  C   UNL     1       3.271   4.359  19.605  0.00  0.00    +0.000 A 
ENDBRANCH   3  11
ENDBRANCH   1   3
BRANCH   1  12
ATOM     12  C   UNL     1       5.743   4.361  16.253  0.00  0.00    +0.000 C 
BRANCH  12  13
ATOM     13  C   UNL     1       7.090   4.989  16.659  0.00  0.00    +0.000 C 
ATOM     14  O   UNL     1       8.051   4.366  17.083  0.00  0.00    +0.000 OA
BRANCH  13  15
ATOM     15  O   UNL     1       7.103   6.338  16.489  0.00  0.00    +0.000 OA
ATOM     16  H   UNL     1       7.327   6.536  15.550  0.00  0.00    +0.000 HD
ENDBRANCH  13  15
ENDBRANCH  12  13
BRANCH  12  17
ATOM     17  C   UNL     1       5.433   4.722  14.790  0.00  0.00    +0.000 C 
BRANCH  17  18
ATOM     18  C   UNL     1       6.373   4.027  13.771  0.00  0.00    +0.000 C 
ATOM     19  C   UNL     1       5.605   3.382  12.613  0.00  0.00    +0.000 C 
ATOM     20  C   UNL     1       7.417   4.994  13.204  0.00  0.00    +0.000 C 
ENDBRANCH  17  18
ENDBRANCH  12  17
ENDBRANCH   1  12
TORSDOF 7
ENDMDL
MODEL 4
REMARK VINA RESULT:      -6.5      2.343      5.481
REMARK  Name = 
REMARK  10 active torsions:
REMARK  status: ('A' for Active; 'I' for Inactive)
REMARK    1  A    between atoms: C_1  and  C_2
REMARK    2  A    between atoms: C_6  and  S_7
REMARK    3  A    between atoms: S_7  and  N_10
REMARK    4  A    between atoms: N_10  and  C_11
REMARK    5  A    between atoms: C_11  and  C_12
REMARK    6  A    between atoms: C_11  and  C_16
REMARK    7  A    between atoms: C_12  and  C_13
REMARK    8  A    between atoms: C_13  and  C_14
REMARK    9  A    between atoms: C_13  and  C_15
REMARK   10  A    between atoms: C_16  and  O_18
REMARK                            x       y       z     vdW  Elec       q    Type
REMARK                         _______ _______ _______ _____ _____    ______ ____
ROOT
ATOM      1  N   UNL     1       4.551   5.069  17.019  0.00  0.00    +0.000 NA
ATOM      2  H   UNL     1       4.483   6.096  17.026  0.00  0.00    +0.000 HD
ENDROOT
BRANCH   1   3
ATOM      3  S   UNL     1       4.476   4.579  18.635  0.00  0.00    +0.000 S 
ATOM      4  O   UNL     1       4.529   5.760  19.459  0.00  0.00    +0.000 OA
ATOM      5  O   UNL     1       5.451   3.520  18.762  0.00  0.00    +0.000 OA
BRANCH   3  11
ATOM      6  C   UNL     1       1.921   5.164  20.895  0.00  0.00    +0.000 C 
ATOM      7  C   UNL     1       1.887   4.071  19.878  0.00  0.00    +0.000 A 
ATOM      8  C   UNL     1       0.808   3.135  19.746  0.00  0.00    +0.000 A 
ATOM      9  C   UNL     1       1.015   2.228  18.731  0.00  0.00    +0.000 A 
ATOM     10  S   UNL     1       2.500   2.492  17.933  0.00  0.00    +0.000 S 
ATOM     11  C   UNL     1       2.892   3.816  18.950  0.00  0.00    +0.000 A 
ENDBRANCH   3  11
ENDBRANCH   1   3
BRANCH   1  12
ATOM     12  C   UNL     1       5.689   4.604  16.144  0.00  0.00    +0.000 C 
BRANCH  12  13
ATOM     13  C   UNL     1       6.900   5.384  16.690  0.00  0.00    +0.000 C 
ATOM     14  O   UNL     1       7.014   6.600  16.668  0.00  0.00    +0.000 OA
BRANCH  13  15
ATOM     15  O   UNL     1       7.849   4.565  17.214  0.00  0.00    +0.000 OA
ATOM     16  H   UNL     1       7.734   4.532  18.192  0.00  0.00    +0.000 HD
ENDBRANCH  13  15
ENDBRANCH  12  13
BRANCH  12  17
ATOM     17  C   UNL     1       5.522   4.906  14.645  0.00  0.00    +0.000 C 
BRANCH  17  18
ATOM     18  C   UNL     1       6.530   4.145  13.746  0.00  0.00    +0.000 C 
ATOM     19  C   UNL     1       5.846   3.435  12.573  0.00  0.00    +0.000 C 
ATOM     20  C   UNL     1       7.625   5.069  13.203  0.00  0.00    +0.000 C 
ENDBRANCH  17  18
ENDBRANCH  12  17
ENDBRANCH   1  12
TORSDOF 7
ENDMDL
MODEL 5
REMARK VINA RESULT:      -6.5      2.358      3.663
REMARK  Name = 
REMARK  10 active torsions:
REMARK  status: ('A' for Active; 'I' for Inactive)
REMARK    1  A    between atoms: C_1  and  C_2
REMARK    2  A    between atoms: C_6  and  S_7
REMARK    3  A    between atoms: S_7  and  N_10
REMARK    4  A    between atoms: N_10  and  C_11
REMARK    5  A    between atoms: C_11  and  C_12
REMARK    6  A    between atoms: C_11  and  C_16
REMARK    7  A    between atoms: C_12  and  C_13
REMARK    8  A    between atoms: C_13  and  C_14
REMARK    9  A    between atoms: C_13  and  C_15
REMARK   10  A    between atoms: C_16  and  O_18
REMARK                            x       y       z     vdW  Elec       q    Type
REMARK                         _______ _______ _______ _____ _____    ______ ____
ROOT
ATOM      1  N   UNL     1       3.743   5.027  20.034  0.00  0.00    +0.000 NA
ATOM      2  H   UNL     1       4.231   5.841  20.431  0.00  0.00    +0.000 HD
ENDROOT
BRANCH   1   3
ATOM      3  S   UNL     1       4.786   4.368  18.878  0.00  0.00    +0.000 S 
ATOM      4  O   UNL     1       4.013   4.086  17.695  0.00  0.00    +0.000 OA
ATOM      5  O   UNL     1       5.523   3.334  19.568  0.00  0.00    +0.000 OA
BRANCH   3  11
ATOM      6  C   UNL     1       5.010   6.687  16.319  0.00  0.00    +0.000 C 
ATOM      7  C   UNL     1       6.063   6.507  17.363  0.00  0.00    +0.000 A 
ATOM      8  C   UNL     1       7.287   7.255  17.401  0.00  0.00    +0.000 A 
ATOM      9  C   UNL     1       8.089   6.905  18.463  0.00  0.00    +0.000 A 
ATOM     10  S   UNL     1       7.382   5.680  19.419  0.00  0.00    +0.000 S 
ATOM     11  C   UNL     1       5.999   5.593  18.409  0.00  0.00    +0.000 A 
ENDBRANCH   3  11
ENDBRANCH   1   3
BRANCH   1  12
ATOM     12  C   UNL     1       2.324   5.373  19.657  0.00  0.00    +0.000 C 
BRANCH  12  13
ATOM     13  C   UNL     1       2.338   6.911  19.585  0.00  0.00    +0.000 C 
ATOM     14  O   UNL     1       2.587   7.560  18.580  0.00  0.00    +0.000 OA
BRANCH  13  15
ATOM     15  O   UNL     1       2.036   7.487  20.778  0.00  0.00    +0.000 OA
ATOM     16  H   UNL     1       2.316   6.880  21.502  0.00  0.00    +0.000 HD
ENDBRANCH  13  15
ENDBRANCH  12  13
BRANCH  12  17
ATOM     17  C   UNL     1       1.254   4.921  20.666  0.00  0.00    +0.000 C 
BRANCH  17  18
ATOM     18  C   UNL     1       0.857   3.429  20.518  0.00  0.00    +0.000 C 
ATOM     19  C   UNL     1       1.056   2.910  19.090  0.00  0.00    +0.000 C 
ATOM     20  C   UNL     1       1.631   2.532  21.489  0.00  0.00    +0.000 C 
ENDBRANCH  17  18
ENDBRANCH  12  17
ENDBRANCH   1  12
TORSDOF 7
ENDMDL
MODEL 6
REMARK VINA RESULT:      -6.5      2.131      5.081
REMARK  Name = 
REMARK  10 active torsions:
REMARK  status: ('A' for Active; 'I' for Inactive)
REMARK    1  A    between atoms: C_1  and  C_2
REMARK    2  A    between atoms: C_6  and  S_7
REMARK    3  A    between atoms: S_7  and  N_10
REMARK    4  A    between atoms: N_10  and  C_11
REMARK    5  A    between atoms: C_11  and  C_12
REMARK    6  A    between atoms: C_11  and  C_16
REMARK    7  A    between atoms: C_12  and  C_13
REMARK    8  A    between atoms: C_13  and  C_14
REMARK    9  A    between atoms: C_13  and  C_15
REMARK   10  A    between atoms: C_16  and  O_18
REMARK                            x       y       z     vdW  Elec       q    Type
REMARK                         _______ _______ _______ _____ _____    ______ ____
ROOT
ATOM      1  N   UNL     1       5.379   4.588  18.688  0.00  0.00    +0.000 NA
ATOM      2  H   UNL     1       5.310   5.124  19.564  0.00  0.00    +0.000 HD
ENDROOT
BRANCH   1   3
ATOM      3  S   UNL     1       4.587   3.120  18.968  0.00  0.00    +0.000 S 
ATOM      4  O   UNL     1       5.327   2.404  19.977  0.00  0.00    +0.000 OA
ATOM      5  O   UNL     1       4.347   2.557  17.659  0.00  0.00    +0.000 OA
BRANCH   3  11
ATOM      6  C   UNL     1       1.841   4.956  17.937  0.00  0.00    +0.000 C 
ATOM      7  C   UNL     1       1.889   4.195  19.222  0.00  0.00    +0.000 A 
ATOM      8  C   UNL     1       0.816   4.165  20.174  0.00  0.00    +0.000 A 
ATOM      9  C   UNL     1       1.105   3.390  21.273  0.00  0.00    +0.000 A 
ATOM     10  S   UNL     1       2.661   2.695  21.172  0.00  0.00    +0.000 S 
ATOM     11  C   UNL     1       2.972   3.441  19.660  0.00  0.00    +0.000 A 
ENDBRANCH   3  11
ENDBRANCH   1   3
BRANCH   1  12
ATOM     12  C   UNL     1       6.791   4.591  18.158  0.00  0.00    +0.000 C 
BRANCH  12  13
ATOM     13  C   UNL     1       7.466   5.729  18.947  0.00  0.00    +0.000 C 
ATOM     14  O   UNL     1       7.781   6.812  18.478  0.00  0.00    +0.000 OA
BRANCH  13  15
ATOM     15  O   UNL     1       7.677   5.401  20.249  0.00  0.00    +0.000 OA
ATOM     16  H   UNL     1       7.481   6.189  20.809  0.00  0.00    +0.000 HD
ENDBRANCH  13  15
ENDBRANCH  12  13
BRANCH  12  17
ATOM     17  C   UNL     1       6.919   4.871  16.651  0.00  0.00    +0.000 C 
BRANCH  17  18
ATOM     18  C   UNL     1       5.556   5.083  15.944  0.00  0.00    +0.000 C 
ATOM     19  C   UNL     1       5.179   6.564  15.831  0.00  0.00    +0.000 C 
ATOM     20  C   UNL     1       5.530   4.451  14.549  0.00  0.00    +0.000 C 
ENDBRANCH  17  18
ENDBRANCH  12  17
ENDBRANCH   1  12
TORSDOF 7
ENDMDL
MODEL 7
REMARK VINA RESULT:      -6.5      2.169      3.499
REMARK  Name = 
REMARK  10 active torsions:
REMARK  status: ('A' for Active; 'I' for Inactive)
REMARK    1  A    between atoms: C_1  and  C_2
REMARK    2  A    between atoms: C_6  and  S_7
REMARK    3  A    between atoms: S_7  and  N_10
REMARK    4  A    between atoms: N_10  and  C_11
REMARK    5  A    between atoms: C_11  and  C_12
REMARK    6  A    between atoms: C_11  and  C_16
REMARK    7  A    between atoms: C_12  and  C_13
REMARK    8  A    between atoms: C_13  and  C_14
REMARK    9  A    between atoms: C_13  and  C_15
REMARK   10  A    between atoms: C_16  and  O_18
REMARK                            x       y       z     vdW  Elec       q    Type
REMARK                         _______ _______ _______ _____ _____    ______ ____
ROOT
ATOM      1  N   UNL     1       4.231   5.689  19.983  0.00  0.00    +0.000 NA
ATOM      2  H   UNL     1       4.606   6.646  19.940  0.00  0.00    +0.000 HD
ENDROOT
BRANCH   1   3
ATOM      3  S   UNL     1       5.415   4.686  19.311  0.00  0.00    +0.000 S 
ATOM      4  O   UNL     1       4.999   3.320  19.502  0.00  0.00    +0.000 OA
ATOM      5  O   UNL     1       6.673   5.176  19.827  0.00  0.00    +0.000 OA
BRANCH   3  11
ATOM      6  C   UNL     1       6.644   7.214  17.292  0.00  0.00    +0.000 C 
ATOM      7  C   UNL     1       5.977   5.987  16.762  0.00  0.00    +0.000 A 
ATOM      8  C   UNL     1       5.753   5.738  15.368  0.00  0.00    +0.000 A 
ATOM      9  C   UNL     1       5.123   4.536  15.138  0.00  0.00    +0.000 A 
ATOM     10  S   UNL     1       4.798   3.700  16.591  0.00  0.00    +0.000 S 
ATOM     11  C   UNL     1       5.482   4.949  17.545  0.00  0.00    +0.000 A 
ENDBRANCH   3  11
ENDBRANCH   1   3
BRANCH   1  12
ATOM     12  C   UNL     1       2.816   5.635  19.462  0.00  0.00    +0.000 C 
BRANCH  12  13
ATOM     13  C   UNL     1       2.589   7.051  18.900  0.00  0.00    +0.000 C 
ATOM     14  O   UNL     1       2.928   7.423  17.787  0.00  0.00    +0.000 OA
BRANCH  13  15
ATOM     15  O   UNL     1       1.954   7.863  19.787  0.00  0.00    +0.000 OA
ATOM     16  H   UNL     1       1.580   7.308  20.511  0.00  0.00    +0.000 HD
ENDBRANCH  13  15
ENDBRANCH  12  13
BRANCH  12  17
ATOM     17  C   UNL     1       1.744   5.330  20.522  0.00  0.00    +0.000 C 
BRANCH  17  18
ATOM     18  C   UNL     1       1.201   3.879  20.451  0.00  0.00    +0.000 C 
ATOM     19  C   UNL     1       1.387   3.252  19.066  0.00  0.00    +0.000 C 
ATOM     20  C   UNL     1       1.851   2.973  21.502  0.00  0.00    +0.000 C 
ENDBRANCH  17  18
ENDBRANCH  12  17
ENDBRANCH   1  12
TORSDOF 7
ENDMDL
MODEL 8
REMARK VINA RESULT:      -6.4      2.730      5.607
REMARK  Name = 
REMARK  10 active torsions:
REMARK  status: ('A' for Active; 'I' for Inactive)
REMARK    1  A    between atoms: C_1  and  C_2
REMARK    2  A    between atoms: C_6  and  S_7
REMARK    3  A    between atoms: S_7  and  N_10
REMARK    4  A    between atoms: N_10  and  C_11
REMARK    5  A    between atoms: C_11  and  C_12
REMARK    6  A    between atoms: C_11  and  C_16
REMARK    7  A    between atoms: C_12  and  C_13
REMARK    8  A    between atoms: C_13  and  C_14
REMARK    9  A    between atoms: C_13  and  C_15
REMARK   10  A    between atoms: C_16  and  O_18
REMARK                            x       y       z     vdW  Elec       q    Type
REMARK                         _______ _______ _______ _____ _____    ______ ____
ROOT
ATOM      1  N   UNL     1       5.128   3.894  17.388  0.00  0.00    +0.000 NA
ATOM      2  H   UNL     1       4.289   3.906  16.792  0.00  0.00    +0.000 HD
ENDROOT
BRANCH   1   3
ATOM      3  S   UNL     1       4.580   4.065  18.978  0.00  0.00    +0.000 S 
ATOM      4  O   UNL     1       4.582   5.470  19.298  0.00  0.00    +0.000 OA
ATOM      5  O   UNL     1       5.340   3.109  19.751  0.00  0.00    +0.000 OA
BRANCH   3  11
ATOM      6  C   UNL     1       1.880   4.956  20.950  0.00  0.00    +0.000 C 
ATOM      7  C   UNL     1       1.818   3.900  19.896  0.00  0.00    +0.000 A 
ATOM      8  C   UNL     1       0.644   3.129  19.606  0.00  0.00    +0.000 A 
ATOM      9  C   UNL     1       0.842   2.223  18.589  0.00  0.00    +0.000 A 
ATOM     10  S   UNL     1       2.434   2.293  17.976  0.00  0.00    +0.000 S 
ATOM     11  C   UNL     1       2.880   3.526  19.081  0.00  0.00    +0.000 A 
ENDBRANCH   3  11
ENDBRANCH   1   3
BRANCH   1  12
ATOM     12  C   UNL     1       6.189   4.825  16.853  0.00  0.00    +0.000 C 
BRANCH  12  13
ATOM     13  C   UNL     1       6.274   4.450  15.362  0.00  0.00    +0.000 C 
ATOM     14  O   UNL     1       6.549   5.228  14.462  0.00  0.00    +0.000 OA
BRANCH  13  15
ATOM     15  O   UNL     1       6.009   3.135  15.144  0.00  0.00    +0.000 OA
ATOM     16  H   UNL     1       6.087   2.651  15.999  0.00  0.00    +0.000 HD
ENDBRANCH  13  15
ENDBRANCH  12  13
BRANCH  12  17
ATOM     17  C   UNL     1       7.577   4.667  17.498  0.00  0.00    +0.000 C 
BRANCH  17  18
ATOM     18  C   UNL     1       8.052   5.932  18.257  0.00  0.00    +0.000 C 
ATOM     19  C   UNL     1       7.347   7.204  17.773  0.00  0.00    +0.000 C 
ATOM     20  C   UNL     1       7.860   5.798  19.771  0.00  0.00    +0.000 C 
ENDBRANCH  17  18
ENDBRANCH  12  17
ENDBRANCH   1  12
TORSDOF 7
ENDMDL
MODEL 9
REMARK VINA RESULT:      -6.4      2.058      3.516
REMARK  Name = 
REMARK  10 active torsions:
REMARK  status: ('A' for Active; 'I' for Inactive)
REMARK    1  A    between atoms: C_1  and  C_2
REMARK    2  A    between atoms: C_6  and  S_7
REMARK    3  A    between atoms: S_7  and  N_10
REMARK    4  A    between atoms: N_10  and  C_11
REMARK    5  A    between atoms: C_11  and  C_12
REMARK    6  A    between atoms: C_11  and  C_16
REMARK    7  A    between atoms: C_12  and  C_13
REMARK    8  A    between atoms: C_13  and  C_14
REMARK    9  A    between atoms: C_13  and  C_15
REMARK   10  A    between atoms: C_16  and  O_18
REMARK                            x       y       z     vdW  Elec       q    Type
REMARK                         _______ _______ _______ _____ _____    ______ ____
ROOT
ATOM      1  N   UNL     1       4.323   5.645  19.889  0.00  0.00    +0.000 NA
ATOM      2  H   UNL     1       4.694   6.602  19.807  0.00  0.00    +0.000 HD
ENDROOT
BRANCH   1   3
ATOM      3  S   UNL     1       5.538   4.617  19.318  0.00  0.00    +0.000 S 
ATOM      4  O   UNL     1       5.176   3.267  19.670  0.00  0.00    +0.000 OA
ATOM      5  O   UNL     1       6.781   5.209  19.756  0.00  0.00    +0.000 OA
BRANCH   3  11
ATOM      6  C   UNL     1       3.489   3.387  16.814  0.00  0.00    +0.000 C 
ATOM      7  C   UNL     1       4.738   4.164  16.551  0.00  0.00    +0.000 A 
ATOM      8  C   UNL     1       5.233   4.460  15.237  0.00  0.00    +0.000 A 
ATOM      9  C   UNL     1       6.398   5.191  15.262  0.00  0.00    +0.000 A 
ATOM     10  S   UNL     1       6.905   5.527  16.858  0.00  0.00    +0.000 S 
ATOM     11  C   UNL     1       5.576   4.680  17.533  0.00  0.00    +0.000 A 
ENDBRANCH   3  11
ENDBRANCH   1   3
BRANCH   1  12
ATOM     12  C   UNL     1       2.929   5.551  19.321  0.00  0.00    +0.000 C 
BRANCH  12  13
ATOM     13  C   UNL     1       2.568   7.016  19.015  0.00  0.00    +0.000 C 
ATOM     14  O   UNL     1       1.960   7.758  19.771  0.00  0.00    +0.000 OA
BRANCH  13  15
ATOM     15  O   UNL     1       3.008   7.412  17.791  0.00  0.00    +0.000 OA
ATOM     16  H   UNL     1       3.462   8.282  17.885  0.00  0.00    +0.000 HD
ENDBRANCH  13  15
ENDBRANCH  12  13
BRANCH  12  17
ATOM     17  C   UNL     1       1.877   4.956  20.273  0.00  0.00    +0.000 C 
BRANCH  17  18
ATOM     18  C   UNL     1       1.826   3.407  20.245  0.00  0.00    +0.000 C 
ATOM     19  C   UNL     1       1.627   2.803  21.639  0.00  0.00    +0.000 C 
ATOM     20  C   UNL     1       0.727   2.887  19.313  0.00  0.00    +0.000 C 
ENDBRANCH  17  18
ENDBRANCH  12  17
ENDBRANCH   1  12
TORSDOF 7
ENDMDL
