MODEL 1
REMARK VINA RESULT:      -6.8      0.000      0.000
REMARK  Name = 
REMARK  10 active torsions:
REMARK  status: ('A' for Active; 'I' for Inactive)
REMARK    1  A    between atoms: C_1  and  C_2
REMARK    2  A    between atoms: C_2  and  C_3
REMARK    3  A    between atoms: C_2  and  C_4
REMARK    4  A    between atoms: C_5  and  O_6
REMARK    5  A    between atoms: C_7  and  O_8
REMARK    6  A    between atoms: C_11  and  O_12
REMARK    7  A    between atoms: C_15  and  O_16
REMARK    8  A    between atoms: C_18  and  C_19
REMARK    9  A    between atoms: C_18  and  C_20
REMARK   10  A    between atoms: C_24  and  C_25
REMARK                            x       y       z     vdW  Elec       q    Type
REMARK                         _______ _______ _______ _____ _____    ______ ____
ROOT
ATOM      1  C   UNL     1       2.313   7.232  19.378  0.00  0.00    +0.000 A 
ATOM      2  C   UNL     1       2.417   8.097  18.288  0.00  0.00    +0.000 A 
ATOM      3  C   UNL     1       1.766   9.331  18.290  0.00  0.00    +0.000 A 
ATOM      4  C   UNL     1       1.101   9.833  19.426  0.00  0.00    +0.000 A 
ATOM      5  C   UNL     1       1.030   9.022  20.545  0.00  0.00    +0.000 A 
ATOM      6  C   UNL     1       1.577   7.711  20.500  0.00  0.00    +0.000 A 
ATOM      7  C   UNL     1       0.414   9.575  21.770  0.00  0.00    +0.000 C 
ATOM      8  O   UNL     1       0.173   8.870  22.753  0.00  0.00    +0.000 OA
ATOM      9  C   UNL     1       0.016  11.060  21.832  0.00  0.00    +0.000 C 
ATOM     10  C   UNL     1       0.084  11.854  20.728  0.00  0.00    +0.000 C 
ATOM     11  C   UNL     1      -0.589  13.278  20.481  0.00  0.00    +0.000 C 
ATOM     12  C   UNL     1      -0.471  14.369  21.559  0.00  0.00    +0.000 C 
ATOM     13  C   UNL     1      -0.234  14.085  19.151  0.00  0.00    +0.000 C 
ATOM     14  C   UNL     1      -2.035  12.818  20.288  0.00  0.00    +0.000 C 
ATOM     15  C   UNL     1      -2.094  11.936  19.030  0.00  0.00    +0.000 C 
ATOM     16  C   UNL     1      -0.774  11.194  18.569  0.00  0.00    +0.000 C 
ATOM     17  C   UNL     1       0.556  11.252  19.437  0.00  0.00    +0.000 C 
ATOM     18  C   UNL     1       1.848  12.090  19.148  0.00  0.00    +0.000 C 
ENDROOT
BRANCH   1  20
ATOM     19  C   UNL     1       4.488   5.921  19.082  0.00  0.00    +0.000 C 
ATOM     20  C   UNL     1       2.982   5.863  19.328  0.00  0.00    +0.000 C 
ATOM     21  C   UNL     1       2.269   4.924  18.353  0.00  0.00    +0.000 C 
ENDBRANCH   1  20
BRANCH   2  22
ATOM     22  O   UNL     1       3.173   7.848  17.170  0.00  0.00    +0.000 OA
ATOM     23  H   UNL     1       2.666   8.137  16.390  0.00  0.00    +0.000 HD
ENDBRANCH   2  22
BRANCH   3  24
ATOM     24  O   UNL     1       1.858  10.089  17.149  0.00  0.00    +0.000 OA
ATOM     25  H   UNL     1       2.807  10.077  16.911  0.00  0.00    +0.000 HD
ENDBRANCH   3  24
BRANCH   6  26
ATOM     26  O   UNL     1       1.428   6.852  21.561  0.00  0.00    +0.000 OA
ATOM     27  H   UNL     1       0.603   6.334  21.428  0.00  0.00    +0.000 HD
ENDBRANCH   6  26
BRANCH   9  28
ATOM     28  O   UNL     1      -0.565  11.470  23.004  0.00  0.00    +0.000 OA
ATOM     29  H   UNL     1      -0.043  11.040  23.723  0.00  0.00    +0.000 HD
ENDBRANCH   9  28
TORSDOF 5
ENDMDL
MODEL 2
REMARK VINA RESULT:      -5.8      3.873      6.165
REMARK  Name = 
REMARK  10 active torsions:
REMARK  status: ('A' for Active; 'I' for Inactive)
REMARK    1  A    between atoms: C_1  and  C_2
REMARK    2  A    between atoms: C_2  and  C_3
REMARK    3  A    between atoms: C_2  and  C_4
REMARK    4  A    between atoms: C_5  and  O_6
REMARK    5  A    between atoms: C_7  and  O_8
REMARK    6  A    between atoms: C_11  and  O_12
REMARK    7  A    between atoms: C_15  and  O_16
REMARK    8  A    between atoms: C_18  and  C_19
REMARK    9  A    between atoms: C_18  and  C_20
REMARK   10  A    between atoms: C_24  and  C_25
REMARK                            x       y       z     vdW  Elec       q    Type
REMARK                         _______ _______ _______ _____ _____    ______ ____
ROOT
ATOM      1  C   UNL     1      -1.339  11.703  19.680  0.00  0.00    +0.000 A 
ATOM      2  C   UNL     1      -2.339  12.017  18.759  0.00  0.00    +0.000 A 
ATOM      3  C   UNL     1      -3.613  12.391  19.186  0.00  0.00    +0.000 A 
ATOM      4  C   UNL     1      -3.919  12.616  20.542  0.00  0.00    +0.000 A 
ATOM      5  C   UNL     1      -2.930  12.372  21.478  0.00  0.00    +0.000 A 
ATOM      6  C   UNL     1      -1.673  11.862  21.056  0.00  0.00    +0.000 A 
ATOM      7  C   UNL     1      -3.214  12.692  22.895  0.00  0.00    +0.000 C 
ATOM      8  O   UNL     1      -2.448  12.359  23.803  0.00  0.00    +0.000 OA
ATOM      9  C   UNL     1      -4.512  13.425  23.276  0.00  0.00    +0.000 C 
ATOM     10  C   UNL     1      -5.484  13.661  22.353  0.00  0.00    +0.000 C 
ATOM     11  C   UNL     1      -7.006  14.071  22.591  0.00  0.00    +0.000 C 
ATOM     12  C   UNL     1      -7.340  15.205  23.576  0.00  0.00    +0.000 C 
ATOM     13  C   UNL     1      -7.916  14.443  21.335  0.00  0.00    +0.000 C 
ATOM     14  C   UNL     1      -7.535  12.719  23.073  0.00  0.00    +0.000 C 
ATOM     15  C   UNL     1      -7.392  11.710  21.923  0.00  0.00    +0.000 C 
ATOM     16  C   UNL     1      -6.290  11.978  20.819  0.00  0.00    +0.000 C 
ATOM     17  C   UNL     1      -5.269  13.190  20.944  0.00  0.00    +0.000 C 
ATOM     18  C   UNL     1      -5.289  14.540  20.150  0.00  0.00    +0.000 C 
ENDROOT
BRANCH   1  20
ATOM     19  C   UNL     1       0.884  12.353  18.596  0.00  0.00    +0.000 C 
ATOM     20  C   UNL     1       0.027  11.236  19.190  0.00  0.00    +0.000 C 
ATOM     21  C   UNL     1      -0.093  10.033  18.253  0.00  0.00    +0.000 C 
ENDBRANCH   1  20
BRANCH   2  22
ATOM     22  O   UNL     1      -2.164  12.026  17.397  0.00  0.00    +0.000 OA
ATOM     23  H   UNL     1      -2.183  11.105  17.082  0.00  0.00    +0.000 HD
ENDBRANCH   2  22
BRANCH   3  24
ATOM     24  O   UNL     1      -4.560  12.608  18.216  0.00  0.00    +0.000 OA
ATOM     25  H   UNL     1      -4.336  11.982  17.498  0.00  0.00    +0.000 HD
ENDBRANCH   3  24
BRANCH   6  26
ATOM     26  O   UNL     1      -0.713  11.513  21.975  0.00  0.00    +0.000 OA
ATOM     27  H   UNL     1      -0.353  10.632  21.729  0.00  0.00    +0.000 HD
ENDBRANCH   6  26
BRANCH   9  28
ATOM     28  O   UNL     1      -4.689  13.657  24.615  0.00  0.00    +0.000 OA
ATOM     29  H   UNL     1      -5.466  13.108  24.878  0.00  0.00    +0.000 HD
ENDBRANCH   9  28
TORSDOF 5
ENDMDL
MODEL 3
REMARK VINA RESULT:      -5.8      7.548     10.496
REMARK  Name = 
REMARK  10 active torsions:
REMARK  status: ('A' for Active; 'I' for Inactive)
REMARK    1  A    between atoms: C_1  and  C_2
REMARK    2  A    between atoms: C_2  and  C_3
REMARK    3  A    between atoms: C_2  and  C_4
REMARK    4  A    between atoms: C_5  and  O_6
REMARK    5  A    between atoms: C_7  and  O_8
REMARK    6  A    between atoms: C_11  and  O_12
REMARK    7  A    between atoms: C_15  and  O_16
REMARK    8  A    between atoms: C_18  and  C_19
REMARK    9  A    between atoms: C_18  and  C_20
REMARK   10  A    between atoms: C_24  and  C_25
REMARK                            x       y       z     vdW  Elec       q    Type
REMARK                         _______ _______ _______ _____ _____    ______ ____
ROOT
ATOM      1  C   UNL     1       4.599  16.271  18.820  0.00  0.00    +0.000 A 
ATOM      2  C   UNL     1       5.306  17.117  19.675  0.00  0.00    +0.000 A 
ATOM      3  C   UNL     1       6.636  16.853  20.004  0.00  0.00    +0.000 A 
ATOM      4  C   UNL     1       7.376  15.823  19.392  0.00  0.00    +0.000 A 
ATOM      5  C   UNL     1       6.719  15.001  18.493  0.00  0.00    +0.000 A 
ATOM      6  C   UNL     1       5.330  15.185  18.257  0.00  0.00    +0.000 A 
ATOM      7  C   UNL     1       7.509  13.975  17.778  0.00  0.00    +0.000 C 
ATOM      8  O   UNL     1       6.973  13.108  17.084  0.00  0.00    +0.000 OA
ATOM      9  C   UNL     1       9.041  13.944  17.918  0.00  0.00    +0.000 C 
ATOM     10  C   UNL     1       9.683  14.752  18.805  0.00  0.00    +0.000 C 
ATOM     11  C   UNL     1      11.176  14.642  19.354  0.00  0.00    +0.000 C 
ATOM     12  C   UNL     1      12.333  14.418  18.364  0.00  0.00    +0.000 C 
ATOM     13  C   UNL     1      11.752  15.808  20.279  0.00  0.00    +0.000 C 
ATOM     14  C   UNL     1      10.987  13.451  20.294  0.00  0.00    +0.000 C 
ATOM     15  C   UNL     1      10.005  13.863  21.401  0.00  0.00    +0.000 C 
ATOM     16  C   UNL     1       8.975  15.028  21.098  0.00  0.00    +0.000 C 
ATOM     17  C   UNL     1       8.867  15.682  19.654  0.00  0.00    +0.000 C 
ATOM     18  C   UNL     1       9.402  17.083  19.199  0.00  0.00    +0.000 C 
ENDROOT
BRANCH   1  20
ATOM     19  C   UNL     1       2.195  15.407  18.935  0.00  0.00    +0.000 C 
ATOM     20  C   UNL     1       3.129  16.545  18.524  0.00  0.00    +0.000 C 
ATOM     21  C   UNL     1       2.919  16.973  17.070  0.00  0.00    +0.000 C 
ENDBRANCH   1  20
BRANCH   2  22
ATOM     22  O   UNL     1       4.797  18.269  20.222  0.00  0.00    +0.000 OA
ATOM     23  H   UNL     1       5.490  18.952  20.191  0.00  0.00    +0.000 HD
ENDBRANCH   2  22
BRANCH   3  24
ATOM     24  O   UNL     1       7.235  17.692  20.911  0.00  0.00    +0.000 OA
ATOM     25  H   UNL     1       8.129  17.320  21.050  0.00  0.00    +0.000 HD
ENDBRANCH   3  24
BRANCH   6  26
ATOM     26  O   UNL     1       4.634  14.318  17.450  0.00  0.00    +0.000 OA
ATOM     27  H   UNL     1       5.209  13.544  17.258  0.00  0.00    +0.000 HD
ENDBRANCH   6  26
BRANCH   9  28
ATOM     28  O   UNL     1       9.679  12.944  17.230  0.00  0.00    +0.000 OA
ATOM     29  H   UNL     1       9.985  13.356  16.388  0.00  0.00    +0.000 HD
ENDBRANCH   9  28
TORSDOF 5
ENDMDL
MODEL 4
REMARK VINA RESULT:      -5.7      8.590     10.558
REMARK  Name = 
REMARK  10 active torsions:
REMARK  status: ('A' for Active; 'I' for Inactive)
REMARK    1  A    between atoms: C_1  and  C_2
REMARK    2  A    between atoms: C_2  and  C_3
REMARK    3  A    between atoms: C_2  and  C_4
REMARK    4  A    between atoms: C_5  and  O_6
REMARK    5  A    between atoms: C_7  and  O_8
REMARK    6  A    between atoms: C_11  and  O_12
REMARK    7  A    between atoms: C_15  and  O_16
REMARK    8  A    between atoms: C_18  and  C_19
REMARK    9  A    between atoms: C_18  and  C_20
REMARK   10  A    between atoms: C_24  and  C_25
REMARK                            x       y       z     vdW  Elec       q    Type
REMARK                         _______ _______ _______ _____ _____    ______ ____
ROOT
ATOM      1  C   UNL     1       7.859  13.257  23.885  0.00  0.00    +0.000 A 
ATOM      2  C   UNL     1       8.252  11.995  23.441  0.00  0.00    +0.000 A 
ATOM      3  C   UNL     1       8.815  11.825  22.176  0.00  0.00    +0.000 A 
ATOM      4  C   UNL     1       9.152  12.912  21.347  0.00  0.00    +0.000 A 
ATOM      5  C   UNL     1       8.829  14.184  21.785  0.00  0.00    +0.000 A 
ATOM      6  C   UNL     1       8.134  14.350  23.013  0.00  0.00    +0.000 A 
ATOM      7  C   UNL     1       9.260  15.337  20.964  0.00  0.00    +0.000 C 
ATOM      8  O   UNL     1       8.879  16.485  21.203  0.00  0.00    +0.000 OA
ATOM      9  C   UNL     1      10.179  15.119  19.749  0.00  0.00    +0.000 C 
ATOM     10  C   UNL     1      10.492  13.865  19.319  0.00  0.00    +0.000 C 
ATOM     11  C   UNL     1      11.113  13.417  17.920  0.00  0.00    +0.000 C 
ATOM     12  C   UNL     1      12.333  14.168  17.358  0.00  0.00    +0.000 C 
ATOM     13  C   UNL     1      11.534  11.893  17.710  0.00  0.00    +0.000 C 
ATOM     14  C   UNL     1       9.872  13.607  17.047  0.00  0.00    +0.000 C 
ATOM     15  C   UNL     1       8.792  12.625  17.529  0.00  0.00    +0.000 C 
ATOM     16  C   UNL     1       8.851  12.117  19.027  0.00  0.00    +0.000 C 
ATOM     17  C   UNL     1       9.921  12.688  20.054  0.00  0.00    +0.000 C 
ATOM     18  C   UNL     1      11.216  11.978  20.575  0.00  0.00    +0.000 C 
ENDROOT
BRANCH   1  20
ATOM     19  C   UNL     1       8.113  13.115  26.426  0.00  0.00    +0.000 C 
ATOM     20  C   UNL     1       7.188  13.410  25.246  0.00  0.00    +0.000 C 
ATOM     21  C   UNL     1       5.880  12.620  25.320  0.00  0.00    +0.000 C 
ENDBRANCH   1  20
BRANCH   2  22
ATOM     22  O   UNL     1       8.164  10.847  24.189  0.00  0.00    +0.000 OA
ATOM     23  H   UNL     1       8.623  10.135  23.709  0.00  0.00    +0.000 HD
ENDBRANCH   2  22
BRANCH   3  24
ATOM     24  O   UNL     1       9.103  10.540  21.786  0.00  0.00    +0.000 OA
ATOM     25  H   UNL     1       8.638  10.423  20.933  0.00  0.00    +0.000 HD
ENDBRANCH   3  24
BRANCH   6  26
ATOM     26  O   UNL     1       7.712  15.593  23.418  0.00  0.00    +0.000 OA
ATOM     27  H   UNL     1       7.821  15.656  24.393  0.00  0.00    +0.000 HD
ENDBRANCH   6  26
BRANCH   9  28
ATOM     28  O   UNL     1      10.505  16.247  19.043  0.00  0.00    +0.000 OA
ATOM     29  H   UNL     1      10.417  16.994  19.682  0.00  0.00    +0.000 HD
ENDBRANCH   9  28
TORSDOF 5
ENDMDL
MODEL 5
REMARK VINA RESULT:      -5.7      7.718     10.752
REMARK  Name = 
REMARK  10 active torsions:
REMARK  status: ('A' for Active; 'I' for Inactive)
REMARK    1  A    between atoms: C_1  and  C_2
REMARK    2  A    between atoms: C_2  and  C_3
REMARK    3  A    between atoms: C_2  and  C_4
REMARK    4  A    between atoms: C_5  and  O_6
REMARK    5  A    between atoms: C_7  and  O_8
REMARK    6  A    between atoms: C_11  and  O_12
REMARK    7  A    between atoms: C_15  and  O_16
REMARK    8  A    between atoms: C_18  and  C_19
REMARK    9  A    between atoms: C_18  and  C_20
REMARK   10  A    between atoms: C_24  and  C_25
REMARK                            x       y       z     vdW  Elec       q    Type
REMARK                         _______ _______ _______ _____ _____    ______ ____
ROOT
ATOM      1  C   UNL     1       6.360  16.422  21.855  0.00  0.00    +0.000 A 
ATOM      2  C   UNL     1       7.445  16.100  22.671  0.00  0.00    +0.000 A 
ATOM      3  C   UNL     1       8.373  15.135  22.279  0.00  0.00    +0.000 A 
ATOM      4  C   UNL     1       8.357  14.547  21.000  0.00  0.00    +0.000 A 
ATOM      5  C   UNL     1       7.327  14.891  20.142  0.00  0.00    +0.000 A 
ATOM      6  C   UNL     1       6.305  15.772  20.589  0.00  0.00    +0.000 A 
ATOM      7  C   UNL     1       7.352  14.349  18.766  0.00  0.00    +0.000 C 
ATOM      8  O   UNL     1       6.397  14.480  17.997  0.00  0.00    +0.000 OA
ATOM      9  C   UNL     1       8.577  13.562  18.269  0.00  0.00    +0.000 C 
ATOM     10  C   UNL     1       9.588  13.223  19.116  0.00  0.00    +0.000 C 
ATOM     11  C   UNL     1      10.743  12.144  18.908  0.00  0.00    +0.000 C 
ATOM     12  C   UNL     1      11.530  12.120  17.586  0.00  0.00    +0.000 C 
ATOM     13  C   UNL     1      11.909  12.036  19.991  0.00  0.00    +0.000 C 
ATOM     14  C   UNL     1       9.909  10.877  19.101  0.00  0.00    +0.000 C 
ATOM     15  C   UNL     1       9.375  10.867  20.542  0.00  0.00    +0.000 C 
ATOM     16  C   UNL     1       9.218  12.251  21.295  0.00  0.00    +0.000 C 
ATOM     17  C   UNL     1       9.487  13.632  20.556  0.00  0.00    +0.000 C 
ATOM     18  C   UNL     1      10.733  14.569  20.710  0.00  0.00    +0.000 C 
ENDROOT
BRANCH   1  20
ATOM     19  C   UNL     1       3.958  16.822  22.634  0.00  0.00    +0.000 C 
ATOM     20  C   UNL     1       5.324  17.435  22.331  0.00  0.00    +0.000 C 
ATOM     21  C   UNL     1       5.229  18.630  21.382  0.00  0.00    +0.000 C 
ENDBRANCH   1  20
BRANCH   2  22
ATOM     22  O   UNL     1       7.718  16.704  23.873  0.00  0.00    +0.000 OA
ATOM     23  H   UNL     1       6.981  16.517  24.482  0.00  0.00    +0.000 HD
ENDBRANCH   2  22
BRANCH   3  24
ATOM     24  O   UNL     1       9.367  14.823  23.174  0.00  0.00    +0.000 OA
ATOM     25  H   UNL     1       9.582  15.667  23.620  0.00  0.00    +0.000 HD
ENDBRANCH   3  24
BRANCH   6  26
ATOM     26  O   UNL     1       5.218  16.046  19.794  0.00  0.00    +0.000 OA
ATOM     27  H   UNL     1       4.420  16.096  20.365  0.00  0.00    +0.000 HD
ENDBRANCH   6  26
BRANCH   9  28
ATOM     28  O   UNL     1       8.495  13.086  16.986  0.00  0.00    +0.000 OA
ATOM     29  H   UNL     1       7.702  12.498  16.972  0.00  0.00    +0.000 HD
ENDBRANCH   9  28
TORSDOF 5
ENDMDL
MODEL 6
REMARK VINA RESULT:      -5.7      3.498      7.640
REMARK  Name = 
REMARK  10 active torsions:
REMARK  status: ('A' for Active; 'I' for Inactive)
REMARK    1  A    between atoms: C_1  and  C_2
REMARK    2  A    between atoms: C_2  and  C_3
REMARK    3  A    between atoms: C_2  and  C_4
REMARK    4  A    between atoms: C_5  and  O_6
REMARK    5  A    between atoms: C_7  and  O_8
REMARK    6  A    between atoms: C_11  and  O_12
REMARK    7  A    between atoms: C_15  and  O_16
REMARK    8  A    between atoms: C_18  and  C_19
REMARK    9  A    between atoms: C_18  and  C_20
REMARK   10  A    between atoms: C_24  and  C_25
REMARK                            x       y       z     vdW  Elec       q    Type
REMARK                         _______ _______ _______ _____ _____    ______ ____
ROOT
ATOM      1  C   UNL     1      -5.344  13.071  22.278  0.00  0.00    +0.000 A 
ATOM      2  C   UNL     1      -4.311  13.368  23.168  0.00  0.00    +0.000 A 
ATOM      3  C   UNL     1      -2.978  13.167  22.809  0.00  0.00    +0.000 A 
ATOM      4  C   UNL     1      -2.594  12.801  21.504  0.00  0.00    +0.000 A 
ATOM      5  C   UNL     1      -3.594  12.557  20.580  0.00  0.00    +0.000 A 
ATOM      6  C   UNL     1      -4.955  12.631  20.980  0.00  0.00    +0.000 A 
ATOM      7  C   UNL     1      -3.199  12.261  19.185  0.00  0.00    +0.000 C 
ATOM      8  O   UNL     1      -4.016  11.880  18.344  0.00  0.00    +0.000 OA
ATOM      9  C   UNL     1      -1.726  12.386  18.756  0.00  0.00    +0.000 C 
ATOM     10  C   UNL     1      -0.745  12.624  19.670  0.00  0.00    +0.000 C 
ATOM     11  C   UNL     1       0.831  12.446  19.508  0.00  0.00    +0.000 C 
ATOM     12  C   UNL     1       1.534  13.007  18.260  0.00  0.00    +0.000 C 
ATOM     13  C   UNL     1       1.793  12.939  20.681  0.00  0.00    +0.000 C 
ATOM     14  C   UNL     1       0.895  10.919  19.563  0.00  0.00    +0.000 C 
ATOM     15  C   UNL     1       0.412  10.467  20.951  0.00  0.00    +0.000 C 
ATOM     16  C   UNL     1      -0.559  11.423  21.757  0.00  0.00    +0.000 C 
ATOM     17  C   UNL     1      -1.124  12.762  21.115  0.00  0.00    +0.000 C 
ATOM     18  C   UNL     1      -0.676  14.231  21.423  0.00  0.00    +0.000 C 
ENDROOT
BRANCH   1  20
ATOM     19  C   UNL     1      -7.171  14.679  23.061  0.00  0.00    +0.000 C 
ATOM     20  C   UNL     1      -6.795  13.240  22.713  0.00  0.00    +0.000 C 
ATOM     21  C   UNL     1      -7.167  12.256  23.825  0.00  0.00    +0.000 C 
ENDBRANCH   1  20
BRANCH   2  22
ATOM     22  O   UNL     1      -4.495  13.905  24.418  0.00  0.00    +0.000 OA
ATOM     23  H   UNL     1      -5.002  13.266  24.951  0.00  0.00    +0.000 HD
ENDBRANCH   2  22
BRANCH   3  24
ATOM     24  O   UNL     1      -2.028  13.412  23.769  0.00  0.00    +0.000 OA
ATOM     25  H   UNL     1      -2.127  14.361  23.989  0.00  0.00    +0.000 HD
ENDBRANCH   3  24
BRANCH   6  26
ATOM     26  O   UNL     1      -5.962  12.291  20.109  0.00  0.00    +0.000 OA
ATOM     27  H   UNL     1      -6.821  12.376  20.579  0.00  0.00    +0.000 HD
ENDBRANCH   6  26
BRANCH   9  28
ATOM     28  O   UNL     1      -1.461  12.072  17.449  0.00  0.00    +0.000 OA
ATOM     29  H   UNL     1      -1.795  11.152  17.325  0.00  0.00    +0.000 HD
ENDBRANCH   9  28
TORSDOF 5
ENDMDL
MODEL 7
REMARK VINA RESULT:      -5.6      3.911      8.387
REMARK  Name = 
REMARK  10 active torsions:
REMARK  status: ('A' for Active; 'I' for Inactive)
REMARK    1  A    between atoms: C_1  and  C_2
REMARK    2  A    between atoms: C_2  and  C_3
REMARK    3  A    between atoms: C_2  and  C_4
REMARK    4  A    between atoms: C_5  and  O_6
REMARK    5  A    between atoms: C_7  and  O_8
REMARK    6  A    between atoms: C_11  and  O_12
REMARK    7  A    between atoms: C_15  and  O_16
REMARK    8  A    between atoms: C_18  and  C_19
REMARK    9  A    between atoms: C_18  and  C_20
REMARK   10  A    between atoms: C_24  and  C_25
REMARK                            x       y       z     vdW  Elec       q    Type
REMARK                         _______ _______ _______ _____ _____    ______ ____
ROOT
ATOM      1  C   UNL     1      -5.506  14.422  23.350  0.00  0.00    +0.000 A 
ATOM      2  C   UNL     1      -4.308  14.698  24.009  0.00  0.00    +0.000 A 
ATOM      3  C   UNL     1      -3.102  14.165  23.554  0.00  0.00    +0.000 A 
ATOM      4  C   UNL     1      -2.999  13.455  22.343  0.00  0.00    +0.000 A 
ATOM      5  C   UNL     1      -4.162  13.215  21.633  0.00  0.00    +0.000 A 
ATOM      6  C   UNL     1      -5.410  13.640  22.162  0.00  0.00    +0.000 A 
ATOM      7  C   UNL     1      -4.052  12.549  20.316  0.00  0.00    +0.000 C 
ATOM      8  O   UNL     1      -5.046  12.162  19.698  0.00  0.00    +0.000 OA
ATOM      9  C   UNL     1      -2.668  12.286  19.697  0.00  0.00    +0.000 C 
ATOM     10  C   UNL     1      -1.526  12.520  20.400  0.00  0.00    +0.000 C 
ATOM     11  C   UNL     1      -0.048  12.005  20.100  0.00  0.00    +0.000 C 
ATOM     12  C   UNL     1       0.525  12.130  18.678  0.00  0.00    +0.000 C 
ATOM     13  C   UNL     1       1.159  12.544  20.993  0.00  0.00    +0.000 C 
ATOM     14  C   UNL     1      -0.225  10.545  20.519  0.00  0.00    +0.000 C 
ATOM     15  C   UNL     1      -0.544  10.512  22.023  0.00  0.00    +0.000 C 
ATOM     16  C   UNL     1      -1.202  11.793  22.680  0.00  0.00    +0.000 C 
ATOM     17  C   UNL     1      -1.638  13.043  21.802  0.00  0.00    +0.000 C 
ATOM     18  C   UNL     1      -0.913  14.427  21.685  0.00  0.00    +0.000 C 
ENDROOT
BRANCH   1  20
ATOM     19  C   UNL     1      -7.809  13.876  24.316  0.00  0.00    +0.000 C 
ATOM     20  C   UNL     1      -6.820  14.964  23.901  0.00  0.00    +0.000 C 
ATOM     21  C   UNL     1      -7.447  15.989  22.954  0.00  0.00    +0.000 C 
ENDBRANCH   1  20
BRANCH   2  22
ATOM     22  O   UNL     1      -4.197  15.520  25.103  0.00  0.00    +0.000 OA
ATOM     23  H   UNL     1      -4.153  14.962  25.900  0.00  0.00    +0.000 HD
ENDBRANCH   2  22
BRANCH   3  24
ATOM     24  O   UNL     1      -1.981  14.423  24.305  0.00  0.00    +0.000 OA
ATOM     25  H   UNL     1      -1.250  14.481  23.657  0.00  0.00    +0.000 HD
ENDBRANCH   3  24
BRANCH   6  26
ATOM     26  O   UNL     1      -6.586  13.323  21.528  0.00  0.00    +0.000 OA
ATOM     27  H   UNL     1      -6.379  13.052  20.606  0.00  0.00    +0.000 HD
ENDBRANCH   6  26
BRANCH   9  28
ATOM     28  O   UNL     1      -2.673  11.647  18.484  0.00  0.00    +0.000 OA
ATOM     29  H   UNL     1      -2.192  12.247  17.867  0.00  0.00    +0.000 HD
ENDBRANCH   9  28
TORSDOF 5
ENDMDL
MODEL 8
REMARK VINA RESULT:      -5.6      3.144      5.500
REMARK  Name = 
REMARK  10 active torsions:
REMARK  status: ('A' for Active; 'I' for Inactive)
REMARK    1  A    between atoms: C_1  and  C_2
REMARK    2  A    between atoms: C_2  and  C_3
REMARK    3  A    between atoms: C_2  and  C_4
REMARK    4  A    between atoms: C_5  and  O_6
REMARK    5  A    between atoms: C_7  and  O_8
REMARK    6  A    between atoms: C_11  and  O_12
REMARK    7  A    between atoms: C_15  and  O_16
REMARK    8  A    between atoms: C_18  and  C_19
REMARK    9  A    between atoms: C_18  and  C_20
REMARK   10  A    between atoms: C_24  and  C_25
REMARK                            x       y       z     vdW  Elec       q    Type
REMARK                         _______ _______ _______ _____ _____    ______ ____
ROOT
ATOM      1  C   UNL     1       0.007  11.260  19.200  0.00  0.00    +0.000 A 
ATOM      2  C   UNL     1       0.293  11.738  20.479  0.00  0.00    +0.000 A 
ATOM      3  C   UNL     1      -0.669  12.427  21.218  0.00  0.00    +0.000 A 
ATOM      4  C   UNL     1      -2.005  12.549  20.789  0.00  0.00    +0.000 A 
ATOM      5  C   UNL     1      -2.337  12.032  19.550  0.00  0.00    +0.000 A 
ATOM      6  C   UNL     1      -1.327  11.448  18.738  0.00  0.00    +0.000 A 
ATOM      7  C   UNL     1      -3.756  12.075  19.131  0.00  0.00    +0.000 C 
ATOM      8  O   UNL     1      -4.106  11.780  17.986  0.00  0.00    +0.000 OA
ATOM      9  C   UNL     1      -4.839  12.534  20.122  0.00  0.00    +0.000 C 
ATOM     10  C   UNL     1      -4.509  13.045  21.340  0.00  0.00    +0.000 C 
ATOM     11  C   UNL     1      -5.416  13.883  22.349  0.00  0.00    +0.000 C 
ATOM     12  C   UNL     1      -6.834  13.389  22.682  0.00  0.00    +0.000 C 
ATOM     13  C   UNL     1      -4.842  14.242  23.794  0.00  0.00    +0.000 C 
ATOM     14  C   UNL     1      -5.434  15.211  21.591  0.00  0.00    +0.000 C 
ATOM     15  C   UNL     1      -3.997  15.753  21.536  0.00  0.00    +0.000 C 
ATOM     16  C   UNL     1      -2.800  14.723  21.652  0.00  0.00    +0.000 C 
ATOM     17  C   UNL     1      -3.057  13.156  21.705  0.00  0.00    +0.000 C 
ATOM     18  C   UNL     1      -2.969  12.216  22.955  0.00  0.00    +0.000 C 
ENDROOT
BRANCH   1  20
ATOM     19  C   UNL     1       1.505   9.204  18.945  0.00  0.00    +0.000 C 
ATOM     20  C   UNL     1       1.093  10.565  18.387  0.00  0.00    +0.000 C 
ATOM     21  C   UNL     1       2.293  11.484  18.150  0.00  0.00    +0.000 C 
ENDBRANCH   1  20
BRANCH   2  22
ATOM     22  O   UNL     1       1.489  11.551  21.127  0.00  0.00    +0.000 OA
ATOM     23  H   UNL     1       1.409  10.761  21.691  0.00  0.00    +0.000 HD
ENDBRANCH   2  22
BRANCH   3  24
ATOM     24  O   UNL     1      -0.282  12.931  22.435  0.00  0.00    +0.000 OA
ATOM     25  H   UNL     1      -0.921  13.647  22.628  0.00  0.00    +0.000 HD
ENDBRANCH   3  24
BRANCH   6  26
ATOM     26  O   UNL     1      -1.611  11.023  17.463  0.00  0.00    +0.000 OA
ATOM     27  H   UNL     1      -1.124  10.185  17.299  0.00  0.00    +0.000 HD
ENDBRANCH   6  26
BRANCH   9  28
ATOM     28  O   UNL     1      -6.119  12.556  19.632  0.00  0.00    +0.000 OA
ATOM     29  H   UNL     1      -6.312  11.629  19.355  0.00  0.00    +0.000 HD
ENDBRANCH   9  28
TORSDOF 5
ENDMDL
MODEL 9
REMARK VINA RESULT:      -5.5      8.696      9.652
REMARK  Name = 
REMARK  10 active torsions:
REMARK  status: ('A' for Active; 'I' for Inactive)
REMARK    1  A    between atoms: C_1  and  C_2
REMARK    2  A    between atoms: C_2  and  C_3
REMARK    3  A    between atoms: C_2  and  C_4
REMARK    4  A    between atoms: C_5  and  O_6
REMARK    5  A    between atoms: C_7  and  O_8
REMARK    6  A    between atoms: C_11  and  O_12
REMARK    7  A    between atoms: C_15  and  O_16
REMARK    8  A    between atoms: C_18  and  C_19
REMARK    9  A    between atoms: C_18  and  C_20
REMARK   10  A    between atoms: C_24  and  C_25
REMARK                            x       y       z     vdW  Elec       q    Type
REMARK                         _______ _______ _______ _____ _____    ______ ____
ROOT
ATOM      1  C   UNL     1      10.188  12.434  20.311  0.00  0.00    +0.000 A 
ATOM      2  C   UNL     1      10.342  13.818  20.223  0.00  0.00    +0.000 A 
ATOM      3  C   UNL     1       9.738  14.665  21.153  0.00  0.00    +0.000 A 
ATOM      4  C   UNL     1       9.075  14.181  22.297  0.00  0.00    +0.000 A 
ATOM      5  C   UNL     1       8.956  12.811  22.444  0.00  0.00    +0.000 A 
ATOM      6  C   UNL     1       9.454  11.948  21.431  0.00  0.00    +0.000 A 
ATOM      7  C   UNL     1       8.342  12.292  23.686  0.00  0.00    +0.000 C 
ATOM      8  O   UNL     1       8.060  11.099  23.824  0.00  0.00    +0.000 OA
ATOM      9  C   UNL     1       8.000  13.253  24.838  0.00  0.00    +0.000 C 
ATOM     10  C   UNL     1       8.115  14.602  24.688  0.00  0.00    +0.000 C 
ATOM     11  C   UNL     1       7.500  15.761  25.593  0.00  0.00    +0.000 C 
ATOM     12  C   UNL     1       7.643  15.685  27.123  0.00  0.00    +0.000 C 
ATOM     13  C   UNL     1       7.906  17.275  25.296  0.00  0.00    +0.000 C 
ATOM     14  C   UNL     1       6.042  15.651  25.147  0.00  0.00    +0.000 C 
ATOM     15  C   UNL     1       5.968  15.998  23.652  0.00  0.00    +0.000 C 
ATOM     16  C   UNL     1       7.266  15.797  22.768  0.00  0.00    +0.000 C 
ATOM     17  C   UNL     1       8.584  15.142  23.369  0.00  0.00    +0.000 C 
ATOM     18  C   UNL     1       9.911  15.868  23.775  0.00  0.00    +0.000 C 
ENDROOT
BRANCH   1  20
ATOM     19  C   UNL     1      12.331  11.587  19.203  0.00  0.00    +0.000 C 
ATOM     20  C   UNL     1      10.805  11.531  19.248  0.00  0.00    +0.000 C 
ATOM     21  C   UNL     1      10.173  11.766  17.875  0.00  0.00    +0.000 C 
ENDBRANCH   1  20
BRANCH   2  22
ATOM     22  O   UNL     1      11.105  14.455  19.276  0.00  0.00    +0.000 OA
ATOM     23  H   UNL     1      11.927  13.947  19.157  0.00  0.00    +0.000 HD
ENDBRANCH   2  22
BRANCH   3  24
ATOM     24  O   UNL     1       9.876  16.016  20.950  0.00  0.00    +0.000 OA
ATOM     25  H   UNL     1      10.132  16.108  20.010  0.00  0.00    +0.000 HD
ENDBRANCH   3  24
BRANCH   6  26
ATOM     26  O   UNL     1       9.256  10.591  21.505  0.00  0.00    +0.000 OA
ATOM     27  H   UNL     1       9.660  10.174  20.712  0.00  0.00    +0.000 HD
ENDBRANCH   6  26
BRANCH   9  28
ATOM     28  O   UNL     1       7.417  12.678  25.937  0.00  0.00    +0.000 OA
ATOM     29  H   UNL     1       7.926  13.013  26.713  0.00  0.00    +0.000 HD
ENDBRANCH   9  28
TORSDOF 5
ENDMDL
