MODEL 1
REMARK VINA RESULT:      -7.1      0.000      0.000
REMARK  Name = 
REMARK  8 active torsions:
REMARK  status: ('A' for Active; 'I' for Inactive)
REMARK    1  A    between atoms: C_1  and  C_2
REMARK    2  A    between atoms: C_2  and  C_3
REMARK    3  A    between atoms: C_6  and  N_7
REMARK    4  A    between atoms: C_8  and  P_10
REMARK    5  A    between atoms: P_10  and  O_12
REMARK    6  A    between atoms: P_10  and  O_13
REMARK    7  A    between atoms: O_13  and  C_14
REMARK    8  A    between atoms: C_14  and  C_15
REMARK                            x       y       z     vdW  Elec       q    Type
REMARK                         _______ _______ _______ _____ _____    ______ ____
ROOT
ATOM      1  N   UNL     1       4.299   3.929  16.287  0.00  0.00    +0.000 N 
ATOM      2  C   UNL     1       5.589   4.413  16.477  0.00  0.00    +0.000 C 
ATOM      3  O   UNL     1       6.106   4.618  17.575  0.00  0.00    +0.000 OA
ATOM      4  H   UNL     1       4.111   3.562  15.358  0.00  0.00    +0.000 HD
ENDROOT
BRANCH   1   8
ATOM      5  C   UNL     1       1.693   3.172  19.545  0.00  0.00    +0.000 A 
ATOM      6  C   UNL     1       1.735   4.437  18.963  0.00  0.00    +0.000 A 
ATOM      7  C   UNL     1       2.567   4.683  17.874  0.00  0.00    +0.000 A 
ATOM      8  C   UNL     1       3.385   3.680  17.340  0.00  0.00    +0.000 A 
ATOM      9  C   UNL     1       3.297   2.396  17.881  0.00  0.00    +0.000 A 
ATOM     10  C   UNL     1       2.462   2.147  18.980  0.00  0.00    +0.000 A 
BRANCH   5  12
ATOM     11  C   UNL     1       1.605   2.630  22.005  0.00  0.00    +0.000 C 
ATOM     12  C   UNL     1       0.809   2.931  20.746  0.00  0.00    +0.000 C 
ENDBRANCH   5  12
ENDBRANCH   1   8
BRANCH   2  13
ATOM     13  P   UNL     1       6.752   4.761  15.106  0.00  0.00    +0.000 P 
ATOM     14  O   UNL     1       5.737   5.763  14.511  0.00  0.00    +0.000 OA
BRANCH  13  15
ATOM     15  O   UNL     1       7.700   5.705  16.081  0.00  0.00    +0.000 OA
ATOM     16  H   UNL     1       7.466   5.536  17.014  0.00  0.00    +0.000 HD
ENDBRANCH  13  15
BRANCH  13  17
ATOM     17  O   UNL     1       7.851   5.091  13.812  0.00  0.00    +0.000 OA
BRANCH  17  18
ATOM     18  C   UNL     1       7.163   5.223  12.575  0.00  0.00    +0.000 C 
BRANCH  18  19
ATOM     19  C   UNL     1       6.785   3.867  12.050  0.00  0.00    +0.000 A 
ATOM     20  C   UNL     1       7.767   2.968  11.613  0.00  0.00    +0.000 A 
ATOM     21  C   UNL     1       7.409   1.707  11.133  0.00  0.00    +0.000 A 
ATOM     22  C   UNL     1       6.068   1.331  11.090  0.00  0.00    +0.000 A 
ATOM     23  C   UNL     1       5.083   2.212  11.532  0.00  0.00    +0.000 A 
ATOM     24  C   UNL     1       5.439   3.474  12.011  0.00  0.00    +0.000 A 
ENDBRANCH  18  19
ENDBRANCH  17  18
ENDBRANCH  13  17
ENDBRANCH   2  13
TORSDOF 7
ENDMDL
MODEL 2
REMARK VINA RESULT:      -6.8      6.194      8.865
REMARK  Name = 
REMARK  8 active torsions:
REMARK  status: ('A' for Active; 'I' for Inactive)
REMARK    1  A    between atoms: C_1  and  C_2
REMARK    2  A    between atoms: C_2  and  C_3
REMARK    3  A    between atoms: C_6  and  N_7
REMARK    4  A    between atoms: C_8  and  P_10
REMARK    5  A    between atoms: P_10  and  O_12
REMARK    6  A    between atoms: P_10  and  O_13
REMARK    7  A    between atoms: O_13  and  C_14
REMARK    8  A    between atoms: C_14  and  C_15
REMARK                            x       y       z     vdW  Elec       q    Type
REMARK                         _______ _______ _______ _____ _____    ______ ____
ROOT
ATOM      1  N   UNL     1       8.806   8.710  18.774  0.00  0.00    +0.000 N 
ATOM      2  C   UNL     1       7.754   8.400  17.917  0.00  0.00    +0.000 C 
ATOM      3  O   UNL     1       7.179   9.213  17.193  0.00  0.00    +0.000 OA
ATOM      4  H   UNL     1       9.345   7.910  19.096  0.00  0.00    +0.000 HD
ENDROOT
BRANCH   1   8
ATOM      5  C   UNL     1      10.422  12.570  19.452  0.00  0.00    +0.000 A 
ATOM      6  C   UNL     1      10.340  12.064  18.155  0.00  0.00    +0.000 A 
ATOM      7  C   UNL     1       9.784  10.809  17.925  0.00  0.00    +0.000 A 
ATOM      8  C   UNL     1       9.301  10.021  18.976  0.00  0.00    +0.000 A 
ATOM      9  C   UNL     1       9.323  10.553  20.267  0.00  0.00    +0.000 A 
ATOM     10  C   UNL     1       9.887  11.815  20.502  0.00  0.00    +0.000 A 
BRANCH   5  12
ATOM     11  C   UNL     1      12.333  14.112  18.882  0.00  0.00    +0.000 C 
ATOM     12  C   UNL     1      11.059  13.919  19.688  0.00  0.00    +0.000 C 
ENDBRANCH   5  12
ENDBRANCH   1   8
BRANCH   2  13
ATOM     13  P   UNL     1       7.100   6.707  17.686  0.00  0.00    +0.000 P 
ATOM     14  O   UNL     1       7.852   6.608  16.340  0.00  0.00    +0.000 OA
BRANCH  13  15
ATOM     15  O   UNL     1       8.177   6.085  18.778  0.00  0.00    +0.000 OA
ATOM     16  H   UNL     1       7.777   5.310  19.216  0.00  0.00    +0.000 HD
ENDBRANCH  13  15
BRANCH  13  17
ATOM     17  O   UNL     1       6.482   5.106  17.469  0.00  0.00    +0.000 OA
BRANCH  17  18
ATOM     18  C   UNL     1       5.777   4.667  18.623  0.00  0.00    +0.000 C 
BRANCH  18  19
ATOM     19  C   UNL     1       4.333   4.426  18.283  0.00  0.00    +0.000 A 
ATOM     20  C   UNL     1       3.923   3.214  17.711  0.00  0.00    +0.000 A 
ATOM     21  C   UNL     1       2.580   2.995  17.404  0.00  0.00    +0.000 A 
ATOM     22  C   UNL     1       1.632   3.982  17.671  0.00  0.00    +0.000 A 
ATOM     23  C   UNL     1       2.025   5.187  18.250  0.00  0.00    +0.000 A 
ATOM     24  C   UNL     1       3.369   5.409  18.556  0.00  0.00    +0.000 A 
ENDBRANCH  18  19
ENDBRANCH  17  18
ENDBRANCH  13  17
ENDBRANCH   2  13
TORSDOF 7
ENDMDL
MODEL 3
REMARK VINA RESULT:      -6.8      0.849      1.090
REMARK  Name = 
REMARK  8 active torsions:
REMARK  status: ('A' for Active; 'I' for Inactive)
REMARK    1  A    between atoms: C_1  and  C_2
REMARK    2  A    between atoms: C_2  and  C_3
REMARK    3  A    between atoms: C_6  and  N_7
REMARK    4  A    between atoms: C_8  and  P_10
REMARK    5  A    between atoms: P_10  and  O_12
REMARK    6  A    between atoms: P_10  and  O_13
REMARK    7  A    between atoms: O_13  and  C_14
REMARK    8  A    between atoms: C_14  and  C_15
REMARK                            x       y       z     vdW  Elec       q    Type
REMARK                         _______ _______ _______ _____ _____    ______ ____
ROOT
ATOM      1  N   UNL     1       4.999   3.403  16.898  0.00  0.00    +0.000 N 
ATOM      2  C   UNL     1       5.398   4.602  16.316  0.00  0.00    +0.000 C 
ATOM      3  O   UNL     1       4.953   5.710  16.620  0.00  0.00    +0.000 OA
ATOM      4  H   UNL     1       5.631   2.621  16.743  0.00  0.00    +0.000 HD
ENDROOT
BRANCH   1   8
ATOM      5  C   UNL     1       1.876   2.941  19.728  0.00  0.00    +0.000 A 
ATOM      6  C   UNL     1       3.206   2.832  20.130  0.00  0.00    +0.000 A 
ATOM      7  C   UNL     1       4.236   3.011  19.211  0.00  0.00    +0.000 A 
ATOM      8  C   UNL     1       3.971   3.297  17.866  0.00  0.00    +0.000 A 
ATOM      9  C   UNL     1       2.642   3.471  17.475  0.00  0.00    +0.000 A 
ATOM     10  C   UNL     1       1.604   3.286  18.399  0.00  0.00    +0.000 A 
BRANCH   5  12
ATOM     11  C   UNL     1       1.292   2.585  22.153  0.00  0.00    +0.000 C 
ATOM     12  C   UNL     1       0.771   2.711  20.731  0.00  0.00    +0.000 C 
ENDBRANCH   5  12
ENDBRANCH   1   8
BRANCH   2  13
ATOM     13  P   UNL     1       6.706   4.725  15.042  0.00  0.00    +0.000 P 
ATOM     14  O   UNL     1       6.465   6.249  14.954  0.00  0.00    +0.000 OA
BRANCH  13  15
ATOM     15  O   UNL     1       7.900   4.587  16.179  0.00  0.00    +0.000 OA
ATOM     16  H   UNL     1       8.761   4.786  15.764  0.00  0.00    +0.000 HD
ENDBRANCH  13  15
BRANCH  13  17
ATOM     17  O   UNL     1       7.942   4.841  13.838  0.00  0.00    +0.000 OA
BRANCH  17  18
ATOM     18  C   UNL     1       7.384   5.043  12.546  0.00  0.00    +0.000 C 
BRANCH  18  19
ATOM     19  C   UNL     1       6.813   3.754  12.026  0.00  0.00    +0.000 A 
ATOM     20  C   UNL     1       7.653   2.736  11.556  0.00  0.00    +0.000 A 
ATOM     21  C   UNL     1       7.117   1.538  11.080  0.00  0.00    +0.000 A 
ATOM     22  C   UNL     1       5.736   1.345  11.076  0.00  0.00    +0.000 A 
ATOM     23  C   UNL     1       4.891   2.346  11.551  0.00  0.00    +0.000 A 
ATOM     24  C   UNL     1       5.426   3.545  12.025  0.00  0.00    +0.000 A 
ENDBRANCH  18  19
ENDBRANCH  17  18
ENDBRANCH  13  17
ENDBRANCH   2  13
TORSDOF 7
ENDMDL
MODEL 4
REMARK VINA RESULT:      -6.8      5.804      8.441
REMARK  Name = 
REMARK  8 active torsions:
REMARK  status: ('A' for Active; 'I' for Inactive)
REMARK    1  A    between atoms: C_1  and  C_2
REMARK    2  A    between atoms: C_2  and  C_3
REMARK    3  A    between atoms: C_6  and  N_7
REMARK    4  A    between atoms: C_8  and  P_10
REMARK    5  A    between atoms: P_10  and  O_12
REMARK    6  A    between atoms: P_10  and  O_13
REMARK    7  A    between atoms: O_13  and  C_14
REMARK    8  A    between atoms: C_14  and  C_15
REMARK                            x       y       z     vdW  Elec       q    Type
REMARK                         _______ _______ _______ _____ _____    ______ ____
ROOT
ATOM      1  N   UNL     1       7.880   8.905  17.831  0.00  0.00    +0.000 N 
ATOM      2  C   UNL     1       7.902   7.564  18.203  0.00  0.00    +0.000 C 
ATOM      3  O   UNL     1       8.657   7.085  19.050  0.00  0.00    +0.000 OA
ATOM      4  H   UNL     1       7.044   9.198  17.333  0.00  0.00    +0.000 HD
ENDROOT
BRANCH   1   8
ATOM      5  C   UNL     1      10.676  11.695  19.372  0.00  0.00    +0.000 A 
ATOM      6  C   UNL     1      10.493  11.576  17.996  0.00  0.00    +0.000 A 
ATOM      7  C   UNL     1       9.555  10.682  17.486  0.00  0.00    +0.000 A 
ATOM      8  C   UNL     1       8.780   9.878  18.329  0.00  0.00    +0.000 A 
ATOM      9  C   UNL     1       8.916  10.042  19.709  0.00  0.00    +0.000 A 
ATOM     10  C   UNL     1       9.863  10.938  20.225  0.00  0.00    +0.000 A 
BRANCH   5  12
ATOM     11  C   UNL     1      11.126  13.969  20.361  0.00  0.00    +0.000 C 
ATOM     12  C   UNL     1      11.720  12.645  19.907  0.00  0.00    +0.000 C 
ENDBRANCH   5  12
ENDBRANCH   1   8
BRANCH   2  13
ATOM     13  P   UNL     1       6.754   6.307  17.530  0.00  0.00    +0.000 P 
ATOM     14  O   UNL     1       5.698   7.410  17.293  0.00  0.00    +0.000 OA
BRANCH  13  15
ATOM     15  O   UNL     1       7.579   6.247  16.096  0.00  0.00    +0.000 OA
ATOM     16  H   UNL     1       7.600   7.140  15.702  0.00  0.00    +0.000 HD
ENDBRANCH  13  15
BRANCH  13  17
ATOM     17  O   UNL     1       5.671   5.119  16.893  0.00  0.00    +0.000 OA
BRANCH  17  18
ATOM     18  C   UNL     1       4.319   5.547  16.999  0.00  0.00    +0.000 C 
BRANCH  18  19
ATOM     19  C   UNL     1       3.455   4.408  17.463  0.00  0.00    +0.000 A 
ATOM     20  C   UNL     1       3.964   3.104  17.534  0.00  0.00    +0.000 A 
ATOM     21  C   UNL     1       3.158   2.053  17.972  0.00  0.00    +0.000 A 
ATOM     22  C   UNL     1       1.838   2.295  18.351  0.00  0.00    +0.000 A 
ATOM     23  C   UNL     1       1.324   3.589  18.296  0.00  0.00    +0.000 A 
ATOM     24  C   UNL     1       2.129   4.642  17.855  0.00  0.00    +0.000 A 
ENDBRANCH  18  19
ENDBRANCH  17  18
ENDBRANCH  13  17
ENDBRANCH   2  13
TORSDOF 7
ENDMDL
MODEL 5
REMARK VINA RESULT:      -6.7      5.857      8.439
REMARK  Name = 
REMARK  8 active torsions:
REMARK  status: ('A' for Active; 'I' for Inactive)
REMARK    1  A    between atoms: C_1  and  C_2
REMARK    2  A    between atoms: C_2  and  C_3
REMARK    3  A    between atoms: C_6  and  N_7
REMARK    4  A    between atoms: C_8  and  P_10
REMARK    5  A    between atoms: P_10  and  O_12
REMARK    6  A    between atoms: P_10  and  O_13
REMARK    7  A    between atoms: O_13  and  C_14
REMARK    8  A    between atoms: C_14  and  C_15
REMARK                            x       y       z     vdW  Elec       q    Type
REMARK                         _______ _______ _______ _____ _____    ______ ____
ROOT
ATOM      1  N   UNL     1       7.770   9.154  17.699  0.00  0.00    +0.000 N 
ATOM      2  C   UNL     1       7.857   7.812  18.058  0.00  0.00    +0.000 C 
ATOM      3  O   UNL     1       8.601   7.368  18.933  0.00  0.00    +0.000 OA
ATOM      4  H   UNL     1       6.940   9.402  17.167  0.00  0.00    +0.000 HD
ENDROOT
BRANCH   1   8
ATOM      5  C   UNL     1      10.074  12.285  19.391  0.00  0.00    +0.000 A 
ATOM      6  C   UNL     1      10.071  11.022  19.981  0.00  0.00    +0.000 A 
ATOM      7  C   UNL     1       9.340   9.983  19.412  0.00  0.00    +0.000 A 
ATOM      8  C   UNL     1       8.586  10.173  18.248  0.00  0.00    +0.000 A 
ATOM      9  C   UNL     1       8.639  11.419  17.621  0.00  0.00    +0.000 A 
ATOM     10  C   UNL     1       9.373  12.468  18.194  0.00  0.00    +0.000 A 
BRANCH   5  12
ATOM     11  C   UNL     1      10.194  13.905  21.318  0.00  0.00    +0.000 C 
ATOM     12  C   UNL     1      10.848  13.409  20.039  0.00  0.00    +0.000 C 
ENDBRANCH   5  12
ENDBRANCH   1   8
BRANCH   2  13
ATOM     13  P   UNL     1       6.820   6.497  17.319  0.00  0.00    +0.000 P 
ATOM     14  O   UNL     1       7.762   6.453  16.095  0.00  0.00    +0.000 OA
BRANCH  13  15
ATOM     15  O   UNL     1       7.453   5.355  18.336  0.00  0.00    +0.000 OA
ATOM     16  H   UNL     1       7.918   4.679  17.806  0.00  0.00    +0.000 HD
ENDBRANCH  13  15
BRANCH  13  17
ATOM     17  O   UNL     1       5.841   5.254  16.622  0.00  0.00    +0.000 OA
BRANCH  17  18
ATOM     18  C   UNL     1       5.613   4.199  17.548  0.00  0.00    +0.000 C 
BRANCH  18  19
ATOM     19  C   UNL     1       4.138   3.952  17.692  0.00  0.00    +0.000 A 
ATOM     20  C   UNL     1       3.635   2.646  17.775  0.00  0.00    +0.000 A 
ATOM     21  C   UNL     1       2.264   2.424  17.916  0.00  0.00    +0.000 A 
ATOM     22  C   UNL     1       1.384   3.503  17.983  0.00  0.00    +0.000 A 
ATOM     23  C   UNL     1       1.874   4.806  17.913  0.00  0.00    +0.000 A 
ATOM     24  C   UNL     1       3.244   5.030  17.769  0.00  0.00    +0.000 A 
ENDBRANCH  18  19
ENDBRANCH  17  18
ENDBRANCH  13  17
ENDBRANCH   2  13
TORSDOF 7
ENDMDL
MODEL 6
REMARK VINA RESULT:      -6.7      5.592      7.384
REMARK  Name = 
REMARK  8 active torsions:
REMARK  status: ('A' for Active; 'I' for Inactive)
REMARK    1  A    between atoms: C_1  and  C_2
REMARK    2  A    between atoms: C_2  and  C_3
REMARK    3  A    between atoms: C_6  and  N_7
REMARK    4  A    between atoms: C_8  and  P_10
REMARK    5  A    between atoms: P_10  and  O_12
REMARK    6  A    between atoms: P_10  and  O_13
REMARK    7  A    between atoms: O_13  and  C_14
REMARK    8  A    between atoms: C_14  and  C_15
REMARK                            x       y       z     vdW  Elec       q    Type
REMARK                         _______ _______ _______ _____ _____    ______ ____
ROOT
ATOM      1  N   UNL     1       5.134   6.662  17.415  0.00  0.00    +0.000 N 
ATOM      2  C   UNL     1       6.356   6.686  18.081  0.00  0.00    +0.000 C 
ATOM      3  O   UNL     1       6.767   5.792  18.822  0.00  0.00    +0.000 OA
ATOM      4  H   UNL     1       5.052   7.324  16.648  0.00  0.00    +0.000 HD
ENDROOT
BRANCH   1   8
ATOM      5  C   UNL     1       2.361   3.502  17.962  0.00  0.00    +0.000 A 
ATOM      6  C   UNL     1       2.123   4.749  18.540  0.00  0.00    +0.000 A 
ATOM      7  C   UNL     1       3.016   5.798  18.339  0.00  0.00    +0.000 A 
ATOM      8  C   UNL     1       4.172   5.634  17.566  0.00  0.00    +0.000 A 
ATOM      9  C   UNL     1       4.378   4.407  16.934  0.00  0.00    +0.000 A 
ATOM     10  C   UNL     1       3.482   3.347  17.138  0.00  0.00    +0.000 A 
BRANCH   5  12
ATOM     11  C   UNL     1       0.596   2.557  19.494  0.00  0.00    +0.000 C 
ATOM     12  C   UNL     1       1.399   2.366  18.217  0.00  0.00    +0.000 C 
ENDBRANCH   5  12
ENDBRANCH   1   8
BRANCH   2  13
ATOM     13  P   UNL     1       7.580   8.035  17.905  0.00  0.00    +0.000 P 
ATOM     14  O   UNL     1       8.486   7.338  18.945  0.00  0.00    +0.000 OA
BRANCH  13  15
ATOM     15  O   UNL     1       8.114   7.432  16.460  0.00  0.00    +0.000 OA
ATOM     16  H   UNL     1       7.372   6.994  16.002  0.00  0.00    +0.000 HD
ENDBRANCH  13  15
BRANCH  13  17
ATOM     17  O   UNL     1       8.736   9.310  17.738  0.00  0.00    +0.000 OA
BRANCH  17  18
ATOM     18  C   UNL     1       8.885  10.031  18.954  0.00  0.00    +0.000 C 
BRANCH  18  19
ATOM     19  C   UNL     1      10.042  10.985  18.847  0.00  0.00    +0.000 A 
ATOM     20  C   UNL     1      10.788  11.337  19.981  0.00  0.00    +0.000 A 
ATOM     21  C   UNL     1      11.865  12.217  19.874  0.00  0.00    +0.000 A 
ATOM     22  C   UNL     1      12.212  12.749  18.632  0.00  0.00    +0.000 A 
ATOM     23  C   UNL     1      11.485  12.398  17.497  0.00  0.00    +0.000 A 
ATOM     24  C   UNL     1      10.406  11.519  17.602  0.00  0.00    +0.000 A 
ENDBRANCH  18  19
ENDBRANCH  17  18
ENDBRANCH  13  17
ENDBRANCH   2  13
TORSDOF 7
ENDMDL
MODEL 7
REMARK VINA RESULT:      -6.7      5.622      8.296
REMARK  Name = 
REMARK  8 active torsions:
REMARK  status: ('A' for Active; 'I' for Inactive)
REMARK    1  A    between atoms: C_1  and  C_2
REMARK    2  A    between atoms: C_2  and  C_3
REMARK    3  A    between atoms: C_6  and  N_7
REMARK    4  A    between atoms: C_8  and  P_10
REMARK    5  A    between atoms: P_10  and  O_12
REMARK    6  A    between atoms: P_10  and  O_13
REMARK    7  A    between atoms: O_13  and  C_14
REMARK    8  A    between atoms: C_14  and  C_15
REMARK                            x       y       z     vdW  Elec       q    Type
REMARK                         _______ _______ _______ _____ _____    ______ ____
ROOT
ATOM      1  N   UNL     1       7.538   8.959  17.560  0.00  0.00    +0.000 N 
ATOM      2  C   UNL     1       7.602   7.605  17.874  0.00  0.00    +0.000 C 
ATOM      3  O   UNL     1       8.356   7.117  18.717  0.00  0.00    +0.000 OA
ATOM      4  H   UNL     1       6.702   9.243  17.055  0.00  0.00    +0.000 HD
ENDROOT
BRANCH   1   8
ATOM      5  C   UNL     1       9.951  11.982  19.297  0.00  0.00    +0.000 A 
ATOM      6  C   UNL     1       9.949  10.695  19.833  0.00  0.00    +0.000 A 
ATOM      7  C   UNL     1       9.181   9.692  19.248  0.00  0.00    +0.000 A 
ATOM      8  C   UNL     1       8.389   9.942  18.121  0.00  0.00    +0.000 A 
ATOM      9  C   UNL     1       8.440  11.213  17.545  0.00  0.00    +0.000 A 
ATOM     10  C   UNL     1       9.210  12.226  18.135  0.00  0.00    +0.000 A 
BRANCH   5  12
ATOM     11  C   UNL     1      10.118  13.580  21.238  0.00  0.00    +0.000 C 
ATOM     12  C   UNL     1      10.765  13.066  19.963  0.00  0.00    +0.000 C 
ENDBRANCH   5  12
ENDBRANCH   1   8
BRANCH   2  13
ATOM     13  P   UNL     1       6.519   6.338  17.120  0.00  0.00    +0.000 P 
ATOM     14  O   UNL     1       7.534   6.169  15.966  0.00  0.00    +0.000 OA
BRANCH  13  15
ATOM     15  O   UNL     1       6.994   5.199  18.223  0.00  0.00    +0.000 OA
ATOM     16  H   UNL     1       7.868   5.447  18.581  0.00  0.00    +0.000 HD
ENDBRANCH  13  15
BRANCH  13  17
ATOM     17  O   UNL     1       5.495   5.139  16.407  0.00  0.00    +0.000 OA
BRANCH  17  18
ATOM     18  C   UNL     1       5.416   3.979  17.225  0.00  0.00    +0.000 C 
BRANCH  18  19
ATOM     19  C   UNL     1       3.983   3.704  17.588  0.00  0.00    +0.000 A 
ATOM     20  C   UNL     1       3.045   4.744  17.646  0.00  0.00    +0.000 A 
ATOM     21  C   UNL     1       1.716   4.480  17.976  0.00  0.00    +0.000 A 
ATOM     22  C   UNL     1       1.308   3.174  18.245  0.00  0.00    +0.000 A 
ATOM     23  C   UNL     1       2.229   2.130  18.179  0.00  0.00    +0.000 A 
ATOM     24  C   UNL     1       3.560   2.393  17.851  0.00  0.00    +0.000 A 
ENDBRANCH  18  19
ENDBRANCH  17  18
ENDBRANCH  13  17
ENDBRANCH   2  13
TORSDOF 7
ENDMDL
MODEL 8
REMARK VINA RESULT:      -6.7      6.183      8.783
REMARK  Name = 
REMARK  8 active torsions:
REMARK  status: ('A' for Active; 'I' for Inactive)
REMARK    1  A    between atoms: C_1  and  C_2
REMARK    2  A    between atoms: C_2  and  C_3
REMARK    3  A    between atoms: C_6  and  N_7
REMARK    4  A    between atoms: C_8  and  P_10
REMARK    5  A    between atoms: P_10  and  O_12
REMARK    6  A    between atoms: P_10  and  O_13
REMARK    7  A    between atoms: O_13  and  C_14
REMARK    8  A    between atoms: C_14  and  C_15
REMARK                            x       y       z     vdW  Elec       q    Type
REMARK                         _______ _______ _______ _____ _____    ______ ____
ROOT
ATOM      1  N   UNL     1       8.794   8.673  18.895  0.00  0.00    +0.000 N 
ATOM      2  C   UNL     1       7.836   8.343  17.941  0.00  0.00    +0.000 C 
ATOM      3  O   UNL     1       7.371   9.128  17.114  0.00  0.00    +0.000 OA
ATOM      4  H   UNL     1       9.269   7.880  19.318  0.00  0.00    +0.000 HD
ENDROOT
BRANCH   1   8
ATOM      5  C   UNL     1      10.451  12.523  19.534  0.00  0.00    +0.000 A 
ATOM      6  C   UNL     1      10.383  11.997  18.245  0.00  0.00    +0.000 A 
ATOM      7  C   UNL     1       9.813  10.745  18.027  0.00  0.00    +0.000 A 
ATOM      8  C   UNL     1       9.303   9.981  19.083  0.00  0.00    +0.000 A 
ATOM      9  C   UNL     1       9.312  10.534  20.365  0.00  0.00    +0.000 A 
ATOM     10  C   UNL     1       9.890  11.792  20.588  0.00  0.00    +0.000 A 
BRANCH   5  12
ATOM     11  C   UNL     1      10.290  15.012  19.175  0.00  0.00    +0.000 C 
ATOM     12  C   UNL     1      11.102  13.867  19.758  0.00  0.00    +0.000 C 
ENDBRANCH   5  12
ENDBRANCH   1   8
BRANCH   2  13
ATOM     13  P   UNL     1       7.160   6.656  17.726  0.00  0.00    +0.000 P 
ATOM     14  O   UNL     1       5.753   7.256  17.505  0.00  0.00    +0.000 OA
BRANCH  13  15
ATOM     15  O   UNL     1       7.779   6.546  16.195  0.00  0.00    +0.000 OA
ATOM     16  H   UNL     1       8.548   5.946  16.205  0.00  0.00    +0.000 HD
ENDBRANCH  13  15
BRANCH  13  17
ATOM     17  O   UNL     1       6.522   5.061  17.523  0.00  0.00    +0.000 OA
BRANCH  17  18
ATOM     18  C   UNL     1       6.002   4.556  18.746  0.00  0.00    +0.000 C 
BRANCH  18  19
ATOM     19  C   UNL     1       4.701   3.846  18.497  0.00  0.00    +0.000 A 
ATOM     20  C   UNL     1       3.927   4.144  17.367  0.00  0.00    +0.000 A 
ATOM     21  C   UNL     1       2.723   3.476  17.138  0.00  0.00    +0.000 A 
ATOM     22  C   UNL     1       2.284   2.500  18.032  0.00  0.00    +0.000 A 
ATOM     23  C   UNL     1       3.051   2.187  19.153  0.00  0.00    +0.000 A 
ATOM     24  C   UNL     1       4.254   2.856  19.385  0.00  0.00    +0.000 A 
ENDBRANCH  18  19
ENDBRANCH  17  18
ENDBRANCH  13  17
ENDBRANCH   2  13
TORSDOF 7
ENDMDL
MODEL 9
REMARK VINA RESULT:      -6.6      6.340      8.988
REMARK  Name = 
REMARK  8 active torsions:
REMARK  status: ('A' for Active; 'I' for Inactive)
REMARK    1  A    between atoms: C_1  and  C_2
REMARK    2  A    between atoms: C_2  and  C_3
REMARK    3  A    between atoms: C_6  and  N_7
REMARK    4  A    between atoms: C_8  and  P_10
REMARK    5  A    between atoms: P_10  and  O_12
REMARK    6  A    between atoms: P_10  and  O_13
REMARK    7  A    between atoms: O_13  and  C_14
REMARK    8  A    between atoms: C_14  and  C_15
REMARK                            x       y       z     vdW  Elec       q    Type
REMARK                         _______ _______ _______ _____ _____    ______ ____
ROOT
ATOM      1  N   UNL     1       8.885   8.893  19.004  0.00  0.00    +0.000 N 
ATOM      2  C   UNL     1       7.912   8.560  18.066  0.00  0.00    +0.000 C 
ATOM      3  O   UNL     1       7.464   9.332  17.217  0.00  0.00    +0.000 OA
ATOM      4  H   UNL     1       9.340   8.101  19.449  0.00  0.00    +0.000 HD
ENDROOT
BRANCH   1   8
ATOM      5  C   UNL     1      10.391  12.841  19.351  0.00  0.00    +0.000 A 
ATOM      6  C   UNL     1       9.906  12.176  20.476  0.00  0.00    +0.000 A 
ATOM      7  C   UNL     1       9.438  10.870  20.372  0.00  0.00    +0.000 A 
ATOM      8  C   UNL     1       9.431  10.192  19.148  0.00  0.00    +0.000 A 
ATOM      9  C   UNL     1       9.976  10.833  18.033  0.00  0.00    +0.000 A 
ATOM     10  C   UNL     1      10.444  12.150  18.135  0.00  0.00    +0.000 A 
BRANCH   5  12
ATOM     11  C   UNL     1       9.744  15.226  19.851  0.00  0.00    +0.000 C 
ATOM     12  C   UNL     1      10.865  14.270  19.475  0.00  0.00    +0.000 C 
ENDBRANCH   5  12
ENDBRANCH   1   8
BRANCH   2  13
ATOM     13  P   UNL     1       7.189   6.886  17.908  0.00  0.00    +0.000 P 
ATOM     14  O   UNL     1       7.892   6.719  16.542  0.00  0.00    +0.000 OA
BRANCH  13  15
ATOM     15  O   UNL     1       8.277   6.257  18.984  0.00  0.00    +0.000 OA
ATOM     16  H   UNL     1       7.877   6.246  19.874  0.00  0.00    +0.000 HD
ENDBRANCH  13  15
BRANCH  13  17
ATOM     17  O   UNL     1       6.505   5.304  17.760  0.00  0.00    +0.000 OA
BRANCH  17  18
ATOM     18  C   UNL     1       5.801   4.937  18.939  0.00  0.00    +0.000 C 
BRANCH  18  19
ATOM     19  C   UNL     1       4.369   4.623  18.606  0.00  0.00    +0.000 A 
ATOM     20  C   UNL     1       4.051   3.790  17.524  0.00  0.00    +0.000 A 
ATOM     21  C   UNL     1       2.720   3.497  17.224  0.00  0.00    +0.000 A 
ATOM     22  C   UNL     1       1.695   4.026  18.006  0.00  0.00    +0.000 A 
ATOM     23  C   UNL     1       1.999   4.846  19.091  0.00  0.00    +0.000 A 
ATOM     24  C   UNL     1       3.330   5.142  19.391  0.00  0.00    +0.000 A 
ENDBRANCH  18  19
ENDBRANCH  17  18
ENDBRANCH  13  17
ENDBRANCH   2  13
TORSDOF 7
ENDMDL
