MODEL 1
REMARK VINA RESULT:      -8.9      0.000      0.000
REMARK  Name = 
REMARK  8 active torsions:
REMARK  status: ('A' for Active; 'I' for Inactive)
REMARK    1  A    between atoms: C_1  and  C_2
REMARK    2  A    between atoms: C_2  and  N_3
REMARK    3  A    between atoms: C_4  and  C_5
REMARK    4  A    between atoms: N_9  and  N_10
REMARK    5  A    between atoms: C_11  and  C_13
REMARK    6  A    between atoms: C_13  and  O_14
REMARK    7  A    between atoms: O_14  and  C_15
REMARK    8  A    between atoms: C_19  and  C_20
REMARK                            x       y       z     vdW  Elec       q    Type
REMARK                         _______ _______ _______ _____ _____    ______ ____
ROOT
ATOM      1  C   UNL     1       3.672   3.090  18.694  0.00  0.00    +0.000 A 
ATOM      2  C   UNL     1       3.689   2.774  17.334  0.00  0.00    +0.000 A 
ATOM      3  C   UNL     1       4.606   3.386  16.478  0.00  0.00    +0.000 A 
ATOM      4  C   UNL     1       5.533   4.305  16.974  0.00  0.00    +0.000 A 
ATOM      5  C   UNL     1       6.507   4.973  16.105  0.00  0.00    +0.000 A 
ATOM      6  C   UNL     1       7.345   5.852  16.669  0.00  0.00    +0.000 A 
ATOM      7  C   UNL     1       7.341   6.173  18.104  0.00  0.00    +0.000 A 
ATOM      8  O   UNL     1       8.125   6.997  18.560  0.00  0.00    +0.000 OA
ATOM      9  O   UNL     1       6.423   5.507  18.901  0.00  0.00    +0.000 OA
ATOM     10  C   UNL     1       5.522   4.585  18.339  0.00  0.00    +0.000 A 
ATOM     11  C   UNL     1       4.612   3.982  19.208  0.00  0.00    +0.000 A 
ENDROOT
BRANCH   5  12
ATOM     12  C   UNL     1       6.669   4.745  14.657  0.00  0.00    +0.000 A 
ATOM     13  C   UNL     1       5.837   3.828  14.002  0.00  0.00    +0.000 A 
ATOM     14  C   UNL     1       6.022   3.559  12.646  0.00  0.00    +0.000 A 
ATOM     15  C   UNL     1       7.031   4.210  11.937  0.00  0.00    +0.000 A 
ATOM     16  C   UNL     1       7.842   5.146  12.577  0.00  0.00    +0.000 A 
ATOM     17  C   UNL     1       7.661   5.417  13.935  0.00  0.00    +0.000 A 
ENDBRANCH   5  12
BRANCH   1  18
ATOM     18  O   UNL     1       2.777   2.578  19.594  0.00  0.00    +0.000 OA
BRANCH  18  19
ATOM     19  C   UNL     1       2.722   3.277  20.837  0.00  0.00    +0.000 C 
BRANCH  19  21
ATOM     20  N   UNL     1       2.325   5.654  21.085  0.00  0.00    +0.000 N 
ATOM     21  C   UNL     1       1.742   4.436  20.804  0.00  0.00    +0.000 C 
ATOM     22  O   UNL     1       0.554   4.257  20.538  0.00  0.00    +0.000 OA
ATOM     23  H   UNL     1       3.323   5.714  21.281  0.00  0.00    +0.000 HD
BRANCH  20  30
ATOM     24  N   UNL     1       1.042   8.774  19.832  0.00  0.00    +0.000 N 
ATOM     25  C   UNL     1       1.364   9.417  18.628  0.00  0.00    +0.000 A 
ATOM     26  C   UNL     1       0.744  10.699  18.179  0.00  0.00    +0.000 C 
ATOM     27  C   UNL     1       2.292   8.768  17.897  0.00  0.00    +0.000 A 
ATOM     28  S   UNL     1       2.824   7.293  18.661  0.00  0.00    +0.000 S 
ATOM     29  C   UNL     1       1.717   7.578  20.036  0.00  0.00    +0.000 A 
ATOM     30  N   UNL     1       1.579   6.783  21.048  0.00  0.00    +0.000 NA
BRANCH  24  32
ATOM     31  C   UNL     1       0.684  10.321  21.709  0.00  0.00    +0.000 C 
ATOM     32  C   UNL     1       0.084   9.230  20.835  0.00  0.00    +0.000 C 
ENDBRANCH  24  32
ENDBRANCH  20  30
ENDBRANCH  19  21
ENDBRANCH  18  19
ENDBRANCH   1  18
TORSDOF 6
ENDMDL
MODEL 2
REMARK VINA RESULT:      -8.7      4.882     10.485
REMARK  Name = 
REMARK  8 active torsions:
REMARK  status: ('A' for Active; 'I' for Inactive)
REMARK    1  A    between atoms: C_1  and  C_2
REMARK    2  A    between atoms: C_2  and  N_3
REMARK    3  A    between atoms: C_4  and  C_5
REMARK    4  A    between atoms: N_9  and  N_10
REMARK    5  A    between atoms: C_11  and  C_13
REMARK    6  A    between atoms: C_13  and  O_14
REMARK    7  A    between atoms: O_14  and  C_15
REMARK    8  A    between atoms: C_19  and  C_20
REMARK                            x       y       z     vdW  Elec       q    Type
REMARK                         _______ _______ _______ _____ _____    ______ ____
ROOT
ATOM      1  C   UNL     1      -0.612  10.987  19.214  0.00  0.00    +0.000 A 
ATOM      2  C   UNL     1      -1.676  11.627  19.852  0.00  0.00    +0.000 A 
ATOM      3  C   UNL     1      -2.889  11.815  19.187  0.00  0.00    +0.000 A 
ATOM      4  C   UNL     1      -3.061  11.344  17.883  0.00  0.00    +0.000 A 
ATOM      5  C   UNL     1      -4.317  11.528  17.150  0.00  0.00    +0.000 A 
ATOM      6  C   UNL     1      -4.382  11.059  15.898  0.00  0.00    +0.000 A 
ATOM      7  C   UNL     1      -3.268  10.368  15.230  0.00  0.00    +0.000 A 
ATOM      8  O   UNL     1      -3.384   9.971  14.077  0.00  0.00    +0.000 OA
ATOM      9  O   UNL     1      -2.103  10.190  15.959  0.00  0.00    +0.000 OA
ATOM     10  C   UNL     1      -1.998  10.681  17.273  0.00  0.00    +0.000 A 
ATOM     11  C   UNL     1      -0.780  10.486  17.924  0.00  0.00    +0.000 A 
ENDROOT
BRANCH   5  12
ATOM     12  C   UNL     1      -5.538  12.165  17.678  0.00  0.00    +0.000 A 
ATOM     13  C   UNL     1      -6.237  11.560  18.730  0.00  0.00    +0.000 A 
ATOM     14  C   UNL     1      -7.425  12.122  19.196  0.00  0.00    +0.000 A 
ATOM     15  C   UNL     1      -7.915  13.293  18.620  0.00  0.00    +0.000 A 
ATOM     16  C   UNL     1      -7.208  13.917  17.593  0.00  0.00    +0.000 A 
ATOM     17  C   UNL     1      -6.018  13.357  17.123  0.00  0.00    +0.000 A 
ENDBRANCH   5  12
BRANCH   1  18
ATOM     18  O   UNL     1       0.626  10.806  19.770  0.00  0.00    +0.000 OA
BRANCH  18  19
ATOM     19  C   UNL     1       0.606  10.327  21.114  0.00  0.00    +0.000 C 
BRANCH  19  21
ATOM     20  N   UNL     1       1.716   8.208  20.735  0.00  0.00    +0.000 N 
ATOM     21  C   UNL     1       0.561   8.812  21.186  0.00  0.00    +0.000 C 
ATOM     22  O   UNL     1      -0.429   8.225  21.623  0.00  0.00    +0.000 OA
ATOM     23  H   UNL     1       2.496   8.772  20.402  0.00  0.00    +0.000 HD
BRANCH  20  30
ATOM     24  N   UNL     1       2.616   4.893  19.662  0.00  0.00    +0.000 N 
ATOM     25  C   UNL     1       3.298   4.521  18.494  0.00  0.00    +0.000 A 
ATOM     26  C   UNL     1       3.658   3.111  18.157  0.00  0.00    +0.000 C 
ATOM     27  C   UNL     1       3.606   5.558  17.691  0.00  0.00    +0.000 A 
ATOM     28  S   UNL     1       3.074   7.084  18.347  0.00  0.00    +0.000 S 
ATOM     29  C   UNL     1       2.410   6.260  19.788  0.00  0.00    +0.000 A 
ATOM     30  N   UNL     1       1.835   6.860  20.781  0.00  0.00    +0.000 NA
BRANCH  24  32
ATOM     31  C   UNL     1       0.797   3.394  20.360  0.00  0.00    +0.000 C 
ATOM     32  C   UNL     1       2.144   4.002  20.718  0.00  0.00    +0.000 C 
ENDBRANCH  24  32
ENDBRANCH  20  30
ENDBRANCH  19  21
ENDBRANCH  18  19
ENDBRANCH   1  18
TORSDOF 6
ENDMDL
MODEL 3
REMARK VINA RESULT:      -8.7      3.209      4.813
REMARK  Name = 
REMARK  8 active torsions:
REMARK  status: ('A' for Active; 'I' for Inactive)
REMARK    1  A    between atoms: C_1  and  C_2
REMARK    2  A    between atoms: C_2  and  N_3
REMARK    3  A    between atoms: C_4  and  C_5
REMARK    4  A    between atoms: N_9  and  N_10
REMARK    5  A    between atoms: C_11  and  C_13
REMARK    6  A    between atoms: C_13  and  O_14
REMARK    7  A    between atoms: O_14  and  C_15
REMARK    8  A    between atoms: C_19  and  C_20
REMARK                            x       y       z     vdW  Elec       q    Type
REMARK                         _______ _______ _______ _____ _____    ______ ____
ROOT
ATOM      1  C   UNL     1       2.031   7.676  19.475  0.00  0.00    +0.000 A 
ATOM      2  C   UNL     1       2.729   7.892  18.285  0.00  0.00    +0.000 A 
ATOM      3  C   UNL     1       3.573   6.906  17.771  0.00  0.00    +0.000 A 
ATOM      4  C   UNL     1       3.712   5.681  18.428  0.00  0.00    +0.000 A 
ATOM      5  C   UNL     1       4.593   4.624  17.923  0.00  0.00    +0.000 A 
ATOM      6  C   UNL     1       4.674   3.490  18.631  0.00  0.00    +0.000 A 
ATOM      7  C   UNL     1       3.925   3.253  19.875  0.00  0.00    +0.000 A 
ATOM      8  O   UNL     1       4.051   2.198  20.486  0.00  0.00    +0.000 OA
ATOM      9  O   UNL     1       3.084   4.264  20.312  0.00  0.00    +0.000 OA
ATOM     10  C   UNL     1       2.983   5.471  19.598  0.00  0.00    +0.000 A 
ATOM     11  C   UNL     1       2.137   6.447  20.124  0.00  0.00    +0.000 A 
ENDROOT
BRANCH   5  12
ATOM     12  C   UNL     1       5.385   4.682  16.681  0.00  0.00    +0.000 A 
ATOM     13  C   UNL     1       4.813   4.267  15.472  0.00  0.00    +0.000 A 
ATOM     14  C   UNL     1       5.573   4.261  14.303  0.00  0.00    +0.000 A 
ATOM     15  C   UNL     1       6.903   4.677  14.333  0.00  0.00    +0.000 A 
ATOM     16  C   UNL     1       7.469   5.121  15.528  0.00  0.00    +0.000 A 
ATOM     17  C   UNL     1       6.712   5.128  16.701  0.00  0.00    +0.000 A 
ENDBRANCH   5  12
BRANCH   1  18
ATOM     18  O   UNL     1       1.225   8.604  20.076  0.00  0.00    +0.000 OA
BRANCH  18  19
ATOM     19  C   UNL     1       1.169   8.508  21.499  0.00  0.00    +0.000 C 
BRANCH  19  21
ATOM     20  N   UNL     1       0.764  10.886  21.280  0.00  0.00    +0.000 N 
ATOM     21  C   UNL     1       0.756   9.815  22.150  0.00  0.00    +0.000 C 
ATOM     22  O   UNL     1       0.442   9.862  23.339  0.00  0.00    +0.000 OA
ATOM     23  H   UNL     1       1.024  10.755  20.304  0.00  0.00    +0.000 HD
BRANCH  20  30
ATOM     24  N   UNL     1      -0.250  14.334  21.087  0.00  0.00    +0.000 N 
ATOM     25  C   UNL     1      -0.451  15.109  19.936  0.00  0.00    +0.000 A 
ATOM     26  C   UNL     1      -0.911  16.529  19.962  0.00  0.00    +0.000 C 
ATOM     27  C   UNL     1      -0.195  14.453  18.787  0.00  0.00    +0.000 A 
ATOM     28  S   UNL     1       0.310  12.806  19.064  0.00  0.00    +0.000 S 
ATOM     29  C   UNL     1       0.151  13.029  20.830  0.00  0.00    +0.000 A 
ATOM     30  N   UNL     1       0.375  12.109  21.712  0.00  0.00    +0.000 NA
BRANCH  24  32
ATOM     31  C   UNL     1      -1.878  14.570  22.913  0.00  0.00    +0.000 C 
ATOM     32  C   UNL     1      -0.436  14.761  22.471  0.00  0.00    +0.000 C 
ENDBRANCH  24  32
ENDBRANCH  20  30
ENDBRANCH  19  21
ENDBRANCH  18  19
ENDBRANCH   1  18
TORSDOF 6
ENDMDL
MODEL 4
REMARK VINA RESULT:      -8.6      3.877      5.470
REMARK  Name = 
REMARK  8 active torsions:
REMARK  status: ('A' for Active; 'I' for Inactive)
REMARK    1  A    between atoms: C_1  and  C_2
REMARK    2  A    between atoms: C_2  and  N_3
REMARK    3  A    between atoms: C_4  and  C_5
REMARK    4  A    between atoms: N_9  and  N_10
REMARK    5  A    between atoms: C_11  and  C_13
REMARK    6  A    between atoms: C_13  and  O_14
REMARK    7  A    between atoms: O_14  and  C_15
REMARK    8  A    between atoms: C_19  and  C_20
REMARK                            x       y       z     vdW  Elec       q    Type
REMARK                         _______ _______ _______ _____ _____    ______ ____
ROOT
ATOM      1  C   UNL     1       2.087   7.836  19.248  0.00  0.00    +0.000 A 
ATOM      2  C   UNL     1       2.805   7.976  18.059  0.00  0.00    +0.000 A 
ATOM      3  C   UNL     1       3.624   6.942  17.602  0.00  0.00    +0.000 A 
ATOM      4  C   UNL     1       3.716   5.744  18.315  0.00  0.00    +0.000 A 
ATOM      5  C   UNL     1       4.570   4.639  17.870  0.00  0.00    +0.000 A 
ATOM      6  C   UNL     1       4.607   3.536  18.629  0.00  0.00    +0.000 A 
ATOM      7  C   UNL     1       3.836   3.379  19.872  0.00  0.00    +0.000 A 
ATOM      8  O   UNL     1       3.921   2.350  20.531  0.00  0.00    +0.000 OA
ATOM      9  O   UNL     1       3.022   4.434  20.252  0.00  0.00    +0.000 OA
ATOM     10  C   UNL     1       2.967   5.610  19.482  0.00  0.00    +0.000 A 
ATOM     11  C   UNL     1       2.146   6.635  19.953  0.00  0.00    +0.000 A 
ENDROOT
BRANCH   5  12
ATOM     12  C   UNL     1       5.379   4.617  16.637  0.00  0.00    +0.000 A 
ATOM     13  C   UNL     1       6.731   4.977  16.688  0.00  0.00    +0.000 A 
ATOM     14  C   UNL     1       7.489   5.018  15.518  0.00  0.00    +0.000 A 
ATOM     15  C   UNL     1       6.904   4.693  14.296  0.00  0.00    +0.000 A 
ATOM     16  C   UNL     1       5.565   4.305  14.243  0.00  0.00    +0.000 A 
ATOM     17  C   UNL     1       4.802   4.262  15.411  0.00  0.00    +0.000 A 
ENDBRANCH   5  12
BRANCH   1  18
ATOM     18  O   UNL     1       1.303   8.814  19.796  0.00  0.00    +0.000 OA
BRANCH  18  19
ATOM     19  C   UNL     1       1.133   9.968  18.973  0.00  0.00    +0.000 C 
BRANCH  19  21
ATOM     20  N   UNL     1      -1.163  10.731  18.885  0.00  0.00    +0.000 N 
ATOM     21  C   UNL     1       0.059  10.901  19.501  0.00  0.00    +0.000 C 
ATOM     22  O   UNL     1       0.301  11.706  20.400  0.00  0.00    +0.000 OA
ATOM     23  H   UNL     1      -1.281  10.028  18.157  0.00  0.00    +0.000 HD
BRANCH  20  30
ATOM     24  N   UNL     1      -4.421  12.253  18.736  0.00  0.00    +0.000 N 
ATOM     25  C   UNL     1      -5.380  12.138  17.718  0.00  0.00    +0.000 A 
ATOM     26  C   UNL     1      -6.725  12.784  17.768  0.00  0.00    +0.000 C 
ATOM     27  C   UNL     1      -4.979  11.382  16.677  0.00  0.00    +0.000 A 
ATOM     28  S   UNL     1      -3.370  10.747  16.901  0.00  0.00    +0.000 S 
ATOM     29  C   UNL     1      -3.250  11.547  18.495  0.00  0.00    +0.000 A 
ATOM     30  N   UNL     1      -2.228  11.467  19.285  0.00  0.00    +0.000 NA
BRANCH  24  32
ATOM     31  C   UNL     1      -5.563  12.349  20.911  0.00  0.00    +0.000 C 
ATOM     32  C   UNL     1      -4.555  13.006  19.979  0.00  0.00    +0.000 C 
ENDBRANCH  24  32
ENDBRANCH  20  30
ENDBRANCH  19  21
ENDBRANCH  18  19
ENDBRANCH   1  18
TORSDOF 6
ENDMDL
MODEL 5
REMARK VINA RESULT:      -8.6      3.253      4.893
REMARK  Name = 
REMARK  8 active torsions:
REMARK  status: ('A' for Active; 'I' for Inactive)
REMARK    1  A    between atoms: C_1  and  C_2
REMARK    2  A    between atoms: C_2  and  N_3
REMARK    3  A    between atoms: C_4  and  C_5
REMARK    4  A    between atoms: N_9  and  N_10
REMARK    5  A    between atoms: C_11  and  C_13
REMARK    6  A    between atoms: C_13  and  O_14
REMARK    7  A    between atoms: O_14  and  C_15
REMARK    8  A    between atoms: C_19  and  C_20
REMARK                            x       y       z     vdW  Elec       q    Type
REMARK                         _______ _______ _______ _____ _____    ______ ____
ROOT
ATOM      1  C   UNL     1       2.125   7.692  19.407  0.00  0.00    +0.000 A 
ATOM      2  C   UNL     1       2.839   7.873  18.221  0.00  0.00    +0.000 A 
ATOM      3  C   UNL     1       3.658   6.857  17.727  0.00  0.00    +0.000 A 
ATOM      4  C   UNL     1       3.756   5.637  18.399  0.00  0.00    +0.000 A 
ATOM      5  C   UNL     1       4.611   4.549  17.915  0.00  0.00    +0.000 A 
ATOM      6  C   UNL     1       4.654   3.422  18.637  0.00  0.00    +0.000 A 
ATOM      7  C   UNL     1       3.888   3.222  19.876  0.00  0.00    +0.000 A 
ATOM      8  O   UNL     1       3.979   2.171  20.501  0.00  0.00    +0.000 OA
ATOM      9  O   UNL     1       3.073   4.261  20.294  0.00  0.00    +0.000 OA
ATOM     10  C   UNL     1       3.012   5.462  19.565  0.00  0.00    +0.000 A 
ATOM     11  C   UNL     1       2.190   6.468  20.072  0.00  0.00    +0.000 A 
ENDROOT
BRANCH   5  12
ATOM     12  C   UNL     1       5.415   4.570  16.679  0.00  0.00    +0.000 A 
ATOM     13  C   UNL     1       6.742   5.015  16.722  0.00  0.00    +0.000 A 
ATOM     14  C   UNL     1       7.492   5.097  15.549  0.00  0.00    +0.000 A 
ATOM     15  C   UNL     1       6.924   4.727  14.331  0.00  0.00    +0.000 A 
ATOM     16  C   UNL     1       5.613   4.254  14.286  0.00  0.00    +0.000 A 
ATOM     17  C   UNL     1       4.858   4.171  15.458  0.00  0.00    +0.000 A 
ENDBRANCH   5  12
BRANCH   1  18
ATOM     18  O   UNL     1       1.341   8.650  19.990  0.00  0.00    +0.000 OA
BRANCH  18  19
ATOM     19  C   UNL     1       1.069   8.431  21.374  0.00  0.00    +0.000 C 
BRANCH  19  21
ATOM     20  N   UNL     1       0.524  10.789  21.267  0.00  0.00    +0.000 N 
ATOM     21  C   UNL     1       0.748   9.720  22.109  0.00  0.00    +0.000 C 
ATOM     22  O   UNL     1       0.693   9.755  23.338  0.00  0.00    +0.000 OA
ATOM     23  H   UNL     1       0.576  10.669  20.257  0.00  0.00    +0.000 HD
BRANCH  20  30
ATOM     24  N   UNL     1       0.467  14.368  21.645  0.00  0.00    +0.000 N 
ATOM     25  C   UNL     1       1.130  15.327  20.866  0.00  0.00    +0.000 A 
ATOM     26  C   UNL     1       1.011  16.800  21.083  0.00  0.00    +0.000 C 
ATOM     27  C   UNL     1       1.893  14.800  19.888  0.00  0.00    +0.000 A 
ATOM     28  S   UNL     1       1.828  13.057  19.864  0.00  0.00    +0.000 S 
ATOM     29  C   UNL     1       0.698  13.057  21.250  0.00  0.00    +0.000 A 
ATOM     30  N   UNL     1       0.184  11.994  21.782  0.00  0.00    +0.000 NA
BRANCH  24  32
ATOM     31  C   UNL     1      -1.852  14.840  22.309  0.00  0.00    +0.000 C 
ATOM     32  C   UNL     1      -0.421  14.624  22.776  0.00  0.00    +0.000 C 
ENDBRANCH  24  32
ENDBRANCH  20  30
ENDBRANCH  19  21
ENDBRANCH  18  19
ENDBRANCH   1  18
TORSDOF 6
ENDMDL
MODEL 6
REMARK VINA RESULT:      -8.6      3.772      5.726
REMARK  Name = 
REMARK  8 active torsions:
REMARK  status: ('A' for Active; 'I' for Inactive)
REMARK    1  A    between atoms: C_1  and  C_2
REMARK    2  A    between atoms: C_2  and  N_3
REMARK    3  A    between atoms: C_4  and  C_5
REMARK    4  A    between atoms: N_9  and  N_10
REMARK    5  A    between atoms: C_11  and  C_13
REMARK    6  A    between atoms: C_13  and  O_14
REMARK    7  A    between atoms: O_14  and  C_15
REMARK    8  A    between atoms: C_19  and  C_20
REMARK                            x       y       z     vdW  Elec       q    Type
REMARK                         _______ _______ _______ _____ _____    ______ ____
ROOT
ATOM      1  C   UNL     1       1.593   8.115  19.721  0.00  0.00    +0.000 A 
ATOM      2  C   UNL     1       2.463   8.159  18.630  0.00  0.00    +0.000 A 
ATOM      3  C   UNL     1       3.258   7.055  18.315  0.00  0.00    +0.000 A 
ATOM      4  C   UNL     1       3.176   5.884  19.073  0.00  0.00    +0.000 A 
ATOM      5  C   UNL     1       3.999   4.708  18.777  0.00  0.00    +0.000 A 
ATOM      6  C   UNL     1       3.864   3.638  19.571  0.00  0.00    +0.000 A 
ATOM      7  C   UNL     1       2.934   3.583  20.709  0.00  0.00    +0.000 A 
ATOM      8  O   UNL     1       2.864   2.579  21.408  0.00  0.00    +0.000 OA
ATOM      9  O   UNL     1       2.155   4.704  20.948  0.00  0.00    +0.000 OA
ATOM     10  C   UNL     1       2.280   5.848  20.139  0.00  0.00    +0.000 A 
ATOM     11  C   UNL     1       1.480   6.943  20.467  0.00  0.00    +0.000 A 
ENDROOT
BRANCH   5  12
ATOM     12  C   UNL     1       4.953   4.582  17.660  0.00  0.00    +0.000 A 
ATOM     13  C   UNL     1       4.485   4.240  16.384  0.00  0.00    +0.000 A 
ATOM     14  C   UNL     1       5.385   4.059  15.334  0.00  0.00    +0.000 A 
ATOM     15  C   UNL     1       6.752   4.226  15.550  0.00  0.00    +0.000 A 
ATOM     16  C   UNL     1       7.220   4.596  16.811  0.00  0.00    +0.000 A 
ATOM     17  C   UNL     1       6.323   4.778  17.865  0.00  0.00    +0.000 A 
ENDBRANCH   5  12
BRANCH   1  18
ATOM     18  O   UNL     1       0.817   9.164  20.132  0.00  0.00    +0.000 OA
BRANCH  18  19
ATOM     19  C   UNL     1       1.141   9.669  21.427  0.00  0.00    +0.000 C 
BRANCH  19  21
ATOM     20  N   UNL     1      -0.406  11.338  22.256  0.00  0.00    +0.000 N 
ATOM     21  C   UNL     1      -0.095   9.994  22.245  0.00  0.00    +0.000 C 
ATOM     22  O   UNL     1      -0.731   9.109  22.816  0.00  0.00    +0.000 OA
ATOM     23  H   UNL     1       0.168  12.004  21.742  0.00  0.00    +0.000 HD
BRANCH  20  30
ATOM     24  N   UNL     1      -3.680  12.762  22.714  0.00  0.00    +0.000 N 
ATOM     25  C   UNL     1      -4.568  13.214  21.727  0.00  0.00    +0.000 A 
ATOM     26  C   UNL     1      -5.928  13.758  22.020  0.00  0.00    +0.000 C 
ATOM     27  C   UNL     1      -4.084  13.114  20.473  0.00  0.00    +0.000 A 
ATOM     28  S   UNL     1      -2.480  12.431  20.435  0.00  0.00    +0.000 S 
ATOM     29  C   UNL     1      -2.481  12.270  22.216  0.00  0.00    +0.000 A 
ATOM     30  N   UNL     1      -1.510  11.769  22.911  0.00  0.00    +0.000 NA
BRANCH  24  32
ATOM     31  C   UNL     1      -3.495  14.068  24.788  0.00  0.00    +0.000 C 
ATOM     32  C   UNL     1      -3.911  12.748  24.155  0.00  0.00    +0.000 C 
ENDBRANCH  24  32
ENDBRANCH  20  30
ENDBRANCH  19  21
ENDBRANCH  18  19
ENDBRANCH   1  18
TORSDOF 6
ENDMDL
MODEL 7
REMARK VINA RESULT:      -8.6      3.917      5.651
REMARK  Name = 
REMARK  8 active torsions:
REMARK  status: ('A' for Active; 'I' for Inactive)
REMARK    1  A    between atoms: C_1  and  C_2
REMARK    2  A    between atoms: C_2  and  N_3
REMARK    3  A    between atoms: C_4  and  C_5
REMARK    4  A    between atoms: N_9  and  N_10
REMARK    5  A    between atoms: C_11  and  C_13
REMARK    6  A    between atoms: C_13  and  O_14
REMARK    7  A    between atoms: O_14  and  C_15
REMARK    8  A    between atoms: C_19  and  C_20
REMARK                            x       y       z     vdW  Elec       q    Type
REMARK                         _______ _______ _______ _____ _____    ______ ____
ROOT
ATOM      1  C   UNL     1       1.857   8.423  19.136  0.00  0.00    +0.000 A 
ATOM      2  C   UNL     1       2.665   8.481  17.999  0.00  0.00    +0.000 A 
ATOM      3  C   UNL     1       3.456   7.389  17.639  0.00  0.00    +0.000 A 
ATOM      4  C   UNL     1       3.432   6.216  18.397  0.00  0.00    +0.000 A 
ATOM      5  C   UNL     1       4.253   5.051  18.054  0.00  0.00    +0.000 A 
ATOM      6  C   UNL     1       4.176   3.978  18.851  0.00  0.00    +0.000 A 
ATOM      7  C   UNL     1       3.312   3.909  20.039  0.00  0.00    +0.000 A 
ATOM      8  O   UNL     1       3.294   2.902  20.737  0.00  0.00    +0.000 OA
ATOM      9  O   UNL     1       2.531   5.019  20.322  0.00  0.00    +0.000 OA
ATOM     10  C   UNL     1       2.596   6.166  19.511  0.00  0.00    +0.000 A 
ATOM     11  C   UNL     1       1.800   7.249  19.885  0.00  0.00    +0.000 A 
ENDROOT
BRANCH   5  12
ATOM     12  C   UNL     1       5.145   4.941  16.885  0.00  0.00    +0.000 A 
ATOM     13  C   UNL     1       4.660   4.390  15.691  0.00  0.00    +0.000 A 
ATOM     14  C   UNL     1       5.512   4.225  14.600  0.00  0.00    +0.000 A 
ATOM     15  C   UNL     1       6.847   4.615  14.691  0.00  0.00    +0.000 A 
ATOM     16  C   UNL     1       7.328   5.191  15.867  0.00  0.00    +0.000 A 
ATOM     17  C   UNL     1       6.479   5.358  16.962  0.00  0.00    +0.000 A 
ENDBRANCH   5  12
BRANCH   1  18
ATOM     18  O   UNL     1       1.091   9.462  19.592  0.00  0.00    +0.000 OA
BRANCH  18  19
ATOM     19  C   UNL     1       1.244  10.677  18.859  0.00  0.00    +0.000 C 
BRANCH  19  21
ATOM     20  N   UNL     1      -1.109  10.905  19.389  0.00  0.00    +0.000 N 
ATOM     21  C   UNL     1       0.022  11.571  18.964  0.00  0.00    +0.000 C 
ATOM     22  O   UNL     1       0.086  12.770  18.695  0.00  0.00    +0.000 OA
ATOM     23  H   UNL     1      -1.070   9.910  19.605  0.00  0.00    +0.000 HD
BRANCH  20  30
ATOM     24  N   UNL     1      -4.385  12.190  18.636  0.00  0.00    +0.000 N 
ATOM     25  C   UNL     1      -5.160  11.954  17.491  0.00  0.00    +0.000 A 
ATOM     26  C   UNL     1      -6.533  12.508  17.289  0.00  0.00    +0.000 C 
ATOM     27  C   UNL     1      -4.555  11.173  16.576  0.00  0.00    +0.000 A 
ATOM     28  S   UNL     1      -2.967  10.662  17.088  0.00  0.00    +0.000 S 
ATOM     29  C   UNL     1      -3.151  11.554  18.626  0.00  0.00    +0.000 A 
ATOM     30  N   UNL     1      -2.265  11.586  19.570  0.00  0.00    +0.000 NA
BRANCH  24  32
ATOM     31  C   UNL     1      -5.653  12.213  20.742  0.00  0.00    +0.000 C 
ATOM     32  C   UNL     1      -4.760  12.998  19.793  0.00  0.00    +0.000 C 
ENDBRANCH  24  32
ENDBRANCH  20  30
ENDBRANCH  19  21
ENDBRANCH  18  19
ENDBRANCH   1  18
TORSDOF 6
ENDMDL
MODEL 8
REMARK VINA RESULT:      -8.6      3.266      4.908
REMARK  Name = 
REMARK  8 active torsions:
REMARK  status: ('A' for Active; 'I' for Inactive)
REMARK    1  A    between atoms: C_1  and  C_2
REMARK    2  A    between atoms: C_2  and  N_3
REMARK    3  A    between atoms: C_4  and  C_5
REMARK    4  A    between atoms: N_9  and  N_10
REMARK    5  A    between atoms: C_11  and  C_13
REMARK    6  A    between atoms: C_13  and  O_14
REMARK    7  A    between atoms: O_14  and  C_15
REMARK    8  A    between atoms: C_19  and  C_20
REMARK                            x       y       z     vdW  Elec       q    Type
REMARK                         _______ _______ _______ _____ _____    ______ ____
ROOT
ATOM      1  C   UNL     1       2.099   7.738  19.393  0.00  0.00    +0.000 A 
ATOM      2  C   UNL     1       2.807   7.910  18.202  0.00  0.00    +0.000 A 
ATOM      3  C   UNL     1       3.626   6.890  17.714  0.00  0.00    +0.000 A 
ATOM      4  C   UNL     1       3.730   5.676  18.397  0.00  0.00    +0.000 A 
ATOM      5  C   UNL     1       4.584   4.586  17.919  0.00  0.00    +0.000 A 
ATOM      6  C   UNL     1       4.633   3.466  18.651  0.00  0.00    +0.000 A 
ATOM      7  C   UNL     1       3.873   3.276  19.896  0.00  0.00    +0.000 A 
ATOM      8  O   UNL     1       3.969   2.231  20.530  0.00  0.00    +0.000 OA
ATOM      9  O   UNL     1       3.058   4.317  20.308  0.00  0.00    +0.000 OA
ATOM     10  C   UNL     1       2.992   5.511  19.568  0.00  0.00    +0.000 A 
ATOM     11  C   UNL     1       2.170   6.520  20.069  0.00  0.00    +0.000 A 
ENDROOT
BRANCH   5  12
ATOM     12  C   UNL     1       5.382   4.597  16.679  0.00  0.00    +0.000 A 
ATOM     13  C   UNL     1       6.709   5.046  16.711  0.00  0.00    +0.000 A 
ATOM     14  C   UNL     1       7.452   5.118  15.534  0.00  0.00    +0.000 A 
ATOM     15  C   UNL     1       6.879   4.735  14.322  0.00  0.00    +0.000 A 
ATOM     16  C   UNL     1       5.569   4.258  14.288  0.00  0.00    +0.000 A 
ATOM     17  C   UNL     1       4.821   4.185  15.464  0.00  0.00    +0.000 A 
ENDBRANCH   5  12
BRANCH   1  18
ATOM     18  O   UNL     1       1.316   8.699  19.971  0.00  0.00    +0.000 OA
BRANCH  18  19
ATOM     19  C   UNL     1       0.973   8.445  21.333  0.00  0.00    +0.000 C 
BRANCH  19  21
ATOM     20  N   UNL     1      -0.364  10.459  21.181  0.00  0.00    +0.000 N 
ATOM     21  C   UNL     1       0.393   9.668  22.020  0.00  0.00    +0.000 C 
ATOM     22  O   UNL     1       0.598   9.885  23.214  0.00  0.00    +0.000 OA
ATOM     23  H   UNL     1      -0.495  10.197  20.205  0.00  0.00    +0.000 HD
BRANCH  20  30
ATOM     24  N   UNL     1      -1.437  13.890  21.349  0.00  0.00    +0.000 N 
ATOM     25  C   UNL     1      -1.192  14.915  20.423  0.00  0.00    +0.000 A 
ATOM     26  C   UNL     1      -1.716  16.306  20.567  0.00  0.00    +0.000 C 
ATOM     27  C   UNL     1      -0.435  14.533  19.377  0.00  0.00    +0.000 A 
ATOM     28  S   UNL     1       0.019  12.851  19.467  0.00  0.00    +0.000 S 
ATOM     29  C   UNL     1      -0.878  12.667  21.002  0.00  0.00    +0.000 A 
ATOM     30  N   UNL     1      -0.981  11.562  21.668  0.00  0.00    +0.000 NA
BRANCH  24  32
ATOM     31  C   UNL     1      -1.336  14.431  23.744  0.00  0.00    +0.000 C 
ATOM     32  C   UNL     1      -2.213  13.994  22.581  0.00  0.00    +0.000 C 
ENDBRANCH  24  32
ENDBRANCH  20  30
ENDBRANCH  19  21
ENDBRANCH  18  19
ENDBRANCH   1  18
TORSDOF 6
ENDMDL
MODEL 9
REMARK VINA RESULT:      -8.5      5.640      7.769
REMARK  Name = 
REMARK  8 active torsions:
REMARK  status: ('A' for Active; 'I' for Inactive)
REMARK    1  A    between atoms: C_1  and  C_2
REMARK    2  A    between atoms: C_2  and  N_3
REMARK    3  A    between atoms: C_4  and  C_5
REMARK    4  A    between atoms: N_9  and  N_10
REMARK    5  A    between atoms: C_11  and  C_13
REMARK    6  A    between atoms: C_13  and  O_14
REMARK    7  A    between atoms: O_14  and  C_15
REMARK    8  A    between atoms: C_19  and  C_20
REMARK                            x       y       z     vdW  Elec       q    Type
REMARK                         _______ _______ _______ _____ _____    ______ ____
ROOT
ATOM      1  C   UNL     1       7.504   6.879  18.155  0.00  0.00    +0.000 A 
ATOM      2  C   UNL     1       6.514   6.358  18.990  0.00  0.00    +0.000 A 
ATOM      3  C   UNL     1       5.576   5.451  18.493  0.00  0.00    +0.000 A 
ATOM      4  C   UNL     1       5.630   5.034  17.161  0.00  0.00    +0.000 A 
ATOM      5  C   UNL     1       4.660   4.089  16.602  0.00  0.00    +0.000 A 
ATOM      6  C   UNL     1       4.782   3.762  15.309  0.00  0.00    +0.000 A 
ATOM      7  C   UNL     1       5.836   4.296  14.433  0.00  0.00    +0.000 A 
ATOM      8  O   UNL     1       5.889   3.969  13.252  0.00  0.00    +0.000 OA
ATOM      9  O   UNL     1       6.751   5.170  14.998  0.00  0.00    +0.000 OA
ATOM     10  C   UNL     1       6.645   5.541  16.350  0.00  0.00    +0.000 A 
ATOM     11  C   UNL     1       7.588   6.449  16.832  0.00  0.00    +0.000 A 
ENDROOT
BRANCH   5  12
ATOM     12  C   UNL     1       3.566   3.436  17.345  0.00  0.00    +0.000 A 
ATOM     13  C   UNL     1       2.333   4.086  17.477  0.00  0.00    +0.000 A 
ATOM     14  C   UNL     1       1.312   3.504  18.230  0.00  0.00    +0.000 A 
ATOM     15  C   UNL     1       1.516   2.270  18.845  0.00  0.00    +0.000 A 
ATOM     16  C   UNL     1       2.732   1.604  18.691  0.00  0.00    +0.000 A 
ATOM     17  C   UNL     1       3.756   2.183  17.940  0.00  0.00    +0.000 A 
ENDBRANCH   5  12
BRANCH   1  18
ATOM     18  O   UNL     1       8.430   7.809  18.543  0.00  0.00    +0.000 OA
BRANCH  18  19
ATOM     19  C   UNL     1       8.256   9.098  17.957  0.00  0.00    +0.000 C 
BRANCH  19  21
ATOM     20  N   UNL     1       9.113  11.363  18.012  0.00  0.00    +0.000 N 
ATOM     21  C   UNL     1       8.996  10.183  18.718  0.00  0.00    +0.000 C 
ATOM     22  O   UNL     1       9.421   9.985  19.855  0.00  0.00    +0.000 OA
ATOM     23  H   UNL     1       8.717  11.446  17.077  0.00  0.00    +0.000 HD
BRANCH  20  30
ATOM     24  N   UNL     1       9.600  14.788  19.003  0.00  0.00    +0.000 N 
ATOM     25  C   UNL     1       8.750  15.880  18.774  0.00  0.00    +0.000 A 
ATOM     26  C   UNL     1       9.027  17.264  19.262  0.00  0.00    +0.000 C 
ATOM     27  C   UNL     1       7.645  15.569  18.070  0.00  0.00    +0.000 A 
ATOM     28  S   UNL     1       7.581  13.878  17.648  0.00  0.00    +0.000 S 
ATOM     29  C   UNL     1       9.134  13.587  18.485  0.00  0.00    +0.000 A 
ATOM     30  N   UNL     1       9.713  12.434  18.584  0.00  0.00    +0.000 NA
BRANCH  24  32
ATOM     31  C   UNL     1      12.026  15.125  18.790  0.00  0.00    +0.000 C 
ATOM     32  C   UNL     1      10.869  14.806  19.725  0.00  0.00    +0.000 C 
ENDBRANCH  24  32
ENDBRANCH  20  30
ENDBRANCH  19  21
ENDBRANCH  18  19
ENDBRANCH   1  18
TORSDOF 6
ENDMDL
