MODEL 1
REMARK VINA RESULT:      -7.7      0.000      0.000
REMARK  Name = 
REMARK  8 active torsions:
REMARK  status: ('A' for Active; 'I' for Inactive)
REMARK    1  A    between atoms: C_1  and  O_2
REMARK    2  A    between atoms: O_2  and  C_3
REMARK    3  A    between atoms: C_5  and  C_6
REMARK    4  A    between atoms: C_16  and  C_17
REMARK    5  A    between atoms: C_19  and  O_20
REMARK    6  A    between atoms: O_20  and  C_21
REMARK    7  A    between atoms: C_22  and  O_23
REMARK    8  A    between atoms: O_23  and  C_24
REMARK                            x       y       z     vdW  Elec       q    Type
REMARK                         _______ _______ _______ _____ _____    ______ ____
ROOT
ATOM      1  C   UNL     1       6.331   4.066  14.085  0.00  0.00    +0.000 A 
ATOM      2  C   UNL     1       5.463   3.512  15.046  0.00  0.00    +0.000 A 
ATOM      3  C   UNL     1       5.372   4.054  16.326  0.00  0.00    +0.000 A 
ATOM      4  C   UNL     1       6.233   5.104  16.676  0.00  0.00    +0.000 A 
ATOM      5  C   UNL     1       7.122   5.650  15.742  0.00  0.00    +0.000 A 
ATOM      6  C   UNL     1       7.198   5.126  14.435  0.00  0.00    +0.000 A 
ENDROOT
BRANCH   3   7
ATOM      7  C   UNL     1       4.439   3.479  17.347  0.00  0.00    +0.000 C 
ATOM      8  O   UNL     1       4.802   2.432  17.887  0.00  0.00    +0.000 OA
ATOM      9  N   UNL     1       3.209   4.150  17.643  0.00  0.00    +0.000 N 
ATOM     10  C   UNL     1       2.468   3.563  18.730  0.00  0.00    +0.000 A 
ATOM     11  C   UNL     1       1.253   2.919  18.606  0.00  0.00    +0.000 A 
ATOM     12  C   UNL     1       0.422   2.860  19.736  0.00  0.00    +0.000 A 
ATOM     13  C   UNL     1       0.843   3.377  20.978  0.00  0.00    +0.000 A 
ATOM     14  C   UNL     1       2.056   4.052  21.094  0.00  0.00    +0.000 A 
ATOM     15  C   UNL     1       2.798   4.217  19.939  0.00  0.00    +0.000 A 
ATOM     16  C   UNL     1       3.732   5.368  19.632  0.00  0.00    +0.000 C 
ATOM     17  C   UNL     1       3.258   5.550  18.173  0.00  0.00    +0.000 C 
ATOM     18  C   UNL     1       3.853   6.660  17.349  0.00  0.00    +0.000 C 
ENDBRANCH   3   7
BRANCH   1  20
ATOM     19  C   UNL     1       5.135   3.384  12.155  0.00  0.00    +0.000 C 
ATOM     20  O   UNL     1       6.392   3.549  12.810  0.00  0.00    +0.000 OA
ENDBRANCH   1  20
BRANCH   5  21
ATOM     21  O   UNL     1       7.898   6.667  16.262  0.00  0.00    +0.000 OA
ATOM     22  C   UNL     1       7.530   7.176  17.540  0.00  0.00    +0.000 C 
ENDBRANCH   5  21
BRANCH   6  23
ATOM     23  O   UNL     1       8.171   5.673  13.644  0.00  0.00    +0.000 OA
ATOM     24  C   UNL     1       8.026   5.797  12.243  0.00  0.00    +0.000 C 
ENDBRANCH   6  23
TORSDOF 4
ENDMDL
MODEL 2
REMARK VINA RESULT:      -7.5      1.198      1.508
REMARK  Name = 
REMARK  8 active torsions:
REMARK  status: ('A' for Active; 'I' for Inactive)
REMARK    1  A    between atoms: C_1  and  O_2
REMARK    2  A    between atoms: O_2  and  C_3
REMARK    3  A    between atoms: C_5  and  C_6
REMARK    4  A    between atoms: C_16  and  C_17
REMARK    5  A    between atoms: C_19  and  O_20
REMARK    6  A    between atoms: O_20  and  C_21
REMARK    7  A    between atoms: C_22  and  O_23
REMARK    8  A    between atoms: O_23  and  C_24
REMARK                            x       y       z     vdW  Elec       q    Type
REMARK                         _______ _______ _______ _____ _____    ______ ____
ROOT
ATOM      1  C   UNL     1       6.296   4.053  14.239  0.00  0.00    +0.000 A 
ATOM      2  C   UNL     1       5.214   3.721  15.078  0.00  0.00    +0.000 A 
ATOM      3  C   UNL     1       4.944   4.462  16.226  0.00  0.00    +0.000 A 
ATOM      4  C   UNL     1       5.827   5.489  16.589  0.00  0.00    +0.000 A 
ATOM      5  C   UNL     1       6.924   5.816  15.781  0.00  0.00    +0.000 A 
ATOM      6  C   UNL     1       7.186   5.089  14.601  0.00  0.00    +0.000 A 
ENDROOT
BRANCH   3   7
ATOM      7  C   UNL     1       3.786   4.123  17.113  0.00  0.00    +0.000 C 
ATOM      8  O   UNL     1       2.871   3.483  16.592  0.00  0.00    +0.000 OA
ATOM      9  N   UNL     1       3.795   4.539  18.483  0.00  0.00    +0.000 N 
ATOM     10  C   UNL     1       2.686   4.040  19.255  0.00  0.00    +0.000 A 
ATOM     11  C   UNL     1       1.668   4.815  19.775  0.00  0.00    +0.000 A 
ATOM     12  C   UNL     1       0.972   4.322  20.890  0.00  0.00    +0.000 A 
ATOM     13  C   UNL     1       1.252   3.048  21.420  0.00  0.00    +0.000 A 
ATOM     14  C   UNL     1       2.299   2.280  20.914  0.00  0.00    +0.000 A 
ATOM     15  C   UNL     1       3.059   2.841  19.903  0.00  0.00    +0.000 A 
ATOM     16  C   UNL     1       4.524   2.575  19.634  0.00  0.00    +0.000 C 
ATOM     17  C   UNL     1       4.892   4.054  19.380  0.00  0.00    +0.000 C 
ATOM     18  C   UNL     1       6.326   4.408  19.095  0.00  0.00    +0.000 C 
ENDBRANCH   3   7
BRANCH   1  20
ATOM     19  C   UNL     1       5.468   3.321  12.141  0.00  0.00    +0.000 C 
ATOM     20  O   UNL     1       6.538   3.340  13.086  0.00  0.00    +0.000 OA
ENDBRANCH   1  20
BRANCH   5  21
ATOM     21  O   UNL     1       7.690   6.843  16.296  0.00  0.00    +0.000 OA
ATOM     22  C   UNL     1       7.235   7.451  17.501  0.00  0.00    +0.000 C 
ENDBRANCH   5  21
BRANCH   6  23
ATOM     23  O   UNL     1       8.338   5.434  13.949  0.00  0.00    +0.000 OA
ATOM     24  C   UNL     1       8.340   5.906  12.616  0.00  0.00    +0.000 C 
ENDBRANCH   6  23
TORSDOF 4
ENDMDL
MODEL 3
REMARK VINA RESULT:      -7.3      1.171      3.027
REMARK  Name = 
REMARK  8 active torsions:
REMARK  status: ('A' for Active; 'I' for Inactive)
REMARK    1  A    between atoms: C_1  and  O_2
REMARK    2  A    between atoms: O_2  and  C_3
REMARK    3  A    between atoms: C_5  and  C_6
REMARK    4  A    between atoms: C_16  and  C_17
REMARK    5  A    between atoms: C_19  and  O_20
REMARK    6  A    between atoms: O_20  and  C_21
REMARK    7  A    between atoms: C_22  and  O_23
REMARK    8  A    between atoms: O_23  and  C_24
REMARK                            x       y       z     vdW  Elec       q    Type
REMARK                         _______ _______ _______ _____ _____    ______ ____
ROOT
ATOM      1  C   UNL     1       7.013   5.795  15.859  0.00  0.00    +0.000 A 
ATOM      2  C   UNL     1       5.882   5.466  16.632  0.00  0.00    +0.000 A 
ATOM      3  C   UNL     1       5.039   4.422  16.261  0.00  0.00    +0.000 A 
ATOM      4  C   UNL     1       5.279   3.761  15.048  0.00  0.00    +0.000 A 
ATOM      5  C   UNL     1       6.384   4.091  14.252  0.00  0.00    +0.000 A 
ATOM      6  C   UNL     1       7.259   5.128  14.638  0.00  0.00    +0.000 A 
ENDROOT
BRANCH   3   7
ATOM      7  C   UNL     1       3.844   4.059  17.087  0.00  0.00    +0.000 C 
ATOM      8  O   UNL     1       2.982   3.378  16.527  0.00  0.00    +0.000 OA
ATOM      9  N   UNL     1       3.759   4.501  18.446  0.00  0.00    +0.000 N 
ATOM     10  C   UNL     1       2.624   3.978  19.163  0.00  0.00    +0.000 A 
ATOM     11  C   UNL     1       1.552   4.726  19.607  0.00  0.00    +0.000 A 
ATOM     12  C   UNL     1       0.809   4.231  20.691  0.00  0.00    +0.000 A 
ATOM     13  C   UNL     1       1.102   2.977  21.263  0.00  0.00    +0.000 A 
ATOM     14  C   UNL     1       2.201   2.237  20.833  0.00  0.00    +0.000 A 
ATOM     15  C   UNL     1       3.000   2.805  19.856  0.00  0.00    +0.000 A 
ATOM     16  C   UNL     1       4.486   2.586  19.677  0.00  0.00    +0.000 C 
ATOM     17  C   UNL     1       4.818   4.072  19.415  0.00  0.00    +0.000 C 
ATOM     18  C   UNL     1       6.253   4.471  19.204  0.00  0.00    +0.000 C 
ENDBRANCH   3   7
BRANCH   1  20
ATOM     19  C   UNL     1       7.522   7.457  17.473  0.00  0.00    +0.000 C 
ATOM     20  O   UNL     1       7.864   6.805  16.249  0.00  0.00    +0.000 OA
ENDBRANCH   1  20
BRANCH   5  21
ATOM     21  O   UNL     1       6.459   3.347  13.091  0.00  0.00    +0.000 OA
ATOM     22  C   UNL     1       5.300   3.315  12.265  0.00  0.00    +0.000 C 
ENDBRANCH   5  21
BRANCH   6  23
ATOM     23  O   UNL     1       8.242   5.426  13.734  0.00  0.00    +0.000 OA
ATOM     24  C   UNL     1       7.953   5.855  12.418  0.00  0.00    +0.000 C 
ENDBRANCH   6  23
TORSDOF 4
ENDMDL
MODEL 4
REMARK VINA RESULT:      -6.8      0.379      2.674
REMARK  Name = 
REMARK  8 active torsions:
REMARK  status: ('A' for Active; 'I' for Inactive)
REMARK    1  A    between atoms: C_1  and  O_2
REMARK    2  A    between atoms: O_2  and  C_3
REMARK    3  A    between atoms: C_5  and  C_6
REMARK    4  A    between atoms: C_16  and  C_17
REMARK    5  A    between atoms: C_19  and  O_20
REMARK    6  A    between atoms: O_20  and  C_21
REMARK    7  A    between atoms: C_22  and  O_23
REMARK    8  A    between atoms: O_23  and  C_24
REMARK                            x       y       z     vdW  Elec       q    Type
REMARK                         _______ _______ _______ _____ _____    ______ ____
ROOT
ATOM      1  C   UNL     1       7.125   5.720  15.882  0.00  0.00    +0.000 A 
ATOM      2  C   UNL     1       6.226   5.142  16.800  0.00  0.00    +0.000 A 
ATOM      3  C   UNL     1       5.421   4.066  16.433  0.00  0.00    +0.000 A 
ATOM      4  C   UNL     1       5.450   3.626  15.102  0.00  0.00    +0.000 A 
ATOM      5  C   UNL     1       6.318   4.206  14.169  0.00  0.00    +0.000 A 
ATOM      6  C   UNL     1       7.158   5.276  14.541  0.00  0.00    +0.000 A 
ENDROOT
BRANCH   3   7
ATOM      7  C   UNL     1       4.474   3.439  17.409  0.00  0.00    +0.000 C 
ATOM      8  O   UNL     1       4.849   2.387  17.931  0.00  0.00    +0.000 OA
ATOM      9  N   UNL     1       3.219   4.069  17.686  0.00  0.00    +0.000 N 
ATOM     10  C   UNL     1       2.462   3.433  18.733  0.00  0.00    +0.000 A 
ATOM     11  C   UNL     1       1.268   2.761  18.555  0.00  0.00    +0.000 A 
ATOM     12  C   UNL     1       0.406   2.649  19.657  0.00  0.00    +0.000 A 
ATOM     13  C   UNL     1       0.776   3.141  20.924  0.00  0.00    +0.000 A 
ATOM     14  C   UNL     1       1.967   3.843  21.097  0.00  0.00    +0.000 A 
ATOM     15  C   UNL     1       2.738   4.061  19.969  0.00  0.00    +0.000 A 
ATOM     16  C   UNL     1       3.649   5.243  19.723  0.00  0.00    +0.000 C 
ATOM     17  C   UNL     1       3.214   5.455  18.256  0.00  0.00    +0.000 C 
ATOM     18  C   UNL     1       3.803   6.602  17.480  0.00  0.00    +0.000 C 
ENDBRANCH   3   7
BRANCH   1  20
ATOM     19  C   UNL     1       7.568   7.433  17.462  0.00  0.00    +0.000 C 
ATOM     20  O   UNL     1       7.944   6.761  16.259  0.00  0.00    +0.000 OA
ENDBRANCH   1  20
BRANCH   5  21
ATOM     21  O   UNL     1       6.205   3.655  12.907  0.00  0.00    +0.000 OA
ATOM     22  C   UNL     1       4.900   3.588  12.343  0.00  0.00    +0.000 C 
ENDBRANCH   5  21
BRANCH   6  23
ATOM     23  O   UNL     1       7.887   5.825  13.522  0.00  0.00    +0.000 OA
ATOM     24  C   UNL     1       9.224   5.445  13.259  0.00  0.00    +0.000 C 
ENDBRANCH   6  23
TORSDOF 4
ENDMDL
MODEL 5
REMARK VINA RESULT:      -6.7      5.411      7.505
REMARK  Name = 
REMARK  8 active torsions:
REMARK  status: ('A' for Active; 'I' for Inactive)
REMARK    1  A    between atoms: C_1  and  O_2
REMARK    2  A    between atoms: O_2  and  C_3
REMARK    3  A    between atoms: C_5  and  C_6
REMARK    4  A    between atoms: C_16  and  C_17
REMARK    5  A    between atoms: C_19  and  O_20
REMARK    6  A    between atoms: O_20  and  C_21
REMARK    7  A    between atoms: C_22  and  O_23
REMARK    8  A    between atoms: O_23  and  C_24
REMARK                            x       y       z     vdW  Elec       q    Type
REMARK                         _______ _______ _______ _____ _____    ______ ____
ROOT
ATOM      1  C   UNL     1       2.840   6.569  18.518  0.00  0.00    +0.000 A 
ATOM      2  C   UNL     1       2.449   7.676  19.296  0.00  0.00    +0.000 A 
ATOM      3  C   UNL     1       1.710   7.506  20.465  0.00  0.00    +0.000 A 
ATOM      4  C   UNL     1       1.276   6.217  20.805  0.00  0.00    +0.000 A 
ATOM      5  C   UNL     1       1.632   5.107  20.029  0.00  0.00    +0.000 A 
ATOM      6  C   UNL     1       2.406   5.269  18.860  0.00  0.00    +0.000 A 
ENDROOT
BRANCH   3   7
ATOM      7  C   UNL     1       1.305   8.678  21.304  0.00  0.00    +0.000 C 
ATOM      8  O   UNL     1       2.041   8.946  22.255  0.00  0.00    +0.000 OA
ATOM      9  N   UNL     1       0.122   9.414  20.973  0.00  0.00    +0.000 N 
ATOM     10  C   UNL     1      -0.083  10.589  21.779  0.00  0.00    +0.000 A 
ATOM     11  C   UNL     1      -1.102  10.756  22.696  0.00  0.00    +0.000 A 
ATOM     12  C   UNL     1      -1.490  12.067  23.016  0.00  0.00    +0.000 A 
ATOM     13  C   UNL     1      -0.815  13.179  22.476  0.00  0.00    +0.000 A 
ATOM     14  C   UNL     1       0.194  13.010  21.530  0.00  0.00    +0.000 A 
ATOM     15  C   UNL     1       0.468  11.716  21.127  0.00  0.00    +0.000 A 
ATOM     16  C   UNL     1       0.980  11.291  19.768  0.00  0.00    +0.000 C 
ATOM     17  C   UNL     1       0.033  10.078  19.633  0.00  0.00    +0.000 C 
ATOM     18  C   UNL     1       0.074   9.260  18.370  0.00  0.00    +0.000 C 
ENDBRANCH   3   7
BRANCH   1  20
ATOM     19  C   UNL     1       5.014   6.675  17.575  0.00  0.00    +0.000 C 
ATOM     20  O   UNL     1       3.600   6.740  17.383  0.00  0.00    +0.000 OA
ENDBRANCH   1  20
BRANCH   5  21
ATOM     21  O   UNL     1       1.110   3.921  20.506  0.00  0.00    +0.000 OA
ATOM     22  C   UNL     1       1.853   3.243  21.513  0.00  0.00    +0.000 C 
ENDBRANCH   5  21
BRANCH   6  23
ATOM     23  O   UNL     1       2.606   4.128  18.132  0.00  0.00    +0.000 OA
ATOM     24  C   UNL     1       3.751   3.316  18.299  0.00  0.00    +0.000 C 
ENDBRANCH   6  23
TORSDOF 4
ENDMDL
MODEL 6
REMARK VINA RESULT:      -6.7      5.387      7.457
REMARK  Name = 
REMARK  8 active torsions:
REMARK  status: ('A' for Active; 'I' for Inactive)
REMARK    1  A    between atoms: C_1  and  O_2
REMARK    2  A    between atoms: O_2  and  C_3
REMARK    3  A    between atoms: C_5  and  C_6
REMARK    4  A    between atoms: C_16  and  C_17
REMARK    5  A    between atoms: C_19  and  O_20
REMARK    6  A    between atoms: O_20  and  C_21
REMARK    7  A    between atoms: C_22  and  O_23
REMARK    8  A    between atoms: O_23  and  C_24
REMARK                            x       y       z     vdW  Elec       q    Type
REMARK                         _______ _______ _______ _____ _____    ______ ____
ROOT
ATOM      1  C   UNL     1       1.643   5.076  20.006  0.00  0.00    +0.000 A 
ATOM      2  C   UNL     1       1.303   6.188  20.802  0.00  0.00    +0.000 A 
ATOM      3  C   UNL     1       1.639   7.481  20.408  0.00  0.00    +0.000 A 
ATOM      4  C   UNL     1       2.408   7.653  19.249  0.00  0.00    +0.000 A 
ATOM      5  C   UNL     1       2.778   6.558  18.458  0.00  0.00    +0.000 A 
ATOM      6  C   UNL     1       2.416   5.248  18.835  0.00  0.00    +0.000 A 
ENDROOT
BRANCH   3   7
ATOM      7  C   UNL     1       1.267   8.666  21.243  0.00  0.00    +0.000 C 
ATOM      8  O   UNL     1       2.007   8.914  22.197  0.00  0.00    +0.000 OA
ATOM      9  N   UNL     1       0.108   9.438  20.906  0.00  0.00    +0.000 N 
ATOM     10  C   UNL     1      -0.063  10.621  21.710  0.00  0.00    +0.000 A 
ATOM     11  C   UNL     1      -1.080  10.821  22.622  0.00  0.00    +0.000 A 
ATOM     12  C   UNL     1      -1.429  12.144  22.938  0.00  0.00    +0.000 A 
ATOM     13  C   UNL     1      -0.717  13.233  22.399  0.00  0.00    +0.000 A 
ATOM     14  C   UNL     1       0.289  13.031  21.457  0.00  0.00    +0.000 A 
ATOM     15  C   UNL     1       0.525  11.728  21.058  0.00  0.00    +0.000 A 
ATOM     16  C   UNL     1       1.029  11.285  19.701  0.00  0.00    +0.000 C 
ATOM     17  C   UNL     1       0.046  10.102  19.565  0.00  0.00    +0.000 C 
ATOM     18  C   UNL     1       0.066   9.280  18.304  0.00  0.00    +0.000 C 
ENDBRANCH   3   7
BRANCH   1  20
ATOM     19  C   UNL     1       1.959   3.281  21.522  0.00  0.00    +0.000 C 
ATOM     20  O   UNL     1       1.278   3.803  20.382  0.00  0.00    +0.000 OA
ENDBRANCH   1  20
BRANCH   5  21
ATOM     21  O   UNL     1       3.541   6.912  17.363  0.00  0.00    +0.000 OA
ATOM     22  C   UNL     1       4.953   6.948  17.539  0.00  0.00    +0.000 C 
ENDBRANCH   5  21
BRANCH   6  23
ATOM     23  O   UNL     1       2.918   4.254  18.041  0.00  0.00    +0.000 OA
ATOM     24  C   UNL     1       4.069   3.512  18.395  0.00  0.00    +0.000 C 
ENDBRANCH   6  23
TORSDOF 4
ENDMDL
MODEL 7
REMARK VINA RESULT:      -6.6      4.442      6.866
REMARK  Name = 
REMARK  8 active torsions:
REMARK  status: ('A' for Active; 'I' for Inactive)
REMARK    1  A    between atoms: C_1  and  O_2
REMARK    2  A    between atoms: O_2  and  C_3
REMARK    3  A    between atoms: C_5  and  C_6
REMARK    4  A    between atoms: C_16  and  C_17
REMARK    5  A    between atoms: C_19  and  O_20
REMARK    6  A    between atoms: O_20  and  C_21
REMARK    7  A    between atoms: C_22  and  O_23
REMARK    8  A    between atoms: O_23  and  C_24
REMARK                            x       y       z     vdW  Elec       q    Type
REMARK                         _______ _______ _______ _____ _____    ______ ____
ROOT
ATOM      1  C   UNL     1       4.476   5.895  18.276  0.00  0.00    +0.000 A 
ATOM      2  C   UNL     1       3.883   7.165  18.129  0.00  0.00    +0.000 A 
ATOM      3  C   UNL     1       2.505   7.331  18.249  0.00  0.00    +0.000 A 
ATOM      4  C   UNL     1       1.702   6.194  18.422  0.00  0.00    +0.000 A 
ATOM      5  C   UNL     1       2.272   4.920  18.543  0.00  0.00    +0.000 A 
ATOM      6  C   UNL     1       3.669   4.749  18.454  0.00  0.00    +0.000 A 
ENDROOT
BRANCH   3   7
ATOM      7  C   UNL     1       1.872   8.680  18.108  0.00  0.00    +0.000 C 
ATOM      8  O   UNL     1       1.386   8.941  17.006  0.00  0.00    +0.000 OA
ATOM      9  N   UNL     1       1.855   9.576  19.225  0.00  0.00    +0.000 N 
ATOM     10  C   UNL     1       1.106  10.785  18.996  0.00  0.00    +0.000 A 
ATOM     11  C   UNL     1       1.649  12.051  18.905  0.00  0.00    +0.000 A 
ATOM     12  C   UNL     1       0.818  13.145  19.194  0.00  0.00    +0.000 A 
ATOM     13  C   UNL     1      -0.546  12.964  19.497  0.00  0.00    +0.000 A 
ATOM     14  C   UNL     1      -1.085  11.686  19.616  0.00  0.00    +0.000 A 
ATOM     15  C   UNL     1      -0.218  10.619  19.461  0.00  0.00    +0.000 A 
ATOM     16  C   UNL     1      -0.336   9.266  20.127  0.00  0.00    +0.000 C 
ATOM     17  C   UNL     1       1.163   9.153  20.484  0.00  0.00    +0.000 C 
ATOM     18  C   UNL     1       1.640   7.949  21.250  0.00  0.00    +0.000 C 
ENDBRANCH   3   7
BRANCH   1  20
ATOM     19  C   UNL     1       6.492   6.559  17.219  0.00  0.00    +0.000 C 
ATOM     20  O   UNL     1       5.841   5.742  18.192  0.00  0.00    +0.000 OA
ENDBRANCH   1  20
BRANCH   5  21
ATOM     21  O   UNL     1       1.333   3.919  18.699  0.00  0.00    +0.000 OA
ATOM     22  C   UNL     1       0.847   3.683  20.016  0.00  0.00    +0.000 C 
ENDBRANCH   5  21
BRANCH   6  23
ATOM     23  O   UNL     1       4.099   3.451  18.487  0.00  0.00    +0.000 OA
ATOM     24  C   UNL     1       4.433   2.795  19.695  0.00  0.00    +0.000 C 
ENDBRANCH   6  23
TORSDOF 4
ENDMDL
MODEL 8
REMARK VINA RESULT:      -6.5      4.447      6.504
REMARK  Name = 
REMARK  8 active torsions:
REMARK  status: ('A' for Active; 'I' for Inactive)
REMARK    1  A    between atoms: C_1  and  O_2
REMARK    2  A    between atoms: O_2  and  C_3
REMARK    3  A    between atoms: C_5  and  C_6
REMARK    4  A    between atoms: C_16  and  C_17
REMARK    5  A    between atoms: C_19  and  O_20
REMARK    6  A    between atoms: O_20  and  C_21
REMARK    7  A    between atoms: C_22  and  O_23
REMARK    8  A    between atoms: O_23  and  C_24
REMARK                            x       y       z     vdW  Elec       q    Type
REMARK                         _______ _______ _______ _____ _____    ______ ____
ROOT
ATOM      1  C   UNL     1       2.158   4.907  17.893  0.00  0.00    +0.000 A 
ATOM      2  C   UNL     1       1.566   6.183  17.963  0.00  0.00    +0.000 A 
ATOM      3  C   UNL     1       2.347   7.333  18.042  0.00  0.00    +0.000 A 
ATOM      4  C   UNL     1       3.739   7.196  18.149  0.00  0.00    +0.000 A 
ATOM      5  C   UNL     1       4.345   5.933  18.108  0.00  0.00    +0.000 A 
ATOM      6  C   UNL     1       3.561   4.766  17.998  0.00  0.00    +0.000 A 
ENDROOT
BRANCH   3   7
ATOM      7  C   UNL     1       1.723   8.692  18.102  0.00  0.00    +0.000 C 
ATOM      8  O   UNL     1       1.178   9.087  17.069  0.00  0.00    +0.000 OA
ATOM      9  N   UNL     1       1.780   9.447  19.317  0.00  0.00    +0.000 N 
ATOM     10  C   UNL     1       1.034  10.679  19.279  0.00  0.00    +0.000 A 
ATOM     11  C   UNL     1       1.586  11.944  19.310  0.00  0.00    +0.000 A 
ATOM     12  C   UNL     1       0.785  12.999  19.776  0.00  0.00    +0.000 A 
ATOM     13  C   UNL     1      -0.561  12.790  20.132  0.00  0.00    +0.000 A 
ATOM     14  C   UNL     1      -1.109  11.508  20.128  0.00  0.00    +0.000 A 
ATOM     15  C   UNL     1      -0.264  10.464  19.796  0.00  0.00    +0.000 A 
ATOM     16  C   UNL     1      -0.360   9.041  20.300  0.00  0.00    +0.000 C 
ATOM     17  C   UNL     1       1.155   8.878  20.554  0.00  0.00    +0.000 C 
ATOM     18  C   UNL     1       1.661   7.589  21.142  0.00  0.00    +0.000 C 
ENDBRANCH   3   7
BRANCH   1  20
ATOM     19  C   UNL     1       0.926   3.217  19.012  0.00  0.00    +0.000 C 
ATOM     20  O   UNL     1       1.382   3.775  17.779  0.00  0.00    +0.000 OA
ENDBRANCH   1  20
BRANCH   5  21
ATOM     21  O   UNL     1       5.719   5.987  18.237  0.00  0.00    +0.000 OA
ATOM     22  C   UNL     1       6.432   6.747  17.268  0.00  0.00    +0.000 C 
ENDBRANCH   5  21
BRANCH   6  23
ATOM     23  O   UNL     1       4.255   3.590  18.068  0.00  0.00    +0.000 OA
ATOM     24  C   UNL     1       4.549   2.958  19.299  0.00  0.00    +0.000 C 
ENDBRANCH   6  23
TORSDOF 4
ENDMDL
MODEL 9
REMARK VINA RESULT:      -6.5     10.195     13.352
REMARK  Name = 
REMARK  8 active torsions:
REMARK  status: ('A' for Active; 'I' for Inactive)
REMARK    1  A    between atoms: C_1  and  O_2
REMARK    2  A    between atoms: O_2  and  C_3
REMARK    3  A    between atoms: C_5  and  C_6
REMARK    4  A    between atoms: C_16  and  C_17
REMARK    5  A    between atoms: C_19  and  O_20
REMARK    6  A    between atoms: O_20  and  C_21
REMARK    7  A    between atoms: C_22  and  O_23
REMARK    8  A    between atoms: O_23  and  C_24
REMARK                            x       y       z     vdW  Elec       q    Type
REMARK                         _______ _______ _______ _____ _____    ______ ____
ROOT
ATOM      1  C   UNL     1      -2.980  13.905  22.336  0.00  0.00    +0.000 A 
ATOM      2  C   UNL     1      -1.787  14.453  21.828  0.00  0.00    +0.000 A 
ATOM      3  C   UNL     1      -0.611  13.708  21.798  0.00  0.00    +0.000 A 
ATOM      4  C   UNL     1      -0.609  12.429  22.373  0.00  0.00    +0.000 A 
ATOM      5  C   UNL     1      -1.780  11.877  22.908  0.00  0.00    +0.000 A 
ATOM      6  C   UNL     1      -2.982  12.615  22.914  0.00  0.00    +0.000 A 
ENDROOT
BRANCH   3   7
ATOM      7  C   UNL     1       0.657  14.281  21.245  0.00  0.00    +0.000 C 
ATOM      8  O   UNL     1       1.599  14.378  22.034  0.00  0.00    +0.000 OA
ATOM      9  N   UNL     1       0.718  14.674  19.870  0.00  0.00    +0.000 N 
ATOM     10  C   UNL     1       2.028  15.089  19.436  0.00  0.00    +0.000 A 
ATOM     11  C   UNL     1       2.374  16.375  19.073  0.00  0.00    +0.000 A 
ATOM     12  C   UNL     1       3.471  16.543  18.213  0.00  0.00    +0.000 A 
ATOM     13  C   UNL     1       4.239  15.441  17.788  0.00  0.00    +0.000 A 
ATOM     14  C   UNL     1       3.871  14.142  18.131  0.00  0.00    +0.000 A 
ATOM     15  C   UNL     1       2.711  13.989  18.867  0.00  0.00    +0.000 A 
ATOM     16  C   UNL     1       1.774  12.802  18.825  0.00  0.00    +0.000 C 
ATOM     17  C   UNL     1       0.479  13.642  18.810  0.00  0.00    +0.000 C 
ATOM     18  C   UNL     1      -0.847  12.936  18.717  0.00  0.00    +0.000 C 
ENDBRANCH   3   7
BRANCH   1  20
ATOM     19  C   UNL     1      -4.106  15.867  23.047  0.00  0.00    +0.000 C 
ATOM     20  O   UNL     1      -4.149  14.633  22.331  0.00  0.00    +0.000 OA
ENDBRANCH   1  20
BRANCH   5  21
ATOM     21  O   UNL     1      -1.592  10.616  23.440  0.00  0.00    +0.000 OA
ATOM     22  C   UNL     1      -0.420   9.912  23.042  0.00  0.00    +0.000 C 
ENDBRANCH   5  21
BRANCH   6  23
ATOM     23  O   UNL     1      -4.032  12.013  23.551  0.00  0.00    +0.000 OA
ATOM     24  C   UNL     1      -4.455  12.400  24.844  0.00  0.00    +0.000 C 
ENDBRANCH   6  23
TORSDOF 4
ENDMDL
