MODEL 1
REMARK VINA RESULT:      -8.3      0.000      0.000
REMARK  Name = 
REMARK  9 active torsions:
REMARK  status: ('A' for Active; 'I' for Inactive)
REMARK    1  A    between atoms: C_1  and  C_2
REMARK    2  A    between atoms: C_2  and  N_3
REMARK    3  A    between atoms: C_2  and  C_22
REMARK    4  A    between atoms: C_4  and  C_6
REMARK    5  A    between atoms: N_8  and  C_9
REMARK    6  A    between atoms: C_9  and  C_10
REMARK    7  A    between atoms: C_13  and  C_14
REMARK    8  A    between atoms: C_25  and  C_26
REMARK    9  A    between atoms: C_26  and  O_28
REMARK                            x       y       z     vdW  Elec       q    Type
REMARK                         _______ _______ _______ _____ _____    ______ ____
ROOT
ATOM      1  N   UNL     1       2.391   5.929  18.736  0.00  0.00    +0.000 N 
ATOM      2  C   UNL     1       2.087   6.290  20.030  0.00  0.00    +0.000 C 
ATOM      3  O   UNL     1       2.167   5.528  20.989  0.00  0.00    +0.000 OA
ATOM      4  H   UNL     1       2.413   6.674  18.047  0.00  0.00    +0.000 HD
ENDROOT
BRANCH   2   5
ATOM      5  C   UNL     1       1.653   7.674  20.163  0.00  0.00    +0.000 A 
ATOM      6  C   UNL     1       1.630   8.648  19.186  0.00  0.00    +0.000 A 
ATOM      7  N   UNL     1       1.126   9.744  19.819  0.00  0.00    +0.000 N 
ATOM      8  N   UNL     1       0.842   9.475  21.110  0.00  0.00    +0.000 NA
ATOM      9  N   UNL     1       1.172   8.210  21.336  0.00  0.00    +0.000 NA
BRANCH   7  10
ATOM     10  C   UNL     1       0.733  11.013  19.228  0.00  0.00    +0.000 C 
BRANCH  10  11
ATOM     11  C   UNL     1      -0.753  11.126  18.989  0.00  0.00    +0.000 A 
ATOM     12  C   UNL     1      -1.517  12.055  19.713  0.00  0.00    +0.000 A 
ATOM     13  C   UNL     1      -2.874  12.238  19.430  0.00  0.00    +0.000 A 
ATOM     14  C   UNL     1      -3.500  11.498  18.416  0.00  0.00    +0.000 A 
ATOM     15  C   UNL     1      -2.742  10.555  17.707  0.00  0.00    +0.000 A 
ATOM     16  C   UNL     1      -1.385  10.374  17.986  0.00  0.00    +0.000 A 
BRANCH  14  17
ATOM     17  C   UNL     1      -4.952  11.718  18.067  0.00  0.00    +0.000 C 
ATOM     18  F   UNL     1      -5.135  12.402  16.902  0.00  0.00    +0.000 F 
ATOM     19  F   UNL     1      -5.633  10.548  17.922  0.00  0.00    +0.000 F 
ATOM     20  F   UNL     1      -5.620  12.425  19.022  0.00  0.00    +0.000 F 
ENDBRANCH  14  17
ENDBRANCH  10  11
ENDBRANCH   7  10
ENDBRANCH   2   5
BRANCH   1  22
ATOM     21  C   UNL     1       1.761   3.674  18.058  0.00  0.00    +0.000 C 
ATOM     22  C   UNL     1       2.915   4.622  18.388  0.00  0.00    +0.000 C 
BRANCH  22  23
ATOM     23  C   UNL     1       3.955   4.759  17.285  0.00  0.00    +0.000 A 
ATOM     24  C   UNL     1       4.471   3.593  16.692  0.00  0.00    +0.000 A 
ATOM     25  C   UNL     1       5.459   3.662  15.706  0.00  0.00    +0.000 A 
ATOM     26  C   UNL     1       5.960   4.901  15.298  0.00  0.00    +0.000 A 
ATOM     27  C   UNL     1       5.439   6.072  15.860  0.00  0.00    +0.000 A 
ATOM     28  C   UNL     1       4.456   5.999  16.855  0.00  0.00    +0.000 A 
BRANCH  26  29
ATOM     29  C   UNL     1       7.012   4.914  14.247  0.00  0.00    +0.000 C 
ATOM     30  O   UNL     1       8.004   5.620  14.311  0.00  0.00    +0.000 OA
BRANCH  29  31
ATOM     31  O   UNL     1       6.751   4.110  13.193  0.00  0.00    +0.000 OA
ATOM     32  H   UNL     1       6.111   3.397  13.365  0.00  0.00    +0.000 HD
ENDBRANCH  29  31
ENDBRANCH  26  29
ENDBRANCH  22  23
ENDBRANCH   1  22
TORSDOF 8
ENDMDL
MODEL 2
REMARK VINA RESULT:      -8.0      1.094      1.566
REMARK  Name = 
REMARK  9 active torsions:
REMARK  status: ('A' for Active; 'I' for Inactive)
REMARK    1  A    between atoms: C_1  and  C_2
REMARK    2  A    between atoms: C_2  and  N_3
REMARK    3  A    between atoms: C_2  and  C_22
REMARK    4  A    between atoms: C_4  and  C_6
REMARK    5  A    between atoms: N_8  and  C_9
REMARK    6  A    between atoms: C_9  and  C_10
REMARK    7  A    between atoms: C_13  and  C_14
REMARK    8  A    between atoms: C_25  and  C_26
REMARK    9  A    between atoms: C_26  and  O_28
REMARK                            x       y       z     vdW  Elec       q    Type
REMARK                         _______ _______ _______ _____ _____    ______ ____
ROOT
ATOM      1  N   UNL     1       3.350   5.485  18.086  0.00  0.00    +0.000 N 
ATOM      2  C   UNL     1       2.945   5.785  19.367  0.00  0.00    +0.000 C 
ATOM      3  O   UNL     1       3.077   5.025  20.321  0.00  0.00    +0.000 OA
ATOM      4  H   UNL     1       3.310   6.237  17.405  0.00  0.00    +0.000 HD
ENDROOT
BRANCH   2   5
ATOM      5  C   UNL     1       2.336   7.101  19.492  0.00  0.00    +0.000 A 
ATOM      6  C   UNL     1       2.368   8.137  18.581  0.00  0.00    +0.000 A 
ATOM      7  N   UNL     1       1.637   9.124  19.169  0.00  0.00    +0.000 N 
ATOM      8  N   UNL     1       1.165   8.732  20.371  0.00  0.00    +0.000 NA
ATOM      9  N   UNL     1       1.598   7.496  20.586  0.00  0.00    +0.000 NA
BRANCH   7  10
ATOM     10  C   UNL     1       1.207  10.383  18.585  0.00  0.00    +0.000 C 
BRANCH  10  11
ATOM     11  C   UNL     1      -0.292  10.489  18.428  0.00  0.00    +0.000 A 
ATOM     12  C   UNL     1      -1.018  11.418  19.190  0.00  0.00    +0.000 A 
ATOM     13  C   UNL     1      -2.389  11.594  18.983  0.00  0.00    +0.000 A 
ATOM     14  C   UNL     1      -3.068  10.847  18.009  0.00  0.00    +0.000 A 
ATOM     15  C   UNL     1      -2.347   9.904  17.262  0.00  0.00    +0.000 A 
ATOM     16  C   UNL     1      -0.975   9.730  17.466  0.00  0.00    +0.000 A 
BRANCH  14  17
ATOM     17  C   UNL     1      -4.538  11.059  17.741  0.00  0.00    +0.000 C 
ATOM     18  F   UNL     1      -5.347  10.212  18.438  0.00  0.00    +0.000 F 
ATOM     19  F   UNL     1      -4.947  12.316  18.068  0.00  0.00    +0.000 F 
ATOM     20  F   UNL     1      -4.862  10.888  16.429  0.00  0.00    +0.000 F 
ENDBRANCH  14  17
ENDBRANCH  10  11
ENDBRANCH   7  10
ENDBRANCH   2   5
BRANCH   1  22
ATOM     21  C   UNL     1       3.039   3.144  17.480  0.00  0.00    +0.000 C 
ATOM     22  C   UNL     1       4.050   4.260  17.750  0.00  0.00    +0.000 C 
BRANCH  22  23
ATOM     23  C   UNL     1       5.026   4.516  16.610  0.00  0.00    +0.000 A 
ATOM     24  C   UNL     1       4.605   4.272  15.291  0.00  0.00    +0.000 A 
ATOM     25  C   UNL     1       5.476   4.450  14.211  0.00  0.00    +0.000 A 
ATOM     26  C   UNL     1       6.791   4.867  14.431  0.00  0.00    +0.000 A 
ATOM     27  C   UNL     1       7.218   5.138  15.736  0.00  0.00    +0.000 A 
ATOM     28  C   UNL     1       6.346   4.949  16.816  0.00  0.00    +0.000 A 
BRANCH  26  29
ATOM     29  C   UNL     1       7.673   5.037  13.246  0.00  0.00    +0.000 C 
ATOM     30  O   UNL     1       7.481   4.461  12.189  0.00  0.00    +0.000 OA
BRANCH  29  31
ATOM     31  O   UNL     1       8.732   5.848  13.457  0.00  0.00    +0.000 OA
ATOM     32  H   UNL     1       8.515   6.789  13.579  0.00  0.00    +0.000 HD
ENDBRANCH  29  31
ENDBRANCH  26  29
ENDBRANCH  22  23
ENDBRANCH   1  22
TORSDOF 8
ENDMDL
MODEL 3
REMARK VINA RESULT:      -8.0      6.863      9.906
REMARK  Name = 
REMARK  9 active torsions:
REMARK  status: ('A' for Active; 'I' for Inactive)
REMARK    1  A    between atoms: C_1  and  C_2
REMARK    2  A    between atoms: C_2  and  N_3
REMARK    3  A    between atoms: C_2  and  C_22
REMARK    4  A    between atoms: C_4  and  C_6
REMARK    5  A    between atoms: N_8  and  C_9
REMARK    6  A    between atoms: C_9  and  C_10
REMARK    7  A    between atoms: C_13  and  C_14
REMARK    8  A    between atoms: C_25  and  C_26
REMARK    9  A    between atoms: C_26  and  O_28
REMARK                            x       y       z     vdW  Elec       q    Type
REMARK                         _______ _______ _______ _____ _____    ______ ____
ROOT
ATOM      1  N   UNL     1       9.122  11.120  17.960  0.00  0.00    +0.000 N 
ATOM      2  C   UNL     1       9.001  10.108  18.885  0.00  0.00    +0.000 C 
ATOM      3  O   UNL     1       9.374  10.199  20.051  0.00  0.00    +0.000 OA
ATOM      4  H   UNL     1       8.662  10.979  17.065  0.00  0.00    +0.000 HD
ENDROOT
BRANCH   2   5
ATOM      5  C   UNL     1       8.382   8.901  18.353  0.00  0.00    +0.000 A 
ATOM      6  C   UNL     1       8.551   7.604  18.789  0.00  0.00    +0.000 A 
ATOM      7  N   UNL     1       7.743   6.869  17.975  0.00  0.00    +0.000 N 
ATOM      8  N   UNL     1       7.099   7.655  17.088  0.00  0.00    +0.000 NA
ATOM      9  N   UNL     1       7.492   8.904  17.302  0.00  0.00    +0.000 NA
BRANCH   7  10
ATOM     10  C   UNL     1       7.406   5.460  18.090  0.00  0.00    +0.000 C 
BRANCH  10  11
ATOM     11  C   UNL     1       5.919   5.199  18.095  0.00  0.00    +0.000 A 
ATOM     12  C   UNL     1       5.300   4.611  16.980  0.00  0.00    +0.000 A 
ATOM     13  C   UNL     1       3.944   4.274  17.011  0.00  0.00    +0.000 A 
ATOM     14  C   UNL     1       3.172   4.516  18.157  0.00  0.00    +0.000 A 
ATOM     15  C   UNL     1       3.785   5.122  19.264  0.00  0.00    +0.000 A 
ATOM     16  C   UNL     1       5.142   5.456  19.235  0.00  0.00    +0.000 A 
BRANCH  14  17
ATOM     17  C   UNL     1       1.719   4.114  18.224  0.00  0.00    +0.000 C 
ATOM     18  F   UNL     1       1.109   4.467  19.390  0.00  0.00    +0.000 F 
ATOM     19  F   UNL     1       0.979   4.682  17.231  0.00  0.00    +0.000 F 
ATOM     20  F   UNL     1       1.540   2.769  18.102  0.00  0.00    +0.000 F 
ENDBRANCH  14  17
ENDBRANCH  10  11
ENDBRANCH   7  10
ENDBRANCH   2   5
BRANCH   1  22
ATOM     21  C   UNL     1      10.680  12.858  17.258  0.00  0.00    +0.000 C 
ATOM     22  C   UNL     1       9.638  12.433  18.295  0.00  0.00    +0.000 C 
BRANCH  22  23
ATOM     23  C   UNL     1       8.487  13.413  18.470  0.00  0.00    +0.000 A 
ATOM     24  C   UNL     1       7.520  13.511  17.453  0.00  0.00    +0.000 A 
ATOM     25  C   UNL     1       6.467  14.426  17.544  0.00  0.00    +0.000 A 
ATOM     26  C   UNL     1       6.364  15.270  18.653  0.00  0.00    +0.000 A 
ATOM     27  C   UNL     1       7.303  15.168  19.686  0.00  0.00    +0.000 A 
ATOM     28  C   UNL     1       8.363  14.256  19.586  0.00  0.00    +0.000 A 
BRANCH  26  29
ATOM     29  C   UNL     1       5.226  16.225  18.697  0.00  0.00    +0.000 C 
ATOM     30  O   UNL     1       4.066  15.882  18.542  0.00  0.00    +0.000 OA
BRANCH  29  31
ATOM     31  O   UNL     1       5.590  17.513  18.878  0.00  0.00    +0.000 OA
ATOM     32  H   UNL     1       6.420  17.775  18.440  0.00  0.00    +0.000 HD
ENDBRANCH  29  31
ENDBRANCH  26  29
ENDBRANCH  22  23
ENDBRANCH   1  22
TORSDOF 8
ENDMDL
MODEL 4
REMARK VINA RESULT:      -8.0      0.322      1.408
REMARK  Name = 
REMARK  9 active torsions:
REMARK  status: ('A' for Active; 'I' for Inactive)
REMARK    1  A    between atoms: C_1  and  C_2
REMARK    2  A    between atoms: C_2  and  N_3
REMARK    3  A    between atoms: C_2  and  C_22
REMARK    4  A    between atoms: C_4  and  C_6
REMARK    5  A    between atoms: N_8  and  C_9
REMARK    6  A    between atoms: C_9  and  C_10
REMARK    7  A    between atoms: C_13  and  C_14
REMARK    8  A    between atoms: C_25  and  C_26
REMARK    9  A    between atoms: C_26  and  O_28
REMARK                            x       y       z     vdW  Elec       q    Type
REMARK                         _______ _______ _______ _____ _____    ______ ____
ROOT
ATOM      1  N   UNL     1       2.621   5.786  18.755  0.00  0.00    +0.000 N 
ATOM      2  C   UNL     1       2.061   6.140  19.962  0.00  0.00    +0.000 C 
ATOM      3  O   UNL     1       1.891   5.358  20.893  0.00  0.00    +0.000 OA
ATOM      4  H   UNL     1       2.830   6.541  18.109  0.00  0.00    +0.000 HD
ENDROOT
BRANCH   2   5
ATOM      5  C   UNL     1       1.680   7.543  20.040  0.00  0.00    +0.000 A 
ATOM      6  C   UNL     1       1.757   8.494  19.044  0.00  0.00    +0.000 A 
ATOM      7  N   UNL     1       1.264   9.625  19.621  0.00  0.00    +0.000 N 
ATOM      8  N   UNL     1       0.891   9.398  20.898  0.00  0.00    +0.000 NA
ATOM      9  N   UNL     1       1.152   8.126  21.170  0.00  0.00    +0.000 NA
BRANCH   7  10
ATOM     10  C   UNL     1       0.962  10.894  18.981  0.00  0.00    +0.000 C 
BRANCH  10  11
ATOM     11  C   UNL     1      -0.509  11.086  18.698  0.00  0.00    +0.000 A 
ATOM     12  C   UNL     1      -1.170  10.245  17.789  0.00  0.00    +0.000 A 
ATOM     13  C   UNL     1      -2.550  10.349  17.594  0.00  0.00    +0.000 A 
ATOM     14  C   UNL     1      -3.305  11.295  18.303  0.00  0.00    +0.000 A 
ATOM     15  C   UNL     1      -2.642  12.149  19.197  0.00  0.00    +0.000 A 
ATOM     16  C   UNL     1      -1.262  12.044  19.395  0.00  0.00    +0.000 A 
BRANCH  14  17
ATOM     17  C   UNL     1      -4.802  11.388  18.139  0.00  0.00    +0.000 C 
ATOM     18  F   UNL     1      -5.190  11.789  16.896  0.00  0.00    +0.000 F 
ATOM     19  F   UNL     1      -5.421  10.194  18.354  0.00  0.00    +0.000 F 
ATOM     20  F   UNL     1      -5.372  12.268  19.009  0.00  0.00    +0.000 F 
ENDBRANCH  14  17
ENDBRANCH  10  11
ENDBRANCH   7  10
ENDBRANCH   2   5
BRANCH   1  22
ATOM     21  C   UNL     1       1.984   3.490  18.241  0.00  0.00    +0.000 C 
ATOM     22  C   UNL     1       3.142   4.459  18.490  0.00  0.00    +0.000 C 
BRANCH  22  23
ATOM     23  C   UNL     1       4.166   4.520  17.366  0.00  0.00    +0.000 A 
ATOM     24  C   UNL     1       4.519   5.775  16.838  0.00  0.00    +0.000 A 
ATOM     25  C   UNL     1       5.421   5.883  15.776  0.00  0.00    +0.000 A 
ATOM     26  C   UNL     1       5.983   4.735  15.212  0.00  0.00    +0.000 A 
ATOM     27  C   UNL     1       5.662   3.480  15.741  0.00  0.00    +0.000 A 
ATOM     28  C   UNL     1       4.749   3.375  16.799  0.00  0.00    +0.000 A 
BRANCH  26  29
ATOM     29  C   UNL     1       6.935   4.909  14.083  0.00  0.00    +0.000 C 
ATOM     30  O   UNL     1       6.750   4.426  12.979  0.00  0.00    +0.000 OA
BRANCH  29  31
ATOM     31  O   UNL     1       8.045   5.612  14.399  0.00  0.00    +0.000 OA
ATOM     32  H   UNL     1       8.849   5.079  14.528  0.00  0.00    +0.000 HD
ENDBRANCH  29  31
ENDBRANCH  26  29
ENDBRANCH  22  23
ENDBRANCH   1  22
TORSDOF 8
ENDMDL
MODEL 5
REMARK VINA RESULT:      -7.9      2.415      3.092
REMARK  Name = 
REMARK  9 active torsions:
REMARK  status: ('A' for Active; 'I' for Inactive)
REMARK    1  A    between atoms: C_1  and  C_2
REMARK    2  A    between atoms: C_2  and  N_3
REMARK    3  A    between atoms: C_2  and  C_22
REMARK    4  A    between atoms: C_4  and  C_6
REMARK    5  A    between atoms: N_8  and  C_9
REMARK    6  A    between atoms: C_9  and  C_10
REMARK    7  A    between atoms: C_13  and  C_14
REMARK    8  A    between atoms: C_25  and  C_26
REMARK    9  A    between atoms: C_26  and  O_28
REMARK                            x       y       z     vdW  Elec       q    Type
REMARK                         _______ _______ _______ _____ _____    ______ ____
ROOT
ATOM      1  N   UNL     1       2.287   7.025  18.927  0.00  0.00    +0.000 N 
ATOM      2  C   UNL     1       1.781   7.689  20.021  0.00  0.00    +0.000 C 
ATOM      3  O   UNL     1       1.724   7.206  21.148  0.00  0.00    +0.000 OA
ATOM      4  H   UNL     1       2.404   7.567  18.076  0.00  0.00    +0.000 HD
ENDROOT
BRANCH   2   5
ATOM      5  C   UNL     1       1.311   9.034  19.721  0.00  0.00    +0.000 A 
ATOM      6  C   UNL     1       0.832   9.978  20.606  0.00  0.00    +0.000 A 
ATOM      7  N   UNL     1       0.550  11.057  19.825  0.00  0.00    +0.000 N 
ATOM      8  N   UNL     1       0.841  10.812  18.530  0.00  0.00    +0.000 NA
ATOM      9  N   UNL     1       1.298   9.569  18.452  0.00  0.00    +0.000 NA
BRANCH   7  10
ATOM     10  C   UNL     1       0.169  12.393  20.253  0.00  0.00    +0.000 C 
BRANCH  10  11
ATOM     11  C   UNL     1      -1.049  12.410  21.145  0.00  0.00    +0.000 A 
ATOM     12  C   UNL     1      -0.913  12.236  22.531  0.00  0.00    +0.000 A 
ATOM     13  C   UNL     1      -2.020  12.349  23.377  0.00  0.00    +0.000 A 
ATOM     14  C   UNL     1      -3.290  12.640  22.859  0.00  0.00    +0.000 A 
ATOM     15  C   UNL     1      -3.431  12.794  21.472  0.00  0.00    +0.000 A 
ATOM     16  C   UNL     1      -2.323  12.685  20.625  0.00  0.00    +0.000 A 
BRANCH  14  17
ATOM     17  C   UNL     1      -4.486  12.813  23.763  0.00  0.00    +0.000 C 
ATOM     18  F   UNL     1      -5.677  12.578  23.143  0.00  0.00    +0.000 F 
ATOM     19  F   UNL     1      -4.452  11.971  24.833  0.00  0.00    +0.000 F 
ATOM     20  F   UNL     1      -4.577  14.071  24.278  0.00  0.00    +0.000 F 
ENDBRANCH  14  17
ENDBRANCH  10  11
ENDBRANCH   7  10
ENDBRANCH   2   5
BRANCH   1  22
ATOM     21  C   UNL     1       1.777   4.648  19.106  0.00  0.00    +0.000 C 
ATOM     22  C   UNL     1       2.880   5.704  19.014  0.00  0.00    +0.000 C 
BRANCH  22  23
ATOM     23  C   UNL     1       3.857   5.498  17.866  0.00  0.00    +0.000 A 
ATOM     24  C   UNL     1       4.020   4.204  17.340  0.00  0.00    +0.000 A 
ATOM     25  C   UNL     1       4.937   3.952  16.315  0.00  0.00    +0.000 A 
ATOM     26  C   UNL     1       5.718   4.991  15.800  0.00  0.00    +0.000 A 
ATOM     27  C   UNL     1       5.550   6.289  16.296  0.00  0.00    +0.000 A 
ATOM     28  C   UNL     1       4.638   6.535  17.330  0.00  0.00    +0.000 A 
BRANCH  26  29
ATOM     29  C   UNL     1       6.678   4.665  14.712  0.00  0.00    +0.000 C 
ATOM     30  O   UNL     1       7.620   5.383  14.423  0.00  0.00    +0.000 OA
BRANCH  29  31
ATOM     31  O   UNL     1       6.390   3.529  14.043  0.00  0.00    +0.000 OA
ATOM     32  H   UNL     1       6.385   3.609  13.073  0.00  0.00    +0.000 HD
ENDBRANCH  29  31
ENDBRANCH  26  29
ENDBRANCH  22  23
ENDBRANCH   1  22
TORSDOF 8
ENDMDL
MODEL 6
REMARK VINA RESULT:      -7.8      1.104      1.514
REMARK  Name = 
REMARK  9 active torsions:
REMARK  status: ('A' for Active; 'I' for Inactive)
REMARK    1  A    between atoms: C_1  and  C_2
REMARK    2  A    between atoms: C_2  and  N_3
REMARK    3  A    between atoms: C_2  and  C_22
REMARK    4  A    between atoms: C_4  and  C_6
REMARK    5  A    between atoms: N_8  and  C_9
REMARK    6  A    between atoms: C_9  and  C_10
REMARK    7  A    between atoms: C_13  and  C_14
REMARK    8  A    between atoms: C_25  and  C_26
REMARK    9  A    between atoms: C_26  and  O_28
REMARK                            x       y       z     vdW  Elec       q    Type
REMARK                         _______ _______ _______ _____ _____    ______ ____
ROOT
ATOM      1  N   UNL     1       3.615   5.527  18.130  0.00  0.00    +0.000 N 
ATOM      2  C   UNL     1       2.873   5.727  19.273  0.00  0.00    +0.000 C 
ATOM      3  O   UNL     1       2.678   4.862  20.121  0.00  0.00    +0.000 OA
ATOM      4  H   UNL     1       3.818   6.348  17.567  0.00  0.00    +0.000 HD
ENDROOT
BRANCH   2   5
ATOM      5  C   UNL     1       2.333   7.074  19.389  0.00  0.00    +0.000 A 
ATOM      6  C   UNL     1       2.343   8.073  18.438  0.00  0.00    +0.000 A 
ATOM      7  N   UNL     1       1.701   9.114  19.037  0.00  0.00    +0.000 N 
ATOM      8  N   UNL     1       1.302   8.788  20.284  0.00  0.00    +0.000 NA
ATOM      9  N   UNL     1       1.694   7.542  20.517  0.00  0.00    +0.000 NA
BRANCH   7  10
ATOM     10  C   UNL     1       1.284  10.369  18.436  0.00  0.00    +0.000 C 
BRANCH  10  11
ATOM     11  C   UNL     1      -0.216  10.548  18.404  0.00  0.00    +0.000 A 
ATOM     12  C   UNL     1      -0.824  11.551  19.176  0.00  0.00    +0.000 A 
ATOM     13  C   UNL     1      -2.198  11.790  19.079  0.00  0.00    +0.000 A 
ATOM     14  C   UNL     1      -2.997  11.036  18.208  0.00  0.00    +0.000 A 
ATOM     15  C   UNL     1      -2.393  10.021  17.452  0.00  0.00    +0.000 A 
ATOM     16  C   UNL     1      -1.019   9.783  17.545  0.00  0.00    +0.000 A 
BRANCH  14  17
ATOM     17  C   UNL     1      -4.472  11.315  18.056  0.00  0.00    +0.000 C 
ATOM     18  F   UNL     1      -4.927  12.303  18.877  0.00  0.00    +0.000 F 
ATOM     19  F   UNL     1      -4.799  11.702  16.792  0.00  0.00    +0.000 F 
ATOM     20  F   UNL     1      -5.243  10.224  18.325  0.00  0.00    +0.000 F 
ENDBRANCH  14  17
ENDBRANCH  10  11
ENDBRANCH   7  10
ENDBRANCH   2   5
BRANCH   1  22
ATOM     21  C   UNL     1       3.300   3.139  17.763  0.00  0.00    +0.000 C 
ATOM     22  C   UNL     1       4.309   4.285  17.850  0.00  0.00    +0.000 C 
BRANCH  22  23
ATOM     23  C   UNL     1       5.187   4.448  16.618  0.00  0.00    +0.000 A 
ATOM     24  C   UNL     1       6.450   5.050  16.761  0.00  0.00    +0.000 A 
ATOM     25  C   UNL     1       7.277   5.263  15.655  0.00  0.00    +0.000 A 
ATOM     26  C   UNL     1       6.853   4.886  14.378  0.00  0.00    +0.000 A 
ATOM     27  C   UNL     1       5.610   4.263  14.221  0.00  0.00    +0.000 A 
ATOM     28  C   UNL     1       4.779   4.060  15.332  0.00  0.00    +0.000 A 
BRANCH  26  29
ATOM     29  C   UNL     1       7.773   5.139  13.237  0.00  0.00    +0.000 C 
ATOM     30  O   UNL     1       8.729   5.891  13.311  0.00  0.00    +0.000 OA
BRANCH  29  31
ATOM     31  O   UNL     1       7.430   4.499  12.098  0.00  0.00    +0.000 OA
ATOM     32  H   UNL     1       8.085   3.858  11.770  0.00  0.00    +0.000 HD
ENDBRANCH  29  31
ENDBRANCH  26  29
ENDBRANCH  22  23
ENDBRANCH   1  22
TORSDOF 8
ENDMDL
MODEL 7
REMARK VINA RESULT:      -7.8      1.653      2.601
REMARK  Name = 
REMARK  9 active torsions:
REMARK  status: ('A' for Active; 'I' for Inactive)
REMARK    1  A    between atoms: C_1  and  C_2
REMARK    2  A    between atoms: C_2  and  N_3
REMARK    3  A    between atoms: C_2  and  C_22
REMARK    4  A    between atoms: C_4  and  C_6
REMARK    5  A    between atoms: N_8  and  C_9
REMARK    6  A    between atoms: C_9  and  C_10
REMARK    7  A    between atoms: C_13  and  C_14
REMARK    8  A    between atoms: C_25  and  C_26
REMARK    9  A    between atoms: C_26  and  O_28
REMARK                            x       y       z     vdW  Elec       q    Type
REMARK                         _______ _______ _______ _____ _____    ______ ____
ROOT
ATOM      1  N   UNL     1       1.960   7.403  19.574  0.00  0.00    +0.000 N 
ATOM      2  C   UNL     1       1.414   8.265  20.499  0.00  0.00    +0.000 C 
ATOM      3  O   UNL     1       1.435   8.070  21.711  0.00  0.00    +0.000 OA
ATOM      4  H   UNL     1       1.998   7.729  18.613  0.00  0.00    +0.000 HD
ENDROOT
BRANCH   2   5
ATOM      5  C   UNL     1       0.799   9.444  19.906  0.00  0.00    +0.000 A 
ATOM      6  C   UNL     1      -0.153  10.271  20.466  0.00  0.00    +0.000 A 
ATOM      7  N   UNL     1      -0.370  11.223  19.516  0.00  0.00    +0.000 N 
ATOM      8  N   UNL     1       0.403  11.014  18.430  0.00  0.00    +0.000 NA
ATOM      9  N   UNL     1       1.117   9.918  18.653  0.00  0.00    +0.000 NA
BRANCH   7  10
ATOM     10  C   UNL     1      -1.158  12.438  19.636  0.00  0.00    +0.000 C 
BRANCH  10  11
ATOM     11  C   UNL     1      -2.622  12.235  19.325  0.00  0.00    +0.000 A 
ATOM     12  C   UNL     1      -3.009  11.523  18.179  0.00  0.00    +0.000 A 
ATOM     13  C   UNL     1      -4.357  11.243  17.934  0.00  0.00    +0.000 A 
ATOM     14  C   UNL     1      -5.350  11.668  18.829  0.00  0.00    +0.000 A 
ATOM     15  C   UNL     1      -4.965  12.397  19.963  0.00  0.00    +0.000 A 
ATOM     16  C   UNL     1      -3.618  12.674  20.211  0.00  0.00    +0.000 A 
BRANCH  14  17
ATOM     17  C   UNL     1      -6.804  11.332  18.603  0.00  0.00    +0.000 C 
ATOM     18  F   UNL     1      -7.623  11.748  19.611  0.00  0.00    +0.000 F 
ATOM     19  F   UNL     1      -7.297  11.900  17.467  0.00  0.00    +0.000 F 
ATOM     20  F   UNL     1      -7.021   9.993  18.477  0.00  0.00    +0.000 F 
ENDBRANCH  14  17
ENDBRANCH  10  11
ENDBRANCH   7  10
ENDBRANCH   2   5
BRANCH   1  22
ATOM     21  C   UNL     1       1.708   5.056  20.179  0.00  0.00    +0.000 C 
ATOM     22  C   UNL     1       2.689   6.207  19.949  0.00  0.00    +0.000 C 
BRANCH  22  23
ATOM     23  C   UNL     1       3.772   5.917  18.920  0.00  0.00    +0.000 A 
ATOM     24  C   UNL     1       3.861   6.737  17.781  0.00  0.00    +0.000 A 
ATOM     25  C   UNL     1       4.809   6.487  16.784  0.00  0.00    +0.000 A 
ATOM     26  C   UNL     1       5.684   5.404  16.902  0.00  0.00    +0.000 A 
ATOM     27  C   UNL     1       5.625   4.593  18.041  0.00  0.00    +0.000 A 
ATOM     28  C   UNL     1       4.667   4.841  19.033  0.00  0.00    +0.000 A 
BRANCH  26  29
ATOM     29  C   UNL     1       6.670   5.184  15.811  0.00  0.00    +0.000 C 
ATOM     30  O   UNL     1       6.450   5.481  14.650  0.00  0.00    +0.000 OA
BRANCH  29  31
ATOM     31  O   UNL     1       7.813   4.586  16.211  0.00  0.00    +0.000 OA
ATOM     32  H   UNL     1       7.695   3.774  16.734  0.00  0.00    +0.000 HD
ENDBRANCH  29  31
ENDBRANCH  26  29
ENDBRANCH  22  23
ENDBRANCH   1  22
TORSDOF 8
ENDMDL
MODEL 8
REMARK VINA RESULT:      -7.8      1.071      1.358
REMARK  Name = 
REMARK  9 active torsions:
REMARK  status: ('A' for Active; 'I' for Inactive)
REMARK    1  A    between atoms: C_1  and  C_2
REMARK    2  A    between atoms: C_2  and  N_3
REMARK    3  A    between atoms: C_2  and  C_22
REMARK    4  A    between atoms: C_4  and  C_6
REMARK    5  A    between atoms: N_8  and  C_9
REMARK    6  A    between atoms: C_9  and  C_10
REMARK    7  A    between atoms: C_13  and  C_14
REMARK    8  A    between atoms: C_25  and  C_26
REMARK    9  A    between atoms: C_26  and  O_28
REMARK                            x       y       z     vdW  Elec       q    Type
REMARK                         _______ _______ _______ _____ _____    ______ ____
ROOT
ATOM      1  N   UNL     1       3.878   6.013  19.589  0.00  0.00    +0.000 N 
ATOM      2  C   UNL     1       2.516   6.093  19.407  0.00  0.00    +0.000 C 
ATOM      3  O   UNL     1       1.815   5.146  19.062  0.00  0.00    +0.000 OA
ATOM      4  H   UNL     1       4.333   6.823  19.999  0.00  0.00    +0.000 HD
ENDROOT
BRANCH   2   5
ATOM      5  C   UNL     1       1.970   7.419  19.660  0.00  0.00    +0.000 A 
ATOM      6  C   UNL     1       1.961   8.505  18.809  0.00  0.00    +0.000 A 
ATOM      7  N   UNL     1       1.322   9.479  19.514  0.00  0.00    +0.000 N 
ATOM      8  N   UNL     1       0.944   9.032  20.730  0.00  0.00    +0.000 NA
ATOM      9  N   UNL     1       1.346   7.772  20.836  0.00  0.00    +0.000 NA
BRANCH   7  10
ATOM     10  C   UNL     1       0.890  10.784  19.043  0.00  0.00    +0.000 C 
BRANCH  10  11
ATOM     11  C   UNL     1      -0.592  10.858  18.765  0.00  0.00    +0.000 A 
ATOM     12  C   UNL     1      -1.406  11.736  19.500  0.00  0.00    +0.000 A 
ATOM     13  C   UNL     1      -2.760  11.886  19.185  0.00  0.00    +0.000 A 
ATOM     14  C   UNL     1      -3.334  11.164  18.128  0.00  0.00    +0.000 A 
ATOM     15  C   UNL     1      -2.526  10.272  17.408  0.00  0.00    +0.000 A 
ATOM     16  C   UNL     1      -1.172  10.124  17.720  0.00  0.00    +0.000 A 
BRANCH  14  17
ATOM     17  C   UNL     1      -4.781  11.351  17.746  0.00  0.00    +0.000 C 
ATOM     18  F   UNL     1      -5.293  12.557  18.123  0.00  0.00    +0.000 F 
ATOM     19  F   UNL     1      -4.977  11.269  16.401  0.00  0.00    +0.000 F 
ATOM     20  F   UNL     1      -5.596  10.411  18.301  0.00  0.00    +0.000 F 
ENDBRANCH  14  17
ENDBRANCH  10  11
ENDBRANCH   7  10
ENDBRANCH   2   5
BRANCH   1  22
ATOM     21  C   UNL     1       3.725   3.598  19.882  0.00  0.00    +0.000 C 
ATOM     22  C   UNL     1       4.616   4.771  19.466  0.00  0.00    +0.000 C 
BRANCH  22  23
ATOM     23  C   UNL     1       5.202   4.653  18.067  0.00  0.00    +0.000 A 
ATOM     24  C   UNL     1       6.515   5.103  17.843  0.00  0.00    +0.000 A 
ATOM     25  C   UNL     1       7.086   5.058  16.567  0.00  0.00    +0.000 A 
ATOM     26  C   UNL     1       6.349   4.569  15.485  0.00  0.00    +0.000 A 
ATOM     27  C   UNL     1       5.050   4.094  15.696  0.00  0.00    +0.000 A 
ATOM     28  C   UNL     1       4.478   4.150  16.974  0.00  0.00    +0.000 A 
BRANCH  26  29
ATOM     29  C   UNL     1       7.005   4.547  14.151  0.00  0.00    +0.000 C 
ATOM     30  O   UNL     1       7.851   5.357  13.815  0.00  0.00    +0.000 OA
BRANCH  29  31
ATOM     31  O   UNL     1       6.549   3.578  13.327  0.00  0.00    +0.000 OA
ATOM     32  H   UNL     1       7.206   3.220  12.704  0.00  0.00    +0.000 HD
ENDBRANCH  29  31
ENDBRANCH  26  29
ENDBRANCH  22  23
ENDBRANCH   1  22
TORSDOF 8
ENDMDL
MODEL 9
REMARK VINA RESULT:      -7.7      5.671     10.094
REMARK  Name = 
REMARK  9 active torsions:
REMARK  status: ('A' for Active; 'I' for Inactive)
REMARK    1  A    between atoms: C_1  and  C_2
REMARK    2  A    between atoms: C_2  and  N_3
REMARK    3  A    between atoms: C_2  and  C_22
REMARK    4  A    between atoms: C_4  and  C_6
REMARK    5  A    between atoms: N_8  and  C_9
REMARK    6  A    between atoms: C_9  and  C_10
REMARK    7  A    between atoms: C_13  and  C_14
REMARK    8  A    between atoms: C_25  and  C_26
REMARK    9  A    between atoms: C_26  and  O_28
REMARK                            x       y       z     vdW  Elec       q    Type
REMARK                         _______ _______ _______ _____ _____    ______ ____
ROOT
ATOM      1  N   UNL     1       1.475   9.040  19.521  0.00  0.00    +0.000 N 
ATOM      2  C   UNL     1       1.839   7.764  19.890  0.00  0.00    +0.000 C 
ATOM      3  O   UNL     1       1.335   7.154  20.828  0.00  0.00    +0.000 OA
ATOM      4  H   UNL     1       1.866   9.394  18.654  0.00  0.00    +0.000 HD
ENDROOT
BRANCH   2   5
ATOM      5  C   UNL     1       2.891   7.195  19.060  0.00  0.00    +0.000 A 
ATOM      6  C   UNL     1       3.740   6.152  19.371  0.00  0.00    +0.000 A 
ATOM      7  N   UNL     1       4.511   6.005  18.258  0.00  0.00    +0.000 N 
ATOM      8  N   UNL     1       4.164   6.892  17.302  0.00  0.00    +0.000 NA
ATOM      9  N   UNL     1       3.178   7.636  17.788  0.00  0.00    +0.000 NA
BRANCH   7  10
ATOM     10  C   UNL     1       5.466   4.948  17.968  0.00  0.00    +0.000 C 
BRANCH  10  11
ATOM     11  C   UNL     1       5.674   4.719  16.490  0.00  0.00    +0.000 A 
ATOM     12  C   UNL     1       6.836   5.189  15.858  0.00  0.00    +0.000 A 
ATOM     13  C   UNL     1       7.086   4.897  14.514  0.00  0.00    +0.000 A 
ATOM     14  C   UNL     1       6.181   4.126  13.769  0.00  0.00    +0.000 A 
ATOM     15  C   UNL     1       5.010   3.674  14.394  0.00  0.00    +0.000 A 
ATOM     16  C   UNL     1       4.761   3.963  15.739  0.00  0.00    +0.000 A 
BRANCH  14  17
ATOM     17  C   UNL     1       6.460   3.762  12.331  0.00  0.00    +0.000 C 
ATOM     18  F   UNL     1       7.385   4.566  11.735  0.00  0.00    +0.000 F 
ATOM     19  F   UNL     1       6.933   2.492  12.201  0.00  0.00    +0.000 F 
ATOM     20  F   UNL     1       5.348   3.830  11.547  0.00  0.00    +0.000 F 
ENDBRANCH  14  17
ENDBRANCH  10  11
ENDBRANCH   7  10
ENDBRANCH   2   5
BRANCH   1  22
ATOM     21  C   UNL     1       0.965  10.931  20.972  0.00  0.00    +0.000 C 
ATOM     22  C   UNL     1       0.395   9.765  20.162  0.00  0.00    +0.000 C 
BRANCH  22  23
ATOM     23  C   UNL     1      -0.646  10.166  19.126  0.00  0.00    +0.000 A 
ATOM     24  C   UNL     1      -1.574  11.170  19.452  0.00  0.00    +0.000 A 
ATOM     25  C   UNL     1      -2.577  11.545  18.554  0.00  0.00    +0.000 A 
ATOM     26  C   UNL     1      -2.679  10.913  17.311  0.00  0.00    +0.000 A 
ATOM     27  C   UNL     1      -1.748   9.929  16.962  0.00  0.00    +0.000 A 
ATOM     28  C   UNL     1      -0.750   9.550  17.869  0.00  0.00    +0.000 A 
BRANCH  26  29
ATOM     29  C   UNL     1      -3.767  11.350  16.397  0.00  0.00    +0.000 C 
ATOM     30  O   UNL     1      -4.912  11.539  16.771  0.00  0.00    +0.000 OA
BRANCH  29  31
ATOM     31  O   UNL     1      -3.388  11.476  15.107  0.00  0.00    +0.000 OA
ATOM     32  H   UNL     1      -3.851  12.169  14.604  0.00  0.00    +0.000 HD
ENDBRANCH  29  31
ENDBRANCH  26  29
ENDBRANCH  22  23
ENDBRANCH   1  22
TORSDOF 8
ENDMDL
