MODEL 1
REMARK VINA RESULT:      -7.3      0.000      0.000
REMARK  Name = 
REMARK  12 active torsions:
REMARK  status: ('A' for Active; 'I' for Inactive)
REMARK    1  A    between atoms: N_11  and  C_12
REMARK    2  A    between atoms: C_12  and  C_13
REMARK    3  A    between atoms: C_13  and  C_14
REMARK    4  A    between atoms: C_14  and  C_15
REMARK    5  A    between atoms: C_15  and  C_16
REMARK    6  A    between atoms: C_16  and  C_17
REMARK    7  A    between atoms: C_17  and  C_18
REMARK    8  A    between atoms: C_18  and  C_19
REMARK    9  A    between atoms: C_19  and  C_20
REMARK   10  A    between atoms: C_20  and  N_21
REMARK   11  A    between atoms: N_24  and  C_25
REMARK   12  A    between atoms: C_25  and  C_26
REMARK                            x       y       z     vdW  Elec       q    Type
REMARK                         _______ _______ _______ _____ _____    ______ ____
ROOT
ATOM      1  C   UNL     1       2.915   5.672  19.984  0.00  0.00    +0.000 C 
ENDROOT
BRANCH   1   2
ATOM      2  C   UNL     1       1.969   4.810  20.818  0.00  0.00    +0.000 C 
BRANCH   2   3
ATOM      3  C   UNL     1       0.999   4.059  19.915  0.00  0.00    +0.000 C 
BRANCH   3   4
ATOM      4  C   UNL     1       1.639   3.667  18.586  0.00  0.00    +0.000 C 
BRANCH   4   5
ATOM      5  C   UNL     1       2.345   2.317  18.738  0.00  0.00    +0.000 C 
BRANCH   5   6
ATOM      6  C   UNL     1       3.492   2.152  17.748  0.00  0.00    +0.000 C 
BRANCH   6  17
ATOM      7  O   UNL     1       5.223   2.980  20.000  0.00  0.00    +0.000 OA
ATOM      8  C   UNL     1       5.195   3.533  18.919  0.00  0.00    +0.000 C 
ATOM      9  C   UNL     1       6.042   4.670  18.549  0.00  0.00    +0.000 A 
ATOM     10  C   UNL     1       6.981   5.368  19.287  0.00  0.00    +0.000 A 
ATOM     11  C   UNL     1       7.644   6.421  18.654  0.00  0.00    +0.000 A 
ATOM     12  C   UNL     1       7.354   6.752  17.311  0.00  0.00    +0.000 A 
ATOM     13  C   UNL     1       6.408   6.027  16.582  0.00  0.00    +0.000 A 
ATOM     14  C   UNL     1       5.763   4.990  17.235  0.00  0.00    +0.000 A 
ATOM     15  C   UNL     1       4.740   4.073  16.765  0.00  0.00    +0.000 C 
ATOM     16  O   UNL     1       4.316   4.031  15.620  0.00  0.00    +0.000 OA
ATOM     17  N   UNL     1       4.412   3.260  17.828  0.00  0.00    +0.000 N 
ENDBRANCH   6  17
ENDBRANCH   5   6
ENDBRANCH   4   5
ENDBRANCH   3   4
ENDBRANCH   2   3
ENDBRANCH   1   2
BRANCH   1  18
ATOM     18  C   UNL     1       2.302   7.045  19.731  0.00  0.00    +0.000 C 
BRANCH  18  19
ATOM     19  C   UNL     1       2.364   7.430  18.252  0.00  0.00    +0.000 C 
BRANCH  19  20
ATOM     20  C   UNL     1       2.680   8.917  18.046  0.00  0.00    +0.000 C 
BRANCH  20  21
ATOM     21  N   UNL     1       1.557   9.752  17.607  0.00  0.00    +0.000 NA
ATOM     22  C   UNL     1       0.213   9.330  18.071  0.00  0.00    +0.000 C 
ATOM     23  C   UNL     1      -0.397  10.001  19.343  0.00  0.00    +0.000 C 
ATOM     24  N   UNL     1      -0.048  11.417  19.598  0.00  0.00    +0.000 NA
ATOM     25  C   UNL     1       1.407  11.543  19.375  0.00  0.00    +0.000 C 
ATOM     26  C   UNL     1       1.823  11.160  17.939  0.00  0.00    +0.000 C 
BRANCH  24  27
ATOM     27  C   UNL     1      -0.771  12.385  18.747  0.00  0.00    +0.000 C 
BRANCH  27  28
ATOM     28  C   UNL     1      -2.236  12.078  18.538  0.00  0.00    +0.000 A 
ATOM     29  C   UNL     1      -2.716  11.573  17.323  0.00  0.00    +0.000 A 
ATOM     30  C   UNL     1      -4.091  11.422  17.125  0.00  0.00    +0.000 A 
ATOM     31  C   UNL     1      -4.980  11.748  18.148  0.00  0.00    +0.000 A 
ATOM     32 CL   UNL     1      -6.675  11.655  17.872  0.00  0.00    +0.000 Cl
ATOM     33  C   UNL     1      -4.509  12.174  19.387  0.00  0.00    +0.000 A 
ATOM     34  C   UNL     1      -3.140  12.333  19.583  0.00  0.00    +0.000 A 
ENDBRANCH  27  28
ENDBRANCH  24  27
ENDBRANCH  20  21
ENDBRANCH  19  20
ENDBRANCH  18  19
ENDBRANCH   1  18
TORSDOF 12
ENDMDL
MODEL 2
REMARK VINA RESULT:      -7.2      1.159      2.207
REMARK  Name = 
REMARK  12 active torsions:
REMARK  status: ('A' for Active; 'I' for Inactive)
REMARK    1  A    between atoms: N_11  and  C_12
REMARK    2  A    between atoms: C_12  and  C_13
REMARK    3  A    between atoms: C_13  and  C_14
REMARK    4  A    between atoms: C_14  and  C_15
REMARK    5  A    between atoms: C_15  and  C_16
REMARK    6  A    between atoms: C_16  and  C_17
REMARK    7  A    between atoms: C_17  and  C_18
REMARK    8  A    between atoms: C_18  and  C_19
REMARK    9  A    between atoms: C_19  and  C_20
REMARK   10  A    between atoms: C_20  and  N_21
REMARK   11  A    between atoms: N_24  and  C_25
REMARK   12  A    between atoms: C_25  and  C_26
REMARK                            x       y       z     vdW  Elec       q    Type
REMARK                         _______ _______ _______ _____ _____    ______ ____
ROOT
ATOM      1  C   UNL     1       2.356   5.919  19.039  0.00  0.00    +0.000 C 
ENDROOT
BRANCH   1   2
ATOM      2  C   UNL     1       1.820   5.612  20.437  0.00  0.00    +0.000 C 
BRANCH   2   3
ATOM      3  C   UNL     1       1.267   4.193  20.494  0.00  0.00    +0.000 C 
BRANCH   3   4
ATOM      4  C   UNL     1       1.350   3.491  19.142  0.00  0.00    +0.000 C 
BRANCH   4   5
ATOM      5  C   UNL     1       2.175   2.210  19.281  0.00  0.00    +0.000 C 
BRANCH   5   6
ATOM      6  C   UNL     1       3.101   1.987  18.091  0.00  0.00    +0.000 C 
BRANCH   6  17
ATOM      7  O   UNL     1       3.667   3.904  15.909  0.00  0.00    +0.000 OA
ATOM      8  C   UNL     1       4.265   3.874  16.966  0.00  0.00    +0.000 C 
ATOM      9  C   UNL     1       5.331   4.807  17.340  0.00  0.00    +0.000 A 
ATOM     10  C   UNL     1       5.906   5.845  16.630  0.00  0.00    +0.000 A 
ATOM     11  C   UNL     1       6.916   6.574  17.260  0.00  0.00    +0.000 A 
ATOM     12  C   UNL     1       7.329   6.249  18.572  0.00  0.00    +0.000 A 
ATOM     13  C   UNL     1       6.727   5.202  19.274  0.00  0.00    +0.000 A 
ATOM     14  C   UNL     1       5.730   4.493  18.624  0.00  0.00    +0.000 A 
ATOM     15  C   UNL     1       4.935   3.363  19.071  0.00  0.00    +0.000 C 
ATOM     16  O   UNL     1       4.982   2.879  20.191  0.00  0.00    +0.000 OA
ATOM     17  N   UNL     1       4.113   3.013  18.021  0.00  0.00    +0.000 N 
ENDBRANCH   6  17
ENDBRANCH   5   6
ENDBRANCH   4   5
ENDBRANCH   3   4
ENDBRANCH   2   3
ENDBRANCH   1   2
BRANCH   1  18
ATOM     18  C   UNL     1       2.809   7.372  18.950  0.00  0.00    +0.000 C 
BRANCH  18  19
ATOM     19  C   UNL     1       1.822   8.225  18.152  0.00  0.00    +0.000 C 
BRANCH  19  20
ATOM     20  C   UNL     1       2.215   9.707  18.126  0.00  0.00    +0.000 C 
BRANCH  20  21
ATOM     21  N   UNL     1       1.103  10.661  18.053  0.00  0.00    +0.000 NA
ATOM     22  C   UNL     1      -0.249  10.104  18.304  0.00  0.00    +0.000 C 
ATOM     23  C   UNL     1      -0.862  10.218  19.736  0.00  0.00    +0.000 C 
ATOM     24  N   UNL     1      -0.503  11.411  20.536  0.00  0.00    +0.000 NA
ATOM     25  C   UNL     1       0.954  11.600  20.388  0.00  0.00    +0.000 C 
ATOM     26  C   UNL     1       1.379  11.817  18.920  0.00  0.00    +0.000 C 
BRANCH  24  27
ATOM     27  C   UNL     1      -1.211  12.646  20.139  0.00  0.00    +0.000 C 
BRANCH  27  28
ATOM     28  C   UNL     1      -2.694  12.651  20.429  0.00  0.00    +0.000 A 
ATOM     29  C   UNL     1      -3.194  12.950  21.703  0.00  0.00    +0.000 A 
ATOM     30  C   UNL     1      -4.560  12.821  21.964  0.00  0.00    +0.000 A 
ATOM     31  C   UNL     1      -5.428  12.421  20.948  0.00  0.00    +0.000 A 
ATOM     32 CL   UNL     1      -7.093  12.168  21.292  0.00  0.00    +0.000 Cl
ATOM     33  C   UNL     1      -4.953  12.200  19.658  0.00  0.00    +0.000 A 
ATOM     34  C   UNL     1      -3.590  12.320  19.399  0.00  0.00    +0.000 A 
ENDBRANCH  27  28
ENDBRANCH  24  27
ENDBRANCH  20  21
ENDBRANCH  19  20
ENDBRANCH  18  19
ENDBRANCH   1  18
TORSDOF 12
ENDMDL
MODEL 3
REMARK VINA RESULT:      -7.2      3.212      5.122
REMARK  Name = 
REMARK  12 active torsions:
REMARK  status: ('A' for Active; 'I' for Inactive)
REMARK    1  A    between atoms: N_11  and  C_12
REMARK    2  A    between atoms: C_12  and  C_13
REMARK    3  A    between atoms: C_13  and  C_14
REMARK    4  A    between atoms: C_14  and  C_15
REMARK    5  A    between atoms: C_15  and  C_16
REMARK    6  A    between atoms: C_16  and  C_17
REMARK    7  A    between atoms: C_17  and  C_18
REMARK    8  A    between atoms: C_18  and  C_19
REMARK    9  A    between atoms: C_19  and  C_20
REMARK   10  A    between atoms: C_20  and  N_21
REMARK   11  A    between atoms: N_24  and  C_25
REMARK   12  A    between atoms: C_25  and  C_26
REMARK                            x       y       z     vdW  Elec       q    Type
REMARK                         _______ _______ _______ _____ _____    ______ ____
ROOT
ATOM      1  C   UNL     1       1.818   7.831  17.969  0.00  0.00    +0.000 C 
ENDROOT
BRANCH   1   2
ATOM      2  C   UNL     1       3.139   7.123  18.267  0.00  0.00    +0.000 C 
BRANCH   2   3
ATOM      3  C   UNL     1       4.112   7.304  17.109  0.00  0.00    +0.000 C 
BRANCH   3   4
ATOM      4  C   UNL     1       5.266   6.308  17.167  0.00  0.00    +0.000 C 
BRANCH   4   5
ATOM      5  C   UNL     1       5.101   5.269  16.055  0.00  0.00    +0.000 C 
BRANCH   5   6
ATOM      6  C   UNL     1       5.105   3.843  16.591  0.00  0.00    +0.000 C 
BRANCH   6  17
ATOM      7  O   UNL     1       2.180   3.409  16.472  0.00  0.00    +0.000 OA
ATOM      8  C   UNL     1       2.822   3.460  17.501  0.00  0.00    +0.000 C 
ATOM      9  C   UNL     1       2.257   3.276  18.840  0.00  0.00    +0.000 A 
ATOM     10  C   UNL     1       0.951   3.055  19.241  0.00  0.00    +0.000 A 
ATOM     11  C   UNL     1       0.714   2.912  20.609  0.00  0.00    +0.000 A 
ATOM     12  C   UNL     1       1.775   2.998  21.539  0.00  0.00    +0.000 A 
ATOM     13  C   UNL     1       3.087   3.213  21.110  0.00  0.00    +0.000 A 
ATOM     14  C   UNL     1       3.294   3.354  19.747  0.00  0.00    +0.000 A 
ATOM     15  C   UNL     1       4.517   3.594  19.001  0.00  0.00    +0.000 C 
ATOM     16  O   UNL     1       5.634   3.642  19.493  0.00  0.00    +0.000 OA
ATOM     17  N   UNL     1       4.162   3.692  17.674  0.00  0.00    +0.000 N 
ENDBRANCH   6  17
ENDBRANCH   5   6
ENDBRANCH   4   5
ENDBRANCH   3   4
ENDBRANCH   2   3
ENDBRANCH   1   2
BRANCH   1  18
ATOM     18  C   UNL     1       2.011   9.344  17.975  0.00  0.00    +0.000 C 
BRANCH  18  19
ATOM     19  C   UNL     1       0.765  10.072  18.481  0.00  0.00    +0.000 C 
BRANCH  19  20
ATOM     20  C   UNL     1       0.519   9.841  19.977  0.00  0.00    +0.000 C 
BRANCH  20  21
ATOM     21  N   UNL     1       0.879  10.955  20.861  0.00  0.00    +0.000 NA
ATOM     22  C   UNL     1       1.168  12.247  20.195  0.00  0.00    +0.000 C 
ATOM     23  C   UNL     1       0.035  13.317  20.087  0.00  0.00    +0.000 C 
ATOM     24  N   UNL     1      -0.954  13.372  21.188  0.00  0.00    +0.000 NA
ATOM     25  C   UNL     1      -1.340  11.978  21.484  0.00  0.00    +0.000 C 
ATOM     26  C   UNL     1      -0.139  11.107  21.912  0.00  0.00    +0.000 C 
BRANCH  24  27
ATOM     27  C   UNL     1      -0.459  14.027  22.417  0.00  0.00    +0.000 C 
BRANCH  27  28
ATOM     28  C   UNL     1      -1.482  14.866  23.147  0.00  0.00    +0.000 A 
ATOM     29  C   UNL     1      -1.677  14.751  24.530  0.00  0.00    +0.000 A 
ATOM     30  C   UNL     1      -2.716  15.451  25.148  0.00  0.00    +0.000 A 
ATOM     31  C   UNL     1      -3.541  16.283  24.391  0.00  0.00    +0.000 A 
ATOM     32 CL   UNL     1      -4.879  17.067  25.133  0.00  0.00    +0.000 Cl
ATOM     33  C   UNL     1      -3.305  16.466  23.032  0.00  0.00    +0.000 A 
ATOM     34  C   UNL     1      -2.275  15.763  22.413  0.00  0.00    +0.000 A 
ENDBRANCH  27  28
ENDBRANCH  24  27
ENDBRANCH  20  21
ENDBRANCH  19  20
ENDBRANCH  18  19
ENDBRANCH   1  18
TORSDOF 12
ENDMDL
MODEL 4
REMARK VINA RESULT:      -7.2      2.736      4.734
REMARK  Name = 
REMARK  12 active torsions:
REMARK  status: ('A' for Active; 'I' for Inactive)
REMARK    1  A    between atoms: N_11  and  C_12
REMARK    2  A    between atoms: C_12  and  C_13
REMARK    3  A    between atoms: C_13  and  C_14
REMARK    4  A    between atoms: C_14  and  C_15
REMARK    5  A    between atoms: C_15  and  C_16
REMARK    6  A    between atoms: C_16  and  C_17
REMARK    7  A    between atoms: C_17  and  C_18
REMARK    8  A    between atoms: C_18  and  C_19
REMARK    9  A    between atoms: C_19  and  C_20
REMARK   10  A    between atoms: C_20  and  N_21
REMARK   11  A    between atoms: N_24  and  C_25
REMARK   12  A    between atoms: C_25  and  C_26
REMARK                            x       y       z     vdW  Elec       q    Type
REMARK                         _______ _______ _______ _____ _____    ______ ____
ROOT
ATOM      1  C   UNL     1       3.158   7.611  18.009  0.00  0.00    +0.000 C 
ENDROOT
BRANCH   1   2
ATOM      2  C   UNL     1       4.416   6.820  17.651  0.00  0.00    +0.000 C 
BRANCH   2   3
ATOM      3  C   UNL     1       4.620   6.800  16.142  0.00  0.00    +0.000 C 
BRANCH   3   4
ATOM      4  C   UNL     1       5.790   5.911  15.732  0.00  0.00    +0.000 C 
BRANCH   4   5
ATOM      5  C   UNL     1       5.997   4.821  16.787  0.00  0.00    +0.000 C 
BRANCH   5   6
ATOM      6  C   UNL     1       5.066   3.632  16.579  0.00  0.00    +0.000 C 
BRANCH   6  17
ATOM      7  O   UNL     1       2.128   3.306  16.430  0.00  0.00    +0.000 OA
ATOM      8  C   UNL     1       2.761   3.346  17.466  0.00  0.00    +0.000 C 
ATOM      9  C   UNL     1       2.173   3.198  18.800  0.00  0.00    +0.000 A 
ATOM     10  C   UNL     1       0.856   3.031  19.188  0.00  0.00    +0.000 A 
ATOM     11  C   UNL     1       0.598   2.914  20.554  0.00  0.00    +0.000 A 
ATOM     12  C   UNL     1       1.651   2.971  21.495  0.00  0.00    +0.000 A 
ATOM     13  C   UNL     1       2.975   3.132  21.080  0.00  0.00    +0.000 A 
ATOM     14  C   UNL     1       3.203   3.249  19.719  0.00  0.00    +0.000 A 
ATOM     15  C   UNL     1       4.442   3.434  18.984  0.00  0.00    +0.000 C 
ATOM     16  O   UNL     1       5.554   3.447  19.489  0.00  0.00    +0.000 OA
ATOM     17  N   UNL     1       4.106   3.530  17.651  0.00  0.00    +0.000 N 
ENDBRANCH   6  17
ENDBRANCH   5   6
ENDBRANCH   4   5
ENDBRANCH   3   4
ENDBRANCH   2   3
ENDBRANCH   1   2
BRANCH   1  18
ATOM     18  C   UNL     1       2.449   6.975  19.200  0.00  0.00    +0.000 C 
BRANCH  18  19
ATOM     19  C   UNL     1       1.972   8.026  20.202  0.00  0.00    +0.000 C 
BRANCH  19  20
ATOM     20  C   UNL     1       0.989   9.025  19.581  0.00  0.00    +0.000 C 
BRANCH  20  21
ATOM     21  N   UNL     1      -0.231   9.283  20.353  0.00  0.00    +0.000 NA
ATOM     22  C   UNL     1      -0.257   8.734  21.731  0.00  0.00    +0.000 C 
ATOM     23  C   UNL     1       0.132   9.662  22.925  0.00  0.00    +0.000 C 
ATOM     24  N   UNL     1      -0.199  11.100  22.803  0.00  0.00    +0.000 NA
ATOM     25  C   UNL     1       0.200  11.515  21.443  0.00  0.00    +0.000 C 
ATOM     26  C   UNL     1      -0.535  10.722  20.341  0.00  0.00    +0.000 C 
BRANCH  24  27
ATOM     27  C   UNL     1      -1.625  11.418  23.027  0.00  0.00    +0.000 C 
BRANCH  27  28
ATOM     28  C   UNL     1      -1.989  12.873  22.843  0.00  0.00    +0.000 A 
ATOM     29  C   UNL     1      -1.353  13.888  23.568  0.00  0.00    +0.000 A 
ATOM     30  C   UNL     1      -1.803  15.207  23.464  0.00  0.00    +0.000 A 
ATOM     31  C   UNL     1      -2.868  15.513  22.618  0.00  0.00    +0.000 A 
ATOM     32 CL   UNL     1      -3.485  17.117  22.563  0.00  0.00    +0.000 Cl
ATOM     33  C   UNL     1      -3.455  14.525  21.832  0.00  0.00    +0.000 A 
ATOM     34  C   UNL     1      -3.013  13.209  21.941  0.00  0.00    +0.000 A 
ENDBRANCH  27  28
ENDBRANCH  24  27
ENDBRANCH  20  21
ENDBRANCH  19  20
ENDBRANCH  18  19
ENDBRANCH   1  18
TORSDOF 12
ENDMDL
MODEL 5
REMARK VINA RESULT:      -7.1      2.274      4.171
REMARK  Name = 
REMARK  12 active torsions:
REMARK  status: ('A' for Active; 'I' for Inactive)
REMARK    1  A    between atoms: N_11  and  C_12
REMARK    2  A    between atoms: C_12  and  C_13
REMARK    3  A    between atoms: C_13  and  C_14
REMARK    4  A    between atoms: C_14  and  C_15
REMARK    5  A    between atoms: C_15  and  C_16
REMARK    6  A    between atoms: C_16  and  C_17
REMARK    7  A    between atoms: C_17  and  C_18
REMARK    8  A    between atoms: C_18  and  C_19
REMARK    9  A    between atoms: C_19  and  C_20
REMARK   10  A    between atoms: C_20  and  N_21
REMARK   11  A    between atoms: N_24  and  C_25
REMARK   12  A    between atoms: C_25  and  C_26
REMARK                            x       y       z     vdW  Elec       q    Type
REMARK                         _______ _______ _______ _____ _____    ______ ____
ROOT
ATOM      1  C   UNL     1       2.152   7.580  18.577  0.00  0.00    +0.000 C 
ENDROOT
BRANCH   1   2
ATOM      2  C   UNL     1       3.501   6.865  18.514  0.00  0.00    +0.000 C 
BRANCH   2   3
ATOM      3  C   UNL     1       4.144   7.064  17.147  0.00  0.00    +0.000 C 
BRANCH   3   4
ATOM      4  C   UNL     1       5.359   6.162  16.948  0.00  0.00    +0.000 C 
BRANCH   4   5
ATOM      5  C   UNL     1       5.017   5.059  15.943  0.00  0.00    +0.000 C 
BRANCH   5   6
ATOM      6  C   UNL     1       5.175   3.666  16.539  0.00  0.00    +0.000 C 
BRANCH   6  17
ATOM      7  O   UNL     1       5.665   3.695  19.457  0.00  0.00    +0.000 OA
ATOM      8  C   UNL     1       4.576   3.524  18.948  0.00  0.00    +0.000 C 
ATOM      9  C   UNL     1       3.330   3.346  19.698  0.00  0.00    +0.000 A 
ATOM     10  C   UNL     1       3.103   3.291  21.062  0.00  0.00    +0.000 A 
ATOM     11  C   UNL     1       1.786   3.113  21.488  0.00  0.00    +0.000 A 
ATOM     12  C   UNL     1       0.735   2.989  20.551  0.00  0.00    +0.000 A 
ATOM     13  C   UNL     1       0.987   3.055  19.178  0.00  0.00    +0.000 A 
ATOM     14  C   UNL     1       2.303   3.230  18.783  0.00  0.00    +0.000 A 
ATOM     15  C   UNL     1       2.882   3.325  17.454  0.00  0.00    +0.000 C 
ATOM     16  O   UNL     1       2.240   3.336  16.415  0.00  0.00    +0.000 OA
ATOM     17  N   UNL     1       4.244   3.454  17.620  0.00  0.00    +0.000 N 
ENDBRANCH   6  17
ENDBRANCH   5   6
ENDBRANCH   4   5
ENDBRANCH   3   4
ENDBRANCH   2   3
ENDBRANCH   1   2
BRANCH   1  18
ATOM     18  C   UNL     1       2.246   8.955  17.924  0.00  0.00    +0.000 C 
BRANCH  18  19
ATOM     19  C   UNL     1       0.895   9.671  17.915  0.00  0.00    +0.000 C 
BRANCH  19  20
ATOM     20  C   UNL     1       0.928  10.994  18.690  0.00  0.00    +0.000 C 
BRANCH  20  21
ATOM     21  N   UNL     1      -0.368  11.654  18.880  0.00  0.00    +0.000 NA
ATOM     22  C   UNL     1      -1.122  11.269  20.098  0.00  0.00    +0.000 C 
ATOM     23  C   UNL     1      -1.009  12.162  21.375  0.00  0.00    +0.000 C 
ATOM     24  N   UNL     1      -0.823  13.616  21.172  0.00  0.00    +0.000 NA
ATOM     25  C   UNL     1       0.206  13.771  20.123  0.00  0.00    +0.000 C 
ATOM     26  C   UNL     1      -0.204  13.113  18.788  0.00  0.00    +0.000 C 
BRANCH  24  27
ATOM     27  C   UNL     1      -2.051  14.339  20.780  0.00  0.00    +0.000 C 
BRANCH  27  28
ATOM     28  C   UNL     1      -3.269  14.024  21.616  0.00  0.00    +0.000 A 
ATOM     29  C   UNL     1      -3.336  14.359  22.975  0.00  0.00    +0.000 A 
ATOM     30  C   UNL     1      -4.425  13.939  23.743  0.00  0.00    +0.000 A 
ATOM     31  C   UNL     1      -5.456  13.211  23.151  0.00  0.00    +0.000 A 
ATOM     32 CL   UNL     1      -6.747  12.611  24.115  0.00  0.00    +0.000 Cl
ATOM     33  C   UNL     1      -5.438  12.943  21.785  0.00  0.00    +0.000 A 
ATOM     34  C   UNL     1      -4.350  13.353  21.019  0.00  0.00    +0.000 A 
ENDBRANCH  27  28
ENDBRANCH  24  27
ENDBRANCH  20  21
ENDBRANCH  19  20
ENDBRANCH  18  19
ENDBRANCH   1  18
TORSDOF 12
ENDMDL
MODEL 6
REMARK VINA RESULT:      -7.1      2.742      4.458
REMARK  Name = 
REMARK  12 active torsions:
REMARK  status: ('A' for Active; 'I' for Inactive)
REMARK    1  A    between atoms: N_11  and  C_12
REMARK    2  A    between atoms: C_12  and  C_13
REMARK    3  A    between atoms: C_13  and  C_14
REMARK    4  A    between atoms: C_14  and  C_15
REMARK    5  A    between atoms: C_15  and  C_16
REMARK    6  A    between atoms: C_16  and  C_17
REMARK    7  A    between atoms: C_17  and  C_18
REMARK    8  A    between atoms: C_18  and  C_19
REMARK    9  A    between atoms: C_19  and  C_20
REMARK   10  A    between atoms: C_20  and  N_21
REMARK   11  A    between atoms: N_24  and  C_25
REMARK   12  A    between atoms: C_25  and  C_26
REMARK                            x       y       z     vdW  Elec       q    Type
REMARK                         _______ _______ _______ _____ _____    ______ ____
ROOT
ATOM      1  C   UNL     1       3.386   7.176  18.195  0.00  0.00    +0.000 C 
ENDROOT
BRANCH   1   2
ATOM      2  C   UNL     1       4.087   6.790  16.893  0.00  0.00    +0.000 C 
BRANCH   2   3
ATOM      3  C   UNL     1       5.585   6.639  17.122  0.00  0.00    +0.000 C 
BRANCH   3   4
ATOM      4  C   UNL     1       6.247   5.786  16.044  0.00  0.00    +0.000 C 
BRANCH   4   5
ATOM      5  C   UNL     1       5.267   4.709  15.571  0.00  0.00    +0.000 C 
BRANCH   5   6
ATOM      6  C   UNL     1       5.346   3.445  16.418  0.00  0.00    +0.000 C 
BRANCH   6  17
ATOM      7  O   UNL     1       5.790   3.957  19.299  0.00  0.00    +0.000 OA
ATOM      8  C   UNL     1       4.700   3.763  18.798  0.00  0.00    +0.000 C 
ATOM      9  C   UNL     1       3.434   3.792  19.535  0.00  0.00    +0.000 A 
ATOM     10  C   UNL     1       3.183   3.990  20.881  0.00  0.00    +0.000 A 
ATOM     11  C   UNL     1       1.850   3.966  21.296  0.00  0.00    +0.000 A 
ATOM     12  C   UNL     1       0.808   3.741  20.368  0.00  0.00    +0.000 A 
ATOM     13  C   UNL     1       1.086   3.551  19.012  0.00  0.00    +0.000 A 
ATOM     14  C   UNL     1       2.417   3.576  18.627  0.00  0.00    +0.000 A 
ATOM     15  C   UNL     1       3.021   3.404  17.318  0.00  0.00    +0.000 C 
ATOM     16  O   UNL     1       2.398   3.269  16.276  0.00  0.00    +0.000 OA
ATOM     17  N   UNL     1       4.386   3.480  17.495  0.00  0.00    +0.000 N 
ENDBRANCH   6  17
ENDBRANCH   5   6
ENDBRANCH   4   5
ENDBRANCH   3   4
ENDBRANCH   2   3
ENDBRANCH   1   2
BRANCH   1  18
ATOM     18  C   UNL     1       2.251   8.157  17.919  0.00  0.00    +0.000 C 
BRANCH  18  19
ATOM     19  C   UNL     1       1.561   8.604  19.208  0.00  0.00    +0.000 C 
BRANCH  19  20
ATOM     20  C   UNL     1       0.520   9.703  18.966  0.00  0.00    +0.000 C 
BRANCH  20  21
ATOM     21  N   UNL     1      -0.567   9.778  19.948  0.00  0.00    +0.000 NA
ATOM     22  C   UNL     1      -0.355   9.033  21.212  0.00  0.00    +0.000 C 
ATOM     23  C   UNL     1       0.194   9.795  22.460  0.00  0.00    +0.000 C 
ATOM     24  N   UNL     1      -0.195  11.216  22.613  0.00  0.00    +0.000 NA
ATOM     25  C   UNL     1      -0.033  11.846  21.287  0.00  0.00    +0.000 C 
ATOM     26  C   UNL     1      -0.912  11.185  20.204  0.00  0.00    +0.000 C 
BRANCH  24  27
ATOM     27  C   UNL     1      -1.575  11.421  23.100  0.00  0.00    +0.000 C 
BRANCH  27  28
ATOM     28  C   UNL     1      -2.052  12.854  23.079  0.00  0.00    +0.000 A 
ATOM     29  C   UNL     1      -3.250  13.222  22.453  0.00  0.00    +0.000 A 
ATOM     30  C   UNL     1      -3.594  14.572  22.345  0.00  0.00    +0.000 A 
ATOM     31  C   UNL     1      -2.757  15.548  22.884  0.00  0.00    +0.000 A 
ATOM     32 CL   UNL     1      -3.130  17.213  22.667  0.00  0.00    +0.000 Cl
ATOM     33  C   UNL     1      -1.606  15.189  23.580  0.00  0.00    +0.000 A 
ATOM     34  C   UNL     1      -1.258  13.844  23.681  0.00  0.00    +0.000 A 
ENDBRANCH  27  28
ENDBRANCH  24  27
ENDBRANCH  20  21
ENDBRANCH  19  20
ENDBRANCH  18  19
ENDBRANCH   1  18
TORSDOF 12
ENDMDL
MODEL 7
REMARK VINA RESULT:      -7.1      2.617      3.282
REMARK  Name = 
REMARK  12 active torsions:
REMARK  status: ('A' for Active; 'I' for Inactive)
REMARK    1  A    between atoms: N_11  and  C_12
REMARK    2  A    between atoms: C_12  and  C_13
REMARK    3  A    between atoms: C_13  and  C_14
REMARK    4  A    between atoms: C_14  and  C_15
REMARK    5  A    between atoms: C_15  and  C_16
REMARK    6  A    between atoms: C_16  and  C_17
REMARK    7  A    between atoms: C_17  and  C_18
REMARK    8  A    between atoms: C_18  and  C_19
REMARK    9  A    between atoms: C_19  and  C_20
REMARK   10  A    between atoms: C_20  and  N_21
REMARK   11  A    between atoms: N_24  and  C_25
REMARK   12  A    between atoms: C_25  and  C_26
REMARK                            x       y       z     vdW  Elec       q    Type
REMARK                         _______ _______ _______ _____ _____    ______ ____
ROOT
ATOM      1  C   UNL     1       2.088   6.230  18.574  0.00  0.00    +0.000 C 
ENDROOT
BRANCH   1   2
ATOM      2  C   UNL     1       2.261   5.850  20.044  0.00  0.00    +0.000 C 
BRANCH   2   3
ATOM      3  C   UNL     1       1.191   4.851  20.464  0.00  0.00    +0.000 C 
BRANCH   3   4
ATOM      4  C   UNL     1       1.629   3.408  20.226  0.00  0.00    +0.000 C 
BRANCH   4   5
ATOM      5  C   UNL     1       2.924   3.134  20.996  0.00  0.00    +0.000 C 
BRANCH   5   6
ATOM      6  C   UNL     1       3.949   2.385  20.152  0.00  0.00    +0.000 C 
BRANCH   6  17
ATOM      7  O   UNL     1       6.056   4.463  20.112  0.00  0.00    +0.000 OA
ATOM      8  C   UNL     1       5.421   4.112  19.137  0.00  0.00    +0.000 C 
ATOM      9  C   UNL     1       5.628   4.634  17.784  0.00  0.00    +0.000 A 
ATOM     10  C   UNL     1       6.497   5.605  17.318  0.00  0.00    +0.000 A 
ATOM     11  C   UNL     1       6.469   5.892  15.952  0.00  0.00    +0.000 A 
ATOM     12  C   UNL     1       5.578   5.212  15.090  0.00  0.00    +0.000 A 
ATOM     13  C   UNL     1       4.716   4.229  15.581  0.00  0.00    +0.000 A 
ATOM     14  C   UNL     1       4.762   3.966  16.941  0.00  0.00    +0.000 A 
ATOM     15  C   UNL     1       3.999   3.028  17.744  0.00  0.00    +0.000 C 
ATOM     16  O   UNL     1       3.194   2.224  17.299  0.00  0.00    +0.000 OA
ATOM     17  N   UNL     1       4.406   3.195  19.050  0.00  0.00    +0.000 N 
ENDBRANCH   6  17
ENDBRANCH   5   6
ENDBRANCH   4   5
ENDBRANCH   3   4
ENDBRANCH   2   3
ENDBRANCH   1   2
BRANCH   1  18
ATOM     18  C   UNL     1       3.223   7.142  18.121  0.00  0.00    +0.000 C 
BRANCH  18  19
ATOM     19  C   UNL     1       2.703   8.497  17.639  0.00  0.00    +0.000 C 
BRANCH  19  20
ATOM     20  C   UNL     1       1.238   8.735  18.026  0.00  0.00    +0.000 C 
BRANCH  20  21
ATOM     21  N   UNL     1       0.835  10.138  18.165  0.00  0.00    +0.000 NA
ATOM     22  C   UNL     1      -0.611  10.419  18.001  0.00  0.00    +0.000 C 
ATOM     23  C   UNL     1      -1.513  10.524  19.273  0.00  0.00    +0.000 C 
ATOM     24  N   UNL     1      -0.891  11.065  20.503  0.00  0.00    +0.000 NA
ATOM     25  C   UNL     1       0.426  10.411  20.638  0.00  0.00    +0.000 C 
ATOM     26  C   UNL     1       1.350  10.682  19.431  0.00  0.00    +0.000 C 
BRANCH  24  27
ATOM     27  C   UNL     1      -0.724  12.533  20.506  0.00  0.00    +0.000 C 
BRANCH  27  28
ATOM     28  C   UNL     1      -1.279  13.235  21.723  0.00  0.00    +0.000 A 
ATOM     29  C   UNL     1      -0.582  14.273  22.356  0.00  0.00    +0.000 A 
ATOM     30  C   UNL     1      -1.067  14.811  23.550  0.00  0.00    +0.000 A 
ATOM     31  C   UNL     1      -2.257  14.333  24.096  0.00  0.00    +0.000 A 
ATOM     32 CL   UNL     1      -2.803  14.926  25.615  0.00  0.00    +0.000 Cl
ATOM     33  C   UNL     1      -2.999  13.359  23.433  0.00  0.00    +0.000 A 
ATOM     34  C   UNL     1      -2.513  12.815  22.247  0.00  0.00    +0.000 A 
ENDBRANCH  27  28
ENDBRANCH  24  27
ENDBRANCH  20  21
ENDBRANCH  19  20
ENDBRANCH  18  19
ENDBRANCH   1  18
TORSDOF 12
ENDMDL
MODEL 8
REMARK VINA RESULT:      -6.9      2.256      4.368
REMARK  Name = 
REMARK  12 active torsions:
REMARK  status: ('A' for Active; 'I' for Inactive)
REMARK    1  A    between atoms: N_11  and  C_12
REMARK    2  A    between atoms: C_12  and  C_13
REMARK    3  A    between atoms: C_13  and  C_14
REMARK    4  A    between atoms: C_14  and  C_15
REMARK    5  A    between atoms: C_15  and  C_16
REMARK    6  A    between atoms: C_16  and  C_17
REMARK    7  A    between atoms: C_17  and  C_18
REMARK    8  A    between atoms: C_18  and  C_19
REMARK    9  A    between atoms: C_19  and  C_20
REMARK   10  A    between atoms: C_20  and  N_21
REMARK   11  A    between atoms: N_24  and  C_25
REMARK   12  A    between atoms: C_25  and  C_26
REMARK                            x       y       z     vdW  Elec       q    Type
REMARK                         _______ _______ _______ _____ _____    ______ ____
ROOT
ATOM      1  C   UNL     1       3.271   7.025  17.975  0.00  0.00    +0.000 C 
ENDROOT
BRANCH   1   2
ATOM      2  C   UNL     1       4.537   7.628  17.369  0.00  0.00    +0.000 C 
BRANCH   2   3
ATOM      3  C   UNL     1       4.846   6.978  16.026  0.00  0.00    +0.000 C 
BRANCH   3   4
ATOM      4  C   UNL     1       5.876   5.860  16.154  0.00  0.00    +0.000 C 
BRANCH   4   5
ATOM      5  C   UNL     1       5.350   4.598  15.466  0.00  0.00    +0.000 C 
BRANCH   5   6
ATOM      6  C   UNL     1       5.341   3.392  16.399  0.00  0.00    +0.000 C 
BRANCH   6  17
ATOM      7  O   UNL     1       2.406   3.023  16.307  0.00  0.00    +0.000 OA
ATOM      8  C   UNL     1       3.027   3.326  17.307  0.00  0.00    +0.000 C 
ATOM      9  C   UNL     1       2.426   3.515  18.629  0.00  0.00    +0.000 A 
ATOM     10  C   UNL     1       1.105   3.444  19.033  0.00  0.00    +0.000 A 
ATOM     11  C   UNL     1       0.832   3.673  20.383  0.00  0.00    +0.000 A 
ATOM     12  C   UNL     1       1.875   3.971  21.290  0.00  0.00    +0.000 A 
ATOM     13  C   UNL     1       3.203   4.029  20.860  0.00  0.00    +0.000 A 
ATOM     14  C   UNL     1       3.445   3.801  19.515  0.00  0.00    +0.000 A 
ATOM     15  C   UNL     1       4.692   3.803  18.770  0.00  0.00    +0.000 C 
ATOM     16  O   UNL     1       5.799   3.947  19.266  0.00  0.00    +0.000 OA
ATOM     17  N   UNL     1       4.370   3.558  17.453  0.00  0.00    +0.000 N 
ENDBRANCH   6  17
ENDBRANCH   5   6
ENDBRANCH   4   5
ENDBRANCH   3   4
ENDBRANCH   2   3
ENDBRANCH   1   2
BRANCH   1  18
ATOM     18  C   UNL     1       2.080   7.951  17.755  0.00  0.00    +0.000 C 
BRANCH  18  19
ATOM     19  C   UNL     1       1.745   8.751  19.015  0.00  0.00    +0.000 C 
BRANCH  19  20
ATOM     20  C   UNL     1       1.021  10.066  18.699  0.00  0.00    +0.000 C 
BRANCH  20  21
ATOM     21  N   UNL     1       0.967  11.042  19.792  0.00  0.00    +0.000 NA
ATOM     22  C   UNL     1       1.217  12.455  19.417  0.00  0.00    +0.000 C 
ATOM     23  C   UNL     1      -0.000  13.395  19.145  0.00  0.00    +0.000 C 
ATOM     24  N   UNL     1      -1.235  13.149  19.925  0.00  0.00    +0.000 NA
ATOM     25  C   UNL     1      -1.466  11.691  19.907  0.00  0.00    +0.000 C 
ATOM     26  C   UNL     1      -0.298  10.897  20.529  0.00  0.00    +0.000 C 
BRANCH  24  27
ATOM     27  C   UNL     1      -1.180  13.632  21.320  0.00  0.00    +0.000 C 
BRANCH  27  28
ATOM     28  C   UNL     1      -2.460  13.461  22.104  0.00  0.00    +0.000 A 
ATOM     29  C   UNL     1      -2.518  12.661  23.253  0.00  0.00    +0.000 A 
ATOM     30  C   UNL     1      -3.746  12.427  23.878  0.00  0.00    +0.000 A 
ATOM     31  C   UNL     1      -4.906  13.011  23.372  0.00  0.00    +0.000 A 
ATOM     32 CL   UNL     1      -6.430  12.645  24.081  0.00  0.00    +0.000 Cl
ATOM     33  C   UNL     1      -4.847  13.872  22.280  0.00  0.00    +0.000 A 
ATOM     34  C   UNL     1      -3.626  14.100  21.651  0.00  0.00    +0.000 A 
ENDBRANCH  27  28
ENDBRANCH  24  27
ENDBRANCH  20  21
ENDBRANCH  19  20
ENDBRANCH  18  19
ENDBRANCH   1  18
TORSDOF 12
ENDMDL
MODEL 9
REMARK VINA RESULT:      -6.9      2.569      3.155
REMARK  Name = 
REMARK  12 active torsions:
REMARK  status: ('A' for Active; 'I' for Inactive)
REMARK    1  A    between atoms: N_11  and  C_12
REMARK    2  A    between atoms: C_12  and  C_13
REMARK    3  A    between atoms: C_13  and  C_14
REMARK    4  A    between atoms: C_14  and  C_15
REMARK    5  A    between atoms: C_15  and  C_16
REMARK    6  A    between atoms: C_16  and  C_17
REMARK    7  A    between atoms: C_17  and  C_18
REMARK    8  A    between atoms: C_18  and  C_19
REMARK    9  A    between atoms: C_19  and  C_20
REMARK   10  A    between atoms: C_20  and  N_21
REMARK   11  A    between atoms: N_24  and  C_25
REMARK   12  A    between atoms: C_25  and  C_26
REMARK                            x       y       z     vdW  Elec       q    Type
REMARK                         _______ _______ _______ _____ _____    ______ ____
ROOT
ATOM      1  C   UNL     1       2.837   6.297  18.086  0.00  0.00    +0.000 C 
ENDROOT
BRANCH   1   2
ATOM      2  C   UNL     1       1.479   5.624  18.280  0.00  0.00    +0.000 C 
BRANCH   2   3
ATOM      3  C   UNL     1       1.619   4.388  19.159  0.00  0.00    +0.000 C 
BRANCH   3   4
ATOM      4  C   UNL     1       1.439   3.097  18.365  0.00  0.00    +0.000 C 
BRANCH   4   5
ATOM      5  C   UNL     1       2.615   2.157  18.644  0.00  0.00    +0.000 C 
BRANCH   5   6
ATOM      6  C   UNL     1       3.645   2.172  17.521  0.00  0.00    +0.000 C 
BRANCH   6  17
ATOM      7  O   UNL     1       5.112   3.089  19.923  0.00  0.00    +0.000 OA
ATOM      8  C   UNL     1       5.208   3.601  18.825  0.00  0.00    +0.000 C 
ATOM      9  C   UNL     1       6.094   4.724  18.511  0.00  0.00    +0.000 A 
ATOM     10  C   UNL     1       6.944   5.452  19.324  0.00  0.00    +0.000 A 
ATOM     11  C   UNL     1       7.677   6.481  18.730  0.00  0.00    +0.000 A 
ATOM     12  C   UNL     1       7.542   6.761  17.351  0.00  0.00    +0.000 A 
ATOM     13  C   UNL     1       6.683   6.006  16.547  0.00  0.00    +0.000 A 
ATOM     14  C   UNL     1       5.966   4.994  17.163  0.00  0.00    +0.000 A 
ATOM     15  C   UNL     1       5.001   4.057  16.614  0.00  0.00    +0.000 C 
ATOM     16  O   UNL     1       4.709   3.972  15.431  0.00  0.00    +0.000 OA
ATOM     17  N   UNL     1       4.553   3.285  17.663  0.00  0.00    +0.000 N 
ENDBRANCH   6  17
ENDBRANCH   5   6
ENDBRANCH   4   5
ENDBRANCH   3   4
ENDBRANCH   2   3
ENDBRANCH   1   2
BRANCH   1  18
ATOM     18  C   UNL     1       2.735   7.793  18.360  0.00  0.00    +0.000 C 
BRANCH  18  19
ATOM     19  C   UNL     1       1.866   8.088  19.583  0.00  0.00    +0.000 C 
BRANCH  19  20
ATOM     20  C   UNL     1       1.056   9.381  19.429  0.00  0.00    +0.000 C 
BRANCH  20  21
ATOM     21  N   UNL     1      -0.161   9.472  20.242  0.00  0.00    +0.000 NA
ATOM     22  C   UNL     1      -0.094   8.846  21.585  0.00  0.00    +0.000 C 
ATOM     23  C   UNL     1       0.236   9.739  22.824  0.00  0.00    +0.000 C 
ATOM     24  N   UNL     1      -0.237  11.142  22.795  0.00  0.00    +0.000 NA
ATOM     25  C   UNL     1       0.080  11.670  21.453  0.00  0.00    +0.000 C 
ATOM     26  C   UNL     1      -0.604  10.872  20.323  0.00  0.00    +0.000 C 
BRANCH  24  27
ATOM     27  C   UNL     1      -1.681  11.303  23.068  0.00  0.00    +0.000 C 
BRANCH  27  28
ATOM     28  C   UNL     1      -2.193  12.721  22.970  0.00  0.00    +0.000 A 
ATOM     29  C   UNL     1      -3.247  13.065  22.114  0.00  0.00    +0.000 A 
ATOM     30  C   UNL     1      -3.608  14.405  21.957  0.00  0.00    +0.000 A 
ATOM     31  C   UNL     1      -2.936  15.395  22.673  0.00  0.00    +0.000 A 
ATOM     32 CL   UNL     1      -3.315  17.052  22.407  0.00  0.00    +0.000 Cl
ATOM     33  C   UNL     1      -1.942  15.057  23.587  0.00  0.00    +0.000 A 
ATOM     34  C   UNL     1      -1.575  13.722  23.738  0.00  0.00    +0.000 A 
ENDBRANCH  27  28
ENDBRANCH  24  27
ENDBRANCH  20  21
ENDBRANCH  19  20
ENDBRANCH  18  19
ENDBRANCH   1  18
TORSDOF 12
ENDMDL
