MODEL 1
REMARK VINA RESULT:      -8.4      0.000      0.000
REMARK  Name = 
REMARK  8 active torsions:
REMARK  status: ('A' for Active; 'I' for Inactive)
REMARK    1  A    between atoms: C_1  and  O_2
REMARK    2  A    between atoms: O_2  and  C_3
REMARK    3  A    between atoms: C_7  and  C_8
REMARK    4  A    between atoms: N_10  and  C_11
REMARK    5  A    between atoms: C_11  and  C_12
REMARK    6  A    between atoms: C_15  and  S_16
REMARK    7  A    between atoms: N_17  and  C_18
REMARK    8  A    between atoms: C_22  and  C_23
REMARK                            x       y       z     vdW  Elec       q    Type
REMARK                         _______ _______ _______ _____ _____    ______ ____
ROOT
ATOM      1  C   UNL     1       4.726   3.800  18.942  0.00  0.00    +0.000 A 
ATOM      2  N   UNL     1       4.818   2.541  19.340  0.00  0.00    +0.000 NA
ATOM      3  N   UNL     1       3.646   2.198  19.950  0.00  0.00    +0.000 NA
ATOM      4  C   UNL     1       2.852   3.243  19.918  0.00  0.00    +0.000 A 
ATOM      5  N   UNL     1       3.473   4.315  19.293  0.00  0.00    +0.000 N 
ENDROOT
BRANCH   5   6
ATOM      6  C   UNL     1       2.997   5.646  19.089  0.00  0.00    +0.000 A 
ATOM      7  C   UNL     1       3.170   6.286  17.855  0.00  0.00    +0.000 A 
ATOM      8  C   UNL     1       2.763   7.609  17.676  0.00  0.00    +0.000 A 
ATOM      9  C   UNL     1       2.142   8.298  18.713  0.00  0.00    +0.000 A 
ATOM     10  C   UNL     1       1.926   7.668  19.941  0.00  0.00    +0.000 A 
ATOM     11  C   UNL     1       1.225   8.384  21.058  0.00  0.00    +0.000 C 
ATOM     12  C   UNL     1       2.369   6.348  20.128  0.00  0.00    +0.000 A 
ENDBRANCH   5   6
BRANCH   4  13
ATOM     13  S   UNL     1       1.196   3.168  20.426  0.00  0.00    +0.000 S 
ATOM     14  H   UNL     1       1.033   1.851  20.234  0.00  0.00    +0.000 HD
ENDBRANCH   4  13
BRANCH   1  15
ATOM     15  C   UNL     1       5.833   4.593  18.344  0.00  0.00    +0.000 C 
BRANCH  15  18
ATOM     16  C   UNL     1       6.610   5.182  16.119  0.00  0.00    +0.000 C 
ATOM     17  O   UNL     1       7.012   6.270  16.514  0.00  0.00    +0.000 OA
ATOM     18  N   UNL     1       6.034   4.252  16.957  0.00  0.00    +0.000 N 
ATOM     19  H   UNL     1       5.821   3.307  16.658  0.00  0.00    +0.000 HD
BRANCH  16  24
ATOM     20  C   UNL     1       6.063   3.528  12.754  0.00  0.00    +0.000 A 
ATOM     21  C   UNL     1       7.027   4.196  11.991  0.00  0.00    +0.000 A 
ATOM     22  C   UNL     1       7.835   5.180  12.563  0.00  0.00    +0.000 A 
ATOM     23  C   UNL     1       7.689   5.493  13.913  0.00  0.00    +0.000 A 
ATOM     24  C   UNL     1       6.744   4.812  14.689  0.00  0.00    +0.000 A 
ATOM     25  C   UNL     1       5.916   3.844  14.104  0.00  0.00    +0.000 A 
BRANCH  20  27
ATOM     26  C   UNL     1       4.230   3.079  11.306  0.00  0.00    +0.000 C 
ATOM     27  O   UNL     1       5.333   2.597  12.066  0.00  0.00    +0.000 OA
ENDBRANCH  20  27
ENDBRANCH  16  24
ENDBRANCH  15  18
ENDBRANCH   1  15
TORSDOF 6
ENDMDL
MODEL 2
REMARK VINA RESULT:      -8.3      3.149      8.044
REMARK  Name = 
REMARK  8 active torsions:
REMARK  status: ('A' for Active; 'I' for Inactive)
REMARK    1  A    between atoms: C_1  and  O_2
REMARK    2  A    between atoms: O_2  and  C_3
REMARK    3  A    between atoms: C_7  and  C_8
REMARK    4  A    between atoms: N_10  and  C_11
REMARK    5  A    between atoms: C_11  and  C_12
REMARK    6  A    between atoms: C_15  and  S_16
REMARK    7  A    between atoms: N_17  and  C_18
REMARK    8  A    between atoms: C_22  and  C_23
REMARK                            x       y       z     vdW  Elec       q    Type
REMARK                         _______ _______ _______ _____ _____    ______ ____
ROOT
ATOM      1  C   UNL     1       2.948   5.331  18.781  0.00  0.00    +0.000 A 
ATOM      2  N   UNL     1       1.863   4.875  19.386  0.00  0.00    +0.000 NA
ATOM      3  N   UNL     1       1.876   3.511  19.318  0.00  0.00    +0.000 NA
ATOM      4  C   UNL     1       2.962   3.149  18.677  0.00  0.00    +0.000 A 
ATOM      5  N   UNL     1       3.702   4.258  18.293  0.00  0.00    +0.000 N 
ENDROOT
BRANCH   5   6
ATOM      6  C   UNL     1       4.913   4.324  17.539  0.00  0.00    +0.000 A 
ATOM      7  C   UNL     1       6.133   4.607  18.168  0.00  0.00    +0.000 A 
ATOM      8  C   UNL     1       7.305   4.736  17.422  0.00  0.00    +0.000 A 
ATOM      9  C   UNL     1       7.284   4.545  16.045  0.00  0.00    +0.000 A 
ATOM     10  C   UNL     1       6.087   4.226  15.400  0.00  0.00    +0.000 A 
ATOM     11  C   UNL     1       6.053   3.980  13.920  0.00  0.00    +0.000 C 
ATOM     12  C   UNL     1       4.902   4.132  16.150  0.00  0.00    +0.000 A 
ENDBRANCH   5   6
BRANCH   4  13
ATOM     13  S   UNL     1       3.449   1.491  18.538  0.00  0.00    +0.000 S 
ATOM     14  H   UNL     1       2.420   0.967  19.221  0.00  0.00    +0.000 HD
ENDBRANCH   4  13
BRANCH   1  15
ATOM     15  C   UNL     1       3.248   6.766  18.528  0.00  0.00    +0.000 C 
BRANCH  15  18
ATOM     16  C   UNL     1       1.822   8.729  18.409  0.00  0.00    +0.000 C 
ATOM     17  O   UNL     1       2.220   8.987  17.279  0.00  0.00    +0.000 OA
ATOM     18  N   UNL     1       2.247   7.623  19.113  0.00  0.00    +0.000 N 
ATOM     19  H   UNL     1       1.824   7.341  19.990  0.00  0.00    +0.000 HD
BRANCH  16  24
ATOM     20  C   UNL     1      -0.044  10.720  21.038  0.00  0.00    +0.000 A 
ATOM     21  C   UNL     1      -1.029  11.317  20.242  0.00  0.00    +0.000 A 
ATOM     22  C   UNL     1      -1.075  11.083  18.867  0.00  0.00    +0.000 A 
ATOM     23  C   UNL     1      -0.137  10.236  18.280  0.00  0.00    +0.000 A 
ATOM     24  C   UNL     1       0.835   9.615  19.072  0.00  0.00    +0.000 A 
ATOM     25  C   UNL     1       0.895   9.873  20.448  0.00  0.00    +0.000 A 
BRANCH  20  27
ATOM     26  C   UNL     1      -0.595  10.040  23.250  0.00  0.00    +0.000 C 
ATOM     27  O   UNL     1      -0.107  11.044  22.366  0.00  0.00    +0.000 OA
ENDBRANCH  20  27
ENDBRANCH  16  24
ENDBRANCH  15  18
ENDBRANCH   1  15
TORSDOF 6
ENDMDL
MODEL 3
REMARK VINA RESULT:      -8.1      3.341      7.859
REMARK  Name = 
REMARK  8 active torsions:
REMARK  status: ('A' for Active; 'I' for Inactive)
REMARK    1  A    between atoms: C_1  and  O_2
REMARK    2  A    between atoms: O_2  and  C_3
REMARK    3  A    between atoms: C_7  and  C_8
REMARK    4  A    between atoms: N_10  and  C_11
REMARK    5  A    between atoms: C_11  and  C_12
REMARK    6  A    between atoms: C_15  and  S_16
REMARK    7  A    between atoms: N_17  and  C_18
REMARK    8  A    between atoms: C_22  and  C_23
REMARK                            x       y       z     vdW  Elec       q    Type
REMARK                         _______ _______ _______ _____ _____    ______ ____
ROOT
ATOM      1  C   UNL     1       2.923   5.330  18.721  0.00  0.00    +0.000 A 
ATOM      2  N   UNL     1       1.851   4.861  19.340  0.00  0.00    +0.000 NA
ATOM      3  N   UNL     1       1.907   3.498  19.320  0.00  0.00    +0.000 NA
ATOM      4  C   UNL     1       3.006   3.147  18.695  0.00  0.00    +0.000 A 
ATOM      5  N   UNL     1       3.711   4.264  18.273  0.00  0.00    +0.000 N 
ENDROOT
BRANCH   5   6
ATOM      6  C   UNL     1       4.922   4.341  17.518  0.00  0.00    +0.000 A 
ATOM      7  C   UNL     1       6.142   4.610  18.151  0.00  0.00    +0.000 A 
ATOM      8  C   UNL     1       7.314   4.750  17.406  0.00  0.00    +0.000 A 
ATOM      9  C   UNL     1       7.291   4.584  16.025  0.00  0.00    +0.000 A 
ATOM     10  C   UNL     1       6.092   4.280  15.376  0.00  0.00    +0.000 A 
ATOM     11  C   UNL     1       6.056   4.061  13.892  0.00  0.00    +0.000 C 
ATOM     12  C   UNL     1       4.908   4.174  16.126  0.00  0.00    +0.000 A 
ENDBRANCH   5   6
BRANCH   4  13
ATOM     13  S   UNL     1       3.544   1.501  18.616  0.00  0.00    +0.000 S 
ATOM     14  H   UNL     1       2.599   0.987  19.416  0.00  0.00    +0.000 HD
ENDBRANCH   4  13
BRANCH   1  15
ATOM     15  C   UNL     1       3.179   6.763  18.417  0.00  0.00    +0.000 C 
BRANCH  15  18
ATOM     16  C   UNL     1       1.803   8.765  18.415  0.00  0.00    +0.000 C 
ATOM     17  O   UNL     1       2.188   9.066  17.291  0.00  0.00    +0.000 OA
ATOM     18  N   UNL     1       2.209   7.617  19.059  0.00  0.00    +0.000 N 
ATOM     19  H   UNL     1       1.794   7.304  19.929  0.00  0.00    +0.000 HD
BRANCH  16  24
ATOM     20  C   UNL     1      -1.017  11.183  19.164  0.00  0.00    +0.000 A 
ATOM     21  C   UNL     1      -0.926  11.244  20.559  0.00  0.00    +0.000 A 
ATOM     22  C   UNL     1       0.033  10.498  21.245  0.00  0.00    +0.000 A 
ATOM     23  C   UNL     1       0.918   9.692  20.533  0.00  0.00    +0.000 A 
ATOM     24  C   UNL     1       0.850   9.644  19.136  0.00  0.00    +0.000 A 
ATOM     25  C   UNL     1      -0.132  10.373  18.453  0.00  0.00    +0.000 A 
BRANCH  20  27
ATOM     26  C   UNL     1      -2.648  11.451  17.453  0.00  0.00    +0.000 C 
ATOM     27  O   UNL     1      -2.009  11.954  18.621  0.00  0.00    +0.000 OA
ENDBRANCH  20  27
ENDBRANCH  16  24
ENDBRANCH  15  18
ENDBRANCH   1  15
TORSDOF 6
ENDMDL
MODEL 4
REMARK VINA RESULT:      -8.1      3.361      8.392
REMARK  Name = 
REMARK  8 active torsions:
REMARK  status: ('A' for Active; 'I' for Inactive)
REMARK    1  A    between atoms: C_1  and  O_2
REMARK    2  A    between atoms: O_2  and  C_3
REMARK    3  A    between atoms: C_7  and  C_8
REMARK    4  A    between atoms: N_10  and  C_11
REMARK    5  A    between atoms: C_11  and  C_12
REMARK    6  A    between atoms: C_15  and  S_16
REMARK    7  A    between atoms: N_17  and  C_18
REMARK    8  A    between atoms: C_22  and  C_23
REMARK                            x       y       z     vdW  Elec       q    Type
REMARK                         _______ _______ _______ _____ _____    ______ ____
ROOT
ATOM      1  C   UNL     1       2.726   5.200  19.287  0.00  0.00    +0.000 A 
ATOM      2  N   UNL     1       1.661   4.624  19.822  0.00  0.00    +0.000 NA
ATOM      3  N   UNL     1       1.753   3.278  19.612  0.00  0.00    +0.000 NA
ATOM      4  C   UNL     1       2.866   3.045  18.957  0.00  0.00    +0.000 A 
ATOM      5  N   UNL     1       3.546   4.228  18.704  0.00  0.00    +0.000 N 
ENDROOT
BRANCH   5   6
ATOM      6  C   UNL     1       4.761   4.440  17.983  0.00  0.00    +0.000 A 
ATOM      7  C   UNL     1       5.941   4.780  18.657  0.00  0.00    +0.000 A 
ATOM      8  C   UNL     1       7.113   5.050  17.947  0.00  0.00    +0.000 A 
ATOM      9  C   UNL     1       7.131   4.946  16.560  0.00  0.00    +0.000 A 
ATOM     10  C   UNL     1       5.976   4.573  15.870  0.00  0.00    +0.000 A 
ATOM     11  C   UNL     1       5.988   4.421  14.377  0.00  0.00    +0.000 C 
ATOM     12  C   UNL     1       4.790   4.336  16.585  0.00  0.00    +0.000 A 
ENDBRANCH   5   6
BRANCH   4  13
ATOM     13  S   UNL     1       3.447   1.440  18.655  0.00  0.00    +0.000 S 
ATOM     14  H   UNL     1       4.746   1.702  18.863  0.00  0.00    +0.000 HD
ENDBRANCH   4  13
BRANCH   1  15
ATOM     15  C   UNL     1       2.948   6.668  19.191  0.00  0.00    +0.000 C 
BRANCH  15  18
ATOM     16  C   UNL     1       1.531   8.556  19.765  0.00  0.00    +0.000 C 
ATOM     17  O   UNL     1       1.592   8.990  18.620  0.00  0.00    +0.000 OA
ATOM     18  N   UNL     1       2.144   7.385  20.151  0.00  0.00    +0.000 N 
ATOM     19  H   UNL     1       1.988   6.961  21.059  0.00  0.00    +0.000 HD
BRANCH  16  24
ATOM     20  C   UNL     1      -0.788  11.026  21.463  0.00  0.00    +0.000 A 
ATOM     21  C   UNL     1      -0.672  10.600  22.791  0.00  0.00    +0.000 A 
ATOM     22  C   UNL     1       0.139   9.515  23.125  0.00  0.00    +0.000 A 
ATOM     23  C   UNL     1       0.854   8.856  22.127  0.00  0.00    +0.000 A 
ATOM     24  C   UNL     1       0.764   9.291  20.800  0.00  0.00    +0.000 A 
ATOM     25  C   UNL     1      -0.074  10.363  20.465  0.00  0.00    +0.000 A 
BRANCH  20  27
ATOM     26  C   UNL     1      -1.403  12.886  20.115  0.00  0.00    +0.000 C 
ATOM     27  O   UNL     1      -1.625  12.092  21.274  0.00  0.00    +0.000 OA
ENDBRANCH  20  27
ENDBRANCH  16  24
ENDBRANCH  15  18
ENDBRANCH   1  15
TORSDOF 6
ENDMDL
MODEL 5
REMARK VINA RESULT:      -8.0      0.797      1.468
REMARK  Name = 
REMARK  8 active torsions:
REMARK  status: ('A' for Active; 'I' for Inactive)
REMARK    1  A    between atoms: C_1  and  O_2
REMARK    2  A    between atoms: O_2  and  C_3
REMARK    3  A    between atoms: C_7  and  C_8
REMARK    4  A    between atoms: N_10  and  C_11
REMARK    5  A    between atoms: C_11  and  C_12
REMARK    6  A    between atoms: C_15  and  S_16
REMARK    7  A    between atoms: N_17  and  C_18
REMARK    8  A    between atoms: C_22  and  C_23
REMARK                            x       y       z     vdW  Elec       q    Type
REMARK                         _______ _______ _______ _____ _____    ______ ____
ROOT
ATOM      1  C   UNL     1       4.273   4.530  18.584  0.00  0.00    +0.000 A 
ATOM      2  N   UNL     1       4.505   3.229  18.652  0.00  0.00    +0.000 NA
ATOM      3  N   UNL     1       3.530   2.659  19.419  0.00  0.00    +0.000 NA
ATOM      4  C   UNL     1       2.715   3.610  19.809  0.00  0.00    +0.000 A 
ATOM      5  N   UNL     1       3.125   4.842  19.322  0.00  0.00    +0.000 N 
ENDROOT
BRANCH   5   6
ATOM      6  C   UNL     1       2.565   6.138  19.542  0.00  0.00    +0.000 A 
ATOM      7  C   UNL     1       2.007   6.474  20.783  0.00  0.00    +0.000 A 
ATOM      8  C   UNL     1       1.402   7.716  20.978  0.00  0.00    +0.000 A 
ATOM      9  C   UNL     1       1.381   8.654  19.951  0.00  0.00    +0.000 A 
ATOM     10  C   UNL     1       1.963   8.355  18.717  0.00  0.00    +0.000 A 
ATOM     11  C   UNL     1       1.982   9.369  17.611  0.00  0.00    +0.000 C 
ATOM     12  C   UNL     1       2.540   7.091  18.513  0.00  0.00    +0.000 A 
ENDBRANCH   5   6
BRANCH   4  13
ATOM     13  S   UNL     1       1.237   3.279  20.652  0.00  0.00    +0.000 S 
ATOM     14  H   UNL     1       0.587   4.389  20.273  0.00  0.00    +0.000 HD
ENDBRANCH   4  13
BRANCH   1  15
ATOM     15  C   UNL     1       5.172   5.529  17.946  0.00  0.00    +0.000 C 
BRANCH  15  18
ATOM     16  C   UNL     1       6.585   4.822  16.101  0.00  0.00    +0.000 C 
ATOM     17  O   UNL     1       7.524   4.611  16.861  0.00  0.00    +0.000 OA
ATOM     18  N   UNL     1       5.353   5.251  16.542  0.00  0.00    +0.000 N 
ATOM     19  H   UNL     1       4.543   5.302  15.934  0.00  0.00    +0.000 HD
BRANCH  16  24
ATOM     20  C   UNL     1       6.109   3.522  12.574  0.00  0.00    +0.000 A 
ATOM     21  C   UNL     1       7.074   4.279  11.900  0.00  0.00    +0.000 A 
ATOM     22  C   UNL     1       7.858   5.209  12.584  0.00  0.00    +0.000 A 
ATOM     23  C   UNL     1       7.689   5.377  13.956  0.00  0.00    +0.000 A 
ATOM     24  C   UNL     1       6.744   4.606  14.643  0.00  0.00    +0.000 A 
ATOM     25  C   UNL     1       5.939   3.693  13.948  0.00  0.00    +0.000 A 
BRANCH  20  27
ATOM     26  C   UNL     1       4.170   3.133  11.253  0.00  0.00    +0.000 C 
ATOM     27  O   UNL     1       5.403   2.658  11.782  0.00  0.00    +0.000 OA
ENDBRANCH  20  27
ENDBRANCH  16  24
ENDBRANCH  15  18
ENDBRANCH   1  15
TORSDOF 6
ENDMDL
MODEL 6
REMARK VINA RESULT:      -7.8      3.393      8.028
REMARK  Name = 
REMARK  8 active torsions:
REMARK  status: ('A' for Active; 'I' for Inactive)
REMARK    1  A    between atoms: C_1  and  O_2
REMARK    2  A    between atoms: O_2  and  C_3
REMARK    3  A    between atoms: C_7  and  C_8
REMARK    4  A    between atoms: N_10  and  C_11
REMARK    5  A    between atoms: C_11  and  C_12
REMARK    6  A    between atoms: C_15  and  S_16
REMARK    7  A    between atoms: N_17  and  C_18
REMARK    8  A    between atoms: C_22  and  C_23
REMARK                            x       y       z     vdW  Elec       q    Type
REMARK                         _______ _______ _______ _____ _____    ______ ____
ROOT
ATOM      1  C   UNL     1       3.023   5.515  19.233  0.00  0.00    +0.000 A 
ATOM      2  N   UNL     1       2.109   5.070  20.080  0.00  0.00    +0.000 NA
ATOM      3  N   UNL     1       2.432   3.789  20.424  0.00  0.00    +0.000 NA
ATOM      4  C   UNL     1       3.534   3.465  19.789  0.00  0.00    +0.000 A 
ATOM      5  N   UNL     1       3.974   4.516  18.998  0.00  0.00    +0.000 N 
ENDROOT
BRANCH   5   6
ATOM      6  C   UNL     1       5.092   4.578  18.110  0.00  0.00    +0.000 A 
ATOM      7  C   UNL     1       6.354   4.970  18.575  0.00  0.00    +0.000 A 
ATOM      8  C   UNL     1       7.430   5.093  17.696  0.00  0.00    +0.000 A 
ATOM      9  C   UNL     1       7.272   4.788  16.348  0.00  0.00    +0.000 A 
ATOM     10  C   UNL     1       6.033   4.359  15.868  0.00  0.00    +0.000 A 
ATOM     11  C   UNL     1       5.854   3.990  14.424  0.00  0.00    +0.000 C 
ATOM     12  C   UNL     1       4.942   4.271  16.750  0.00  0.00    +0.000 A 
ENDBRANCH   5   6
BRANCH   4  13
ATOM     13  S   UNL     1       4.380   1.983  20.093  0.00  0.00    +0.000 S 
ATOM     14  H   UNL     1       4.804   1.783  18.837  0.00  0.00    +0.000 HD
ENDBRANCH   4  13
BRANCH   1  15
ATOM     15  C   UNL     1       2.970   6.822  18.524  0.00  0.00    +0.000 C 
BRANCH  15  18
ATOM     16  C   UNL     1       1.726   8.908  18.541  0.00  0.00    +0.000 C 
ATOM     17  O   UNL     1       2.102   9.177  17.406  0.00  0.00    +0.000 OA
ATOM     18  N   UNL     1       2.074   7.741  19.183  0.00  0.00    +0.000 N 
ATOM     19  H   UNL     1       1.661   7.460  20.066  0.00  0.00    +0.000 HD
BRANCH  16  24
ATOM     20  C   UNL     1      -0.505  11.854  19.383  0.00  0.00    +0.000 A 
ATOM     21  C   UNL     1      -0.815  11.555  20.715  0.00  0.00    +0.000 A 
ATOM     22  C   UNL     1      -0.314  10.404  21.324  0.00  0.00    +0.000 A 
ATOM     23  C   UNL     1       0.514   9.547  20.603  0.00  0.00    +0.000 A 
ATOM     24  C   UNL     1       0.850   9.851  19.278  0.00  0.00    +0.000 A 
ATOM     25  C   UNL     1       0.323  10.994  18.662  0.00  0.00    +0.000 A 
BRANCH  20  27
ATOM     26  C   UNL     1      -0.207  14.120  18.728  0.00  0.00    +0.000 C 
ATOM     27  O   UNL     1      -1.072  13.005  18.907  0.00  0.00    +0.000 OA
ENDBRANCH  20  27
ENDBRANCH  16  24
ENDBRANCH  15  18
ENDBRANCH   1  15
TORSDOF 6
ENDMDL
MODEL 7
REMARK VINA RESULT:      -7.7      3.688      8.651
REMARK  Name = 
REMARK  8 active torsions:
REMARK  status: ('A' for Active; 'I' for Inactive)
REMARK    1  A    between atoms: C_1  and  O_2
REMARK    2  A    between atoms: O_2  and  C_3
REMARK    3  A    between atoms: C_7  and  C_8
REMARK    4  A    between atoms: N_10  and  C_11
REMARK    5  A    between atoms: C_11  and  C_12
REMARK    6  A    between atoms: C_15  and  S_16
REMARK    7  A    between atoms: N_17  and  C_18
REMARK    8  A    between atoms: C_22  and  C_23
REMARK                            x       y       z     vdW  Elec       q    Type
REMARK                         _______ _______ _______ _____ _____    ______ ____
ROOT
ATOM      1  C   UNL     1       2.284   5.554  19.786  0.00  0.00    +0.000 A 
ATOM      2  N   UNL     1       1.207   5.031  20.350  0.00  0.00    +0.000 NA
ATOM      3  N   UNL     1       1.204   3.689  20.105  0.00  0.00    +0.000 NA
ATOM      4  C   UNL     1       2.274   3.404  19.400  0.00  0.00    +0.000 A 
ATOM      5  N   UNL     1       3.017   4.548  19.147  0.00  0.00    +0.000 N 
ENDROOT
BRANCH   5   6
ATOM      6  C   UNL     1       4.214   4.702  18.382  0.00  0.00    +0.000 A 
ATOM      7  C   UNL     1       4.214   4.471  17.000  0.00  0.00    +0.000 A 
ATOM      8  C   UNL     1       5.396   4.559  16.264  0.00  0.00    +0.000 A 
ATOM      9  C   UNL     1       6.586   4.916  16.890  0.00  0.00    +0.000 A 
ATOM     10  C   UNL     1       6.603   5.186  18.260  0.00  0.00    +0.000 A 
ATOM     11  C   UNL     1       7.871   5.608  18.944  0.00  0.00    +0.000 C 
ATOM     12  C   UNL     1       5.418   5.063  19.004  0.00  0.00    +0.000 A 
ENDBRANCH   5   6
BRANCH   4  13
ATOM     13  S   UNL     1       2.740   1.774  19.036  0.00  0.00    +0.000 S 
ATOM     14  H   UNL     1       1.501   1.293  18.854  0.00  0.00    +0.000 HD
ENDBRANCH   4  13
BRANCH   1  15
ATOM     15  C   UNL     1       2.595   7.007  19.715  0.00  0.00    +0.000 C 
BRANCH  15  18
ATOM     16  C   UNL     1       1.132   8.903  20.127  0.00  0.00    +0.000 C 
ATOM     17  O   UNL     1       1.223   9.266  18.960  0.00  0.00    +0.000 OA
ATOM     18  N   UNL     1       1.751   7.768  20.604  0.00  0.00    +0.000 N 
ATOM     19  H   UNL     1       1.572   7.399  21.531  0.00  0.00    +0.000 HD
BRANCH  16  24
ATOM     20  C   UNL     1      -1.149  11.534  21.620  0.00  0.00    +0.000 A 
ATOM     21  C   UNL     1      -1.205  11.089  22.945  0.00  0.00    +0.000 A 
ATOM     22  C   UNL     1      -0.519   9.941  23.343  0.00  0.00    +0.000 A 
ATOM     23  C   UNL     1       0.241   9.235  22.412  0.00  0.00    +0.000 A 
ATOM     24  C   UNL     1       0.322   9.688  21.090  0.00  0.00    +0.000 A 
ATOM     25  C   UNL     1      -0.390  10.826  20.689  0.00  0.00    +0.000 A 
BRANCH  20  27
ATOM     26  C   UNL     1      -1.154  13.810  20.927  0.00  0.00    +0.000 C 
ATOM     27  O   UNL     1      -1.877  12.665  21.364  0.00  0.00    +0.000 OA
ENDBRANCH  20  27
ENDBRANCH  16  24
ENDBRANCH  15  18
ENDBRANCH   1  15
TORSDOF 6
ENDMDL
MODEL 8
REMARK VINA RESULT:      -7.7      3.383      8.419
REMARK  Name = 
REMARK  8 active torsions:
REMARK  status: ('A' for Active; 'I' for Inactive)
REMARK    1  A    between atoms: C_1  and  O_2
REMARK    2  A    between atoms: O_2  and  C_3
REMARK    3  A    between atoms: C_7  and  C_8
REMARK    4  A    between atoms: N_10  and  C_11
REMARK    5  A    between atoms: C_11  and  C_12
REMARK    6  A    between atoms: C_15  and  S_16
REMARK    7  A    between atoms: N_17  and  C_18
REMARK    8  A    between atoms: C_22  and  C_23
REMARK                            x       y       z     vdW  Elec       q    Type
REMARK                         _______ _______ _______ _____ _____    ______ ____
ROOT
ATOM      1  C   UNL     1       2.454   5.224  18.772  0.00  0.00    +0.000 A 
ATOM      2  N   UNL     1       1.335   4.599  19.103  0.00  0.00    +0.000 NA
ATOM      3  N   UNL     1       1.545   3.255  18.985  0.00  0.00    +0.000 NA
ATOM      4  C   UNL     1       2.782   3.072  18.589  0.00  0.00    +0.000 A 
ATOM      5  N   UNL     1       3.432   4.286  18.422  0.00  0.00    +0.000 N 
ENDROOT
BRANCH   5   6
ATOM      6  C   UNL     1       4.757   4.551  17.959  0.00  0.00    +0.000 A 
ATOM      7  C   UNL     1       5.115   4.290  16.630  0.00  0.00    +0.000 A 
ATOM      8  C   UNL     1       6.427   4.488  16.195  0.00  0.00    +0.000 A 
ATOM      9  C   UNL     1       7.388   4.984  17.069  0.00  0.00    +0.000 A 
ATOM     10  C   UNL     1       7.045   5.285  18.389  0.00  0.00    +0.000 A 
ATOM     11  C   UNL     1       8.061   5.857  19.335  0.00  0.00    +0.000 C 
ATOM     12  C   UNL     1       5.733   5.053  18.833  0.00  0.00    +0.000 A 
ENDBRANCH   5   6
BRANCH   4  13
ATOM     13  S   UNL     1       3.505   1.499  18.496  0.00  0.00    +0.000 S 
ATOM     14  H   UNL     1       4.056   1.650  17.283  0.00  0.00    +0.000 HD
ENDBRANCH   4  13
BRANCH   1  15
ATOM     15  C   UNL     1       2.607   6.698  18.649  0.00  0.00    +0.000 C 
BRANCH  15  18
ATOM     16  C   UNL     1       1.551   8.720  19.485  0.00  0.00    +0.000 C 
ATOM     17  O   UNL     1       1.833   9.328  18.459  0.00  0.00    +0.000 OA
ATOM     18  N   UNL     1       1.862   7.391  19.672  0.00  0.00    +0.000 N 
ATOM     19  H   UNL     1       1.517   6.856  20.461  0.00  0.00    +0.000 HD
BRANCH  16  24
ATOM     20  C   UNL     1      -0.028  11.412  21.635  0.00  0.00    +0.000 A 
ATOM     21  C   UNL     1      -0.548  10.627  22.670  0.00  0.00    +0.000 A 
ATOM     22  C   UNL     1      -0.397   9.240  22.660  0.00  0.00    +0.000 A 
ATOM     23  C   UNL     1       0.290   8.629  21.614  0.00  0.00    +0.000 A 
ATOM     24  C   UNL     1       0.835   9.408  20.587  0.00  0.00    +0.000 A 
ATOM     25  C   UNL     1       0.658  10.798  20.587  0.00  0.00    +0.000 A 
BRANCH  20  27
ATOM     26  C   UNL     1      -1.023  13.172  22.888  0.00  0.00    +0.000 C 
ATOM     27  O   UNL     1      -0.258  12.755  21.763  0.00  0.00    +0.000 OA
ENDBRANCH  20  27
ENDBRANCH  16  24
ENDBRANCH  15  18
ENDBRANCH   1  15
TORSDOF 6
ENDMDL
MODEL 9
REMARK VINA RESULT:      -7.7      2.014      3.158
REMARK  Name = 
REMARK  8 active torsions:
REMARK  status: ('A' for Active; 'I' for Inactive)
REMARK    1  A    between atoms: C_1  and  O_2
REMARK    2  A    between atoms: O_2  and  C_3
REMARK    3  A    between atoms: C_7  and  C_8
REMARK    4  A    between atoms: N_10  and  C_11
REMARK    5  A    between atoms: C_11  and  C_12
REMARK    6  A    between atoms: C_15  and  S_16
REMARK    7  A    between atoms: N_17  and  C_18
REMARK    8  A    between atoms: C_22  and  C_23
REMARK                            x       y       z     vdW  Elec       q    Type
REMARK                         _______ _______ _______ _____ _____    ______ ____
ROOT
ATOM      1  C   UNL     1       4.746   5.943  17.845  0.00  0.00    +0.000 A 
ATOM      2  N   UNL     1       5.129   7.149  17.459  0.00  0.00    +0.000 NA
ATOM      3  N   UNL     1       4.083   8.008  17.637  0.00  0.00    +0.000 NA
ATOM      4  C   UNL     1       3.077   7.325  18.129  0.00  0.00    +0.000 A 
ATOM      5  N   UNL     1       3.419   5.989  18.287  0.00  0.00    +0.000 N 
ENDROOT
BRANCH   5   6
ATOM      6  C   UNL     1       2.618   4.895  18.738  0.00  0.00    +0.000 A 
ATOM      7  C   UNL     1       1.741   4.242  17.862  0.00  0.00    +0.000 A 
ATOM      8  C   UNL     1       0.912   3.216  18.319  0.00  0.00    +0.000 A 
ATOM      9  C   UNL     1       0.977   2.802  19.645  0.00  0.00    +0.000 A 
ATOM     10  C   UNL     1       1.870   3.413  20.528  0.00  0.00    +0.000 A 
ATOM     11  C   UNL     1       1.978   2.953  21.952  0.00  0.00    +0.000 C 
ATOM     12  C   UNL     1       2.677   4.469  20.073  0.00  0.00    +0.000 A 
ENDBRANCH   5   6
BRANCH   4  13
ATOM     13  S   UNL     1       1.616   8.083  18.672  0.00  0.00    +0.000 S 
ATOM     14  H   UNL     1       1.593   7.526  19.891  0.00  0.00    +0.000 HD
ENDBRANCH   4  13
BRANCH   1  15
ATOM     15  C   UNL     1       5.550   4.700  17.698  0.00  0.00    +0.000 C 
BRANCH  15  18
ATOM     16  C   UNL     1       6.711   4.892  15.573  0.00  0.00    +0.000 C 
ATOM     17  O   UNL     1       7.538   5.655  16.058  0.00  0.00    +0.000 OA
ATOM     18  N   UNL     1       5.693   4.329  16.311  0.00  0.00    +0.000 N 
ATOM     19  H   UNL     1       5.091   3.602  15.942  0.00  0.00    +0.000 HD
BRANCH  16  24
ATOM     20  C   UNL     1       6.084   3.195  12.243  0.00  0.00    +0.000 A 
ATOM     21  C   UNL     1       6.954   3.925  11.426  0.00  0.00    +0.000 A 
ATOM     22  C   UNL     1       7.724   4.964  11.951  0.00  0.00    +0.000 A 
ATOM     23  C   UNL     1       7.635   5.270  13.307  0.00  0.00    +0.000 A 
ATOM     24  C   UNL     1       6.786   4.528  14.137  0.00  0.00    +0.000 A 
ATOM     25  C   UNL     1       5.995   3.504  13.600  0.00  0.00    +0.000 A 
BRANCH  20  27
ATOM     26  C   UNL     1       6.119   1.086  11.143  0.00  0.00    +0.000 C 
ATOM     27  O   UNL     1       5.380   2.214  11.598  0.00  0.00    +0.000 OA
ENDBRANCH  20  27
ENDBRANCH  16  24
ENDBRANCH  15  18
ENDBRANCH   1  15
TORSDOF 6
ENDMDL
