MODEL 1
REMARK VINA RESULT:      -7.0      0.000      0.000
REMARK  Name = 
REMARK  6 active torsions:
REMARK  status: ('A' for Active; 'I' for Inactive)
REMARK    1  A    between atoms: C_1  and  C_2
REMARK    2  A    between atoms: C_2  and  C_3
REMARK    3  A    between atoms: C_12  and  C_13
REMARK    4  A    between atoms: C_16  and  C_17
REMARK    5  A    between atoms: N_21  and  C_22
REMARK    6  A    between atoms: C_22  and  C_23
REMARK                            x       y       z     vdW  Elec       q    Type
REMARK                         _______ _______ _______ _____ _____    ______ ____
ROOT
ATOM      1  C   UNL     1      -2.799  14.400  20.987  0.00  0.00    +0.000 C 
ATOM      2  C   UNL     1      -3.148  13.050  21.637  0.00  0.00    +0.000 C 
ATOM      3  C   UNL     1      -2.729  13.034  23.108  0.00  0.00    +0.000 C 
ATOM      4  C   UNL     1      -1.308  12.444  23.127  0.00  0.00    +0.000 C 
ATOM      5  N   UNL     1      -1.136  11.731  21.854  0.00  0.00    +0.000 N 
ATOM      6  C   UNL     1      -0.308  10.627  21.837  0.00  0.00    +0.000 A 
ATOM      7  N   UNL     1       0.358  10.109  22.850  0.00  0.00    +0.000 NA
ATOM      8  N   UNL     1       1.114   9.043  22.411  0.00  0.00    +0.000 NA
ATOM      9  C   UNL     1       0.938   8.891  21.109  0.00  0.00    +0.000 A 
ATOM     10  N   UNL     1       0.058   9.903  20.709  0.00  0.00    +0.000 N 
ATOM     11  C   UNL     1      -2.369  11.847  21.064  0.00  0.00    +0.000 C 
ENDROOT
BRANCH   9  12
ATOM     12  C   UNL     1       1.590   7.831  20.278  0.00  0.00    +0.000 A 
ATOM     13  C   UNL     1       2.157   8.071  19.017  0.00  0.00    +0.000 A 
ATOM     14  C   UNL     1       2.725   7.079  18.213  0.00  0.00    +0.000 A 
ATOM     15  C   UNL     1       2.733   5.769  18.641  0.00  0.00    +0.000 A 
ATOM     16  C   UNL     1       2.192   5.477  19.900  0.00  0.00    +0.000 A 
ATOM     17  C   UNL     1       1.623   6.492  20.700  0.00  0.00    +0.000 A 
BRANCH  15  18
ATOM     18  C   UNL     1       3.283   4.754  17.787  0.00  0.00    +0.000 C 
ATOM     19  N   UNL     1       3.738   3.963  17.070  0.00  0.00    +0.000 NA
ENDBRANCH  15  18
ENDBRANCH   9  12
BRANCH   2  20
ATOM     20  C   UNL     1      -4.627  12.792  21.367  0.00  0.00    +0.000 C 
ATOM     21  N   UNL     1      -5.437  12.567  22.436  0.00  0.00    +0.000 N 
ATOM     22  O   UNL     1      -5.126  12.900  20.250  0.00  0.00    +0.000 OA
ATOM     23  H   UNL     1      -6.410  12.371  22.227  0.00  0.00    +0.000 HD
ATOM     24  H   UNL     1      -5.090  12.289  23.342  0.00  0.00    +0.000 HD
ENDBRANCH   2  20
BRANCH  10  25
ATOM     25  C   UNL     1      -0.307  10.220  19.344  0.00  0.00    +0.000 C 
BRANCH  25  26
ATOM     26  C   UNL     1       0.443  11.410  18.856  0.00  0.00    +0.000 A 
ATOM     27  C   UNL     1       1.780  11.776  18.841  0.00  0.00    +0.000 A 
ATOM     28  C   UNL     1       1.810  13.170  18.584  0.00  0.00    +0.000 A 
ATOM     29  C   UNL     1       0.503  13.550  18.389  0.00  0.00    +0.000 A 
ATOM     30  O   UNL     1      -0.330  12.488  18.540  0.00  0.00    +0.000 OA
ENDBRANCH  25  26
ENDBRANCH  10  25
TORSDOF 5
ENDMDL
MODEL 2
REMARK VINA RESULT:      -6.9      2.157      2.994
REMARK  Name = 
REMARK  6 active torsions:
REMARK  status: ('A' for Active; 'I' for Inactive)
REMARK    1  A    between atoms: C_1  and  C_2
REMARK    2  A    between atoms: C_2  and  C_3
REMARK    3  A    between atoms: C_12  and  C_13
REMARK    4  A    between atoms: C_16  and  C_17
REMARK    5  A    between atoms: N_21  and  C_22
REMARK    6  A    between atoms: C_22  and  C_23
REMARK                            x       y       z     vdW  Elec       q    Type
REMARK                         _______ _______ _______ _____ _____    ______ ____
ROOT
ATOM      1  C   UNL     1      -5.152  14.100  20.257  0.00  0.00    +0.000 C 
ATOM      2  C   UNL     1      -4.166  13.725  21.377  0.00  0.00    +0.000 C 
ATOM      3  C   UNL     1      -3.188  14.870  21.644  0.00  0.00    +0.000 C 
ATOM      4  C   UNL     1      -1.967  14.587  20.753  0.00  0.00    +0.000 C 
ATOM      5  N   UNL     1      -2.031  13.162  20.399  0.00  0.00    +0.000 N 
ATOM      6  C   UNL     1      -0.843  12.492  20.192  0.00  0.00    +0.000 A 
ATOM      7  N   UNL     1       0.379  12.979  20.285  0.00  0.00    +0.000 NA
ATOM      8  N   UNL     1       1.294  12.004  19.949  0.00  0.00    +0.000 NA
ATOM      9  C   UNL     1       0.649  10.895  19.625  0.00  0.00    +0.000 A 
ATOM     10  N   UNL     1      -0.715  11.182  19.745  0.00  0.00    +0.000 N 
ATOM     11  C   UNL     1      -3.216  12.561  21.026  0.00  0.00    +0.000 C 
ENDROOT
BRANCH   9  12
ATOM     12  C   UNL     1       1.307   9.616  19.211  0.00  0.00    +0.000 A 
ATOM     13  C   UNL     1       1.502   8.527  20.074  0.00  0.00    +0.000 A 
ATOM     14  C   UNL     1       2.157   7.347  19.710  0.00  0.00    +0.000 A 
ATOM     15  C   UNL     1       2.673   7.213  18.439  0.00  0.00    +0.000 A 
ATOM     16  C   UNL     1       2.492   8.265  17.533  0.00  0.00    +0.000 A 
ATOM     17  C   UNL     1       1.827   9.450  17.917  0.00  0.00    +0.000 A 
BRANCH  15  18
ATOM     18  C   UNL     1       3.379   6.012  18.092  0.00  0.00    +0.000 C 
ATOM     19  N   UNL     1       3.932   5.023  17.842  0.00  0.00    +0.000 NA
ENDBRANCH  15  18
ENDBRANCH   9  12
BRANCH   2  20
ATOM     20  C   UNL     1      -4.999  13.273  22.573  0.00  0.00    +0.000 C 
ATOM     21  N   UNL     1      -5.909  12.281  22.373  0.00  0.00    +0.000 N 
ATOM     22  O   UNL     1      -4.797  13.679  23.714  0.00  0.00    +0.000 OA
ATOM     23  H   UNL     1      -6.468  12.019  23.177  0.00  0.00    +0.000 HD
ATOM     24  H   UNL     1      -6.256  12.026  21.460  0.00  0.00    +0.000 HD
ENDBRANCH   2  20
BRANCH  10  25
ATOM     25  C   UNL     1      -1.804  10.313  19.350  0.00  0.00    +0.000 C 
BRANCH  25  26
ATOM     26  C   UNL     1      -2.236  10.602  17.955  0.00  0.00    +0.000 A 
ATOM     27  C   UNL     1      -3.167  11.455  17.383  0.00  0.00    +0.000 A 
ATOM     28  C   UNL     1      -3.365  10.999  16.056  0.00  0.00    +0.000 A 
ATOM     29  C   UNL     1      -2.496   9.947  15.880  0.00  0.00    +0.000 A 
ATOM     30  O   UNL     1      -1.800   9.708  17.021  0.00  0.00    +0.000 OA
ENDBRANCH  25  26
ENDBRANCH  10  25
TORSDOF 5
ENDMDL
MODEL 3
REMARK VINA RESULT:      -6.8      0.445      1.002
REMARK  Name = 
REMARK  6 active torsions:
REMARK  status: ('A' for Active; 'I' for Inactive)
REMARK    1  A    between atoms: C_1  and  C_2
REMARK    2  A    between atoms: C_2  and  C_3
REMARK    3  A    between atoms: C_12  and  C_13
REMARK    4  A    between atoms: C_16  and  C_17
REMARK    5  A    between atoms: N_21  and  C_22
REMARK    6  A    between atoms: C_22  and  C_23
REMARK                            x       y       z     vdW  Elec       q    Type
REMARK                         _______ _______ _______ _____ _____    ______ ____
ROOT
ATOM      1  C   UNL     1      -2.311  14.599  20.741  0.00  0.00    +0.000 C 
ATOM      2  C   UNL     1      -2.748  13.296  21.434  0.00  0.00    +0.000 C 
ATOM      3  C   UNL     1      -2.324  13.297  22.903  0.00  0.00    +0.000 C 
ATOM      4  C   UNL     1      -0.946  12.612  22.936  0.00  0.00    +0.000 C 
ATOM      5  N   UNL     1      -0.830  11.851  21.684  0.00  0.00    +0.000 N 
ATOM      6  C   UNL     1      -0.080  10.693  21.698  0.00  0.00    +0.000 A 
ATOM      7  N   UNL     1       0.556  10.161  22.725  0.00  0.00    +0.000 NA
ATOM      8  N   UNL     1       1.234   9.033  22.317  0.00  0.00    +0.000 NA
ATOM      9  C   UNL     1       1.042   8.854  21.020  0.00  0.00    +0.000 A 
ATOM     10  N   UNL     1       0.230   9.911  20.593  0.00  0.00    +0.000 N 
ATOM     11  C   UNL     1      -2.057  12.026  20.895  0.00  0.00    +0.000 C 
ENDROOT
BRANCH   9  12
ATOM     12  C   UNL     1       1.615   7.727  20.220  0.00  0.00    +0.000 A 
ATOM     13  C   UNL     1       1.640   6.395  20.661  0.00  0.00    +0.000 A 
ATOM     14  C   UNL     1       2.216   5.343  19.942  0.00  0.00    +0.000 A 
ATOM     15  C   UNL     1       2.822   5.592  18.729  0.00  0.00    +0.000 A 
ATOM     16  C   UNL     1       2.811   6.902  18.236  0.00  0.00    +0.000 A 
ATOM     17  C   UNL     1       2.224   7.953  18.975  0.00  0.00    +0.000 A 
BRANCH  15  18
ATOM     18  C   UNL     1       3.445   4.509  18.022  0.00  0.00    +0.000 C 
ATOM     19  N   UNL     1       3.927   3.608  17.472  0.00  0.00    +0.000 NA
ENDBRANCH  15  18
ENDBRANCH   9  12
BRANCH   2  20
ATOM     20  C   UNL     1      -4.243  13.132  21.176  0.00  0.00    +0.000 C 
ATOM     21  N   UNL     1      -4.984  12.496  22.124  0.00  0.00    +0.000 N 
ATOM     22  O   UNL     1      -4.813  13.650  20.220  0.00  0.00    +0.000 OA
ATOM     23  H   UNL     1      -5.969  12.376  21.916  0.00  0.00    +0.000 HD
ATOM     24  H   UNL     1      -4.580  11.900  22.831  0.00  0.00    +0.000 HD
ENDBRANCH   2  20
BRANCH  10  25
ATOM     25  C   UNL     1      -0.120  10.211  19.219  0.00  0.00    +0.000 C 
BRANCH  25  26
ATOM     26  C   UNL     1       0.751  11.286  18.671  0.00  0.00    +0.000 A 
ATOM     27  C   UNL     1       2.100  11.381  18.363  0.00  0.00    +0.000 A 
ATOM     28  C   UNL     1       2.384  12.764  18.232  0.00  0.00    +0.000 A 
ATOM     29  C   UNL     1       1.185  13.417  18.398  0.00  0.00    +0.000 A 
ATOM     30  O   UNL     1       0.189  12.529  18.653  0.00  0.00    +0.000 OA
ENDBRANCH  25  26
ENDBRANCH  10  25
TORSDOF 5
ENDMDL
MODEL 4
REMARK VINA RESULT:      -6.8      2.879      8.394
REMARK  Name = 
REMARK  6 active torsions:
REMARK  status: ('A' for Active; 'I' for Inactive)
REMARK    1  A    between atoms: C_1  and  C_2
REMARK    2  A    between atoms: C_2  and  C_3
REMARK    3  A    between atoms: C_12  and  C_13
REMARK    4  A    between atoms: C_16  and  C_17
REMARK    5  A    between atoms: N_21  and  C_22
REMARK    6  A    between atoms: C_22  and  C_23
REMARK                            x       y       z     vdW  Elec       q    Type
REMARK                         _______ _______ _______ _____ _____    ______ ____
ROOT
ATOM      1  C   UNL     1       4.328   3.514  19.673  0.00  0.00    +0.000 C 
ATOM      2  C   UNL     1       3.541   3.925  18.416  0.00  0.00    +0.000 C 
ATOM      3  C   UNL     1       4.482   4.488  17.350  0.00  0.00    +0.000 C 
ATOM      4  C   UNL     1       4.509   6.009  17.583  0.00  0.00    +0.000 C 
ATOM      5  N   UNL     1       3.313   6.329  18.375  0.00  0.00    +0.000 N 
ATOM      6  C   UNL     1       2.731   7.568  18.198  0.00  0.00    +0.000 A 
ATOM      7  N   UNL     1       3.116   8.524  17.374  0.00  0.00    +0.000 NA
ATOM      8  N   UNL     1       2.305   9.627  17.534  0.00  0.00    +0.000 NA
ATOM      9  C   UNL     1       1.409   9.377  18.475  0.00  0.00    +0.000 A 
ATOM     10  N   UNL     1       1.672   8.082  18.935  0.00  0.00    +0.000 N 
ATOM     11  C   UNL     1       2.559   5.095  18.634  0.00  0.00    +0.000 C 
ENDROOT
BRANCH   9  12
ATOM     12  C   UNL     1       0.352  10.336  18.922  0.00  0.00    +0.000 A 
ATOM     13  C   UNL     1       0.598  11.421  19.777  0.00  0.00    +0.000 A 
ATOM     14  C   UNL     1      -0.392  12.294  20.239  0.00  0.00    +0.000 A 
ATOM     15  C   UNL     1      -1.705  12.101  19.868  0.00  0.00    +0.000 A 
ATOM     16  C   UNL     1      -2.003  11.041  19.003  0.00  0.00    +0.000 A 
ATOM     17  C   UNL     1      -0.991  10.168  18.546  0.00  0.00    +0.000 A 
BRANCH  15  18
ATOM     18  C   UNL     1      -2.716  12.981  20.383  0.00  0.00    +0.000 C 
ATOM     19  N   UNL     1      -3.548  13.661  20.820  0.00  0.00    +0.000 NA
ENDBRANCH  15  18
ENDBRANCH   9  12
BRANCH   2  20
ATOM     20  C   UNL     1       2.709   2.719  17.994  0.00  0.00    +0.000 C 
ATOM     21  N   UNL     1       3.263   1.484  18.139  0.00  0.00    +0.000 N 
ATOM     22  O   UNL     1       1.533   2.810  17.650  0.00  0.00    +0.000 OA
ATOM     23  H   UNL     1       2.699   0.702  17.826  0.00  0.00    +0.000 HD
ATOM     24  H   UNL     1       4.256   1.334  18.239  0.00  0.00    +0.000 HD
ENDBRANCH   2  20
BRANCH  10  25
ATOM     25  C   UNL     1       1.038   7.438  20.067  0.00  0.00    +0.000 C 
BRANCH  25  26
ATOM     26  C   UNL     1       0.822   8.406  21.177  0.00  0.00    +0.000 A 
ATOM     27  C   UNL     1       1.646   9.006  22.117  0.00  0.00    +0.000 A 
ATOM     28  C   UNL     1       0.793   9.531  23.120  0.00  0.00    +0.000 A 
ATOM     29  C   UNL     1      -0.492   9.282  22.697  0.00  0.00    +0.000 A 
ATOM     30  O   UNL     1      -0.483   8.612  21.515  0.00  0.00    +0.000 OA
ENDBRANCH  25  26
ENDBRANCH  10  25
TORSDOF 5
ENDMDL
MODEL 5
REMARK VINA RESULT:      -6.8      1.038      1.422
REMARK  Name = 
REMARK  6 active torsions:
REMARK  status: ('A' for Active; 'I' for Inactive)
REMARK    1  A    between atoms: C_1  and  C_2
REMARK    2  A    between atoms: C_2  and  C_3
REMARK    3  A    between atoms: C_12  and  C_13
REMARK    4  A    between atoms: C_16  and  C_17
REMARK    5  A    between atoms: N_21  and  C_22
REMARK    6  A    between atoms: C_22  and  C_23
REMARK                            x       y       z     vdW  Elec       q    Type
REMARK                         _______ _______ _______ _____ _____    ______ ____
ROOT
ATOM      1  C   UNL     1      -3.651  14.921  21.379  0.00  0.00    +0.000 C 
ATOM      2  C   UNL     1      -3.905  13.521  21.965  0.00  0.00    +0.000 C 
ATOM      3  C   UNL     1      -3.474  13.462  23.431  0.00  0.00    +0.000 C 
ATOM      4  C   UNL     1      -2.017  12.968  23.415  0.00  0.00    +0.000 C 
ATOM      5  N   UNL     1      -1.809  12.330  22.109  0.00  0.00    +0.000 N 
ATOM      6  C   UNL     1      -0.910  11.285  22.034  0.00  0.00    +0.000 A 
ATOM      7  N   UNL     1      -0.202  10.765  23.018  0.00  0.00    +0.000 NA
ATOM      8  N   UNL     1       0.619   9.773  22.525  0.00  0.00    +0.000 NA
ATOM      9  C   UNL     1       0.443   9.673  21.217  0.00  0.00    +0.000 A 
ATOM     10  N   UNL     1      -0.506  10.641  20.871  0.00  0.00    +0.000 N 
ATOM     11  C   UNL     1      -3.053  12.401  21.331  0.00  0.00    +0.000 C 
ENDROOT
BRANCH   9  12
ATOM     12  C   UNL     1       1.157   8.699  20.333  0.00  0.00    +0.000 A 
ATOM     13  C   UNL     1       1.532   7.410  20.741  0.00  0.00    +0.000 A 
ATOM     14  C   UNL     1       2.241   6.511  19.939  0.00  0.00    +0.000 A 
ATOM     15  C   UNL     1       2.628   6.881  18.669  0.00  0.00    +0.000 A 
ATOM     16  C   UNL     1       2.265   8.152  18.207  0.00  0.00    +0.000 A 
ATOM     17  C   UNL     1       1.548   9.048  19.031  0.00  0.00    +0.000 A 
BRANCH  15  18
ATOM     18  C   UNL     1       3.391   5.962  17.872  0.00  0.00    +0.000 C 
ATOM     19  N   UNL     1       3.997   5.191  17.252  0.00  0.00    +0.000 NA
ENDBRANCH  15  18
ENDBRANCH   9  12
BRANCH   2  20
ATOM     20  C   UNL     1      -5.366  13.178  21.689  0.00  0.00    +0.000 C 
ATOM     21  N   UNL     1      -5.645  11.940  21.199  0.00  0.00    +0.000 N 
ATOM     22  O   UNL     1      -6.292  13.921  22.003  0.00  0.00    +0.000 OA
ATOM     23  H   UNL     1      -6.620  11.748  20.999  0.00  0.00    +0.000 HD
ATOM     24  H   UNL     1      -4.954  11.353  20.757  0.00  0.00    +0.000 HD
ENDBRANCH   2  20
BRANCH  10  25
ATOM     25  C   UNL     1      -0.902  10.999  19.524  0.00  0.00    +0.000 C 
BRANCH  25  26
ATOM     26  C   UNL     1      -0.181  12.217  19.064  0.00  0.00    +0.000 A 
ATOM     27  C   UNL     1       1.143  12.628  19.083  0.00  0.00    +0.000 A 
ATOM     28  C   UNL     1       1.131  14.024  18.838  0.00  0.00    +0.000 A 
ATOM     29  C   UNL     1      -0.183  14.363  18.618  0.00  0.00    +0.000 A 
ATOM     30  O   UNL     1      -0.983  13.272  18.741  0.00  0.00    +0.000 OA
ENDBRANCH  25  26
ENDBRANCH  10  25
TORSDOF 5
ENDMDL
MODEL 6
REMARK VINA RESULT:      -6.8      0.922      1.029
REMARK  Name = 
REMARK  6 active torsions:
REMARK  status: ('A' for Active; 'I' for Inactive)
REMARK    1  A    between atoms: C_1  and  C_2
REMARK    2  A    between atoms: C_2  and  C_3
REMARK    3  A    between atoms: C_12  and  C_13
REMARK    4  A    between atoms: C_16  and  C_17
REMARK    5  A    between atoms: N_21  and  C_22
REMARK    6  A    between atoms: C_22  and  C_23
REMARK                            x       y       z     vdW  Elec       q    Type
REMARK                         _______ _______ _______ _____ _____    ______ ____
ROOT
ATOM      1  C   UNL     1      -2.300  14.763  21.021  0.00  0.00    +0.000 C 
ATOM      2  C   UNL     1      -2.841  13.405  21.504  0.00  0.00    +0.000 C 
ATOM      3  C   UNL     1      -2.621  13.240  23.008  0.00  0.00    +0.000 C 
ATOM      4  C   UNL     1      -1.269  12.522  23.152  0.00  0.00    +0.000 C 
ATOM      5  N   UNL     1      -0.990  11.894  21.854  0.00  0.00    +0.000 N 
ATOM      6  C   UNL     1      -0.260  10.723  21.843  0.00  0.00    +0.000 A 
ATOM      7  N   UNL     1       0.223  10.070  22.883  0.00  0.00    +0.000 NA
ATOM      8  N   UNL     1       0.939   8.975  22.451  0.00  0.00    +0.000 NA
ATOM      9  C   UNL     1       0.924   8.939  21.128  0.00  0.00    +0.000 A 
ATOM     10  N   UNL     1       0.190  10.054  20.712  0.00  0.00    +0.000 N 
ATOM     11  C   UNL     1      -2.095  12.183  20.930  0.00  0.00    +0.000 C 
ENDROOT
BRANCH   9  12
ATOM     12  C   UNL     1       1.590   7.889  20.296  0.00  0.00    +0.000 A 
ATOM     13  C   UNL     1       2.127   8.131  19.022  0.00  0.00    +0.000 A 
ATOM     14  C   UNL     1       2.708   7.147  18.217  0.00  0.00    +0.000 A 
ATOM     15  C   UNL     1       2.761   5.842  18.659  0.00  0.00    +0.000 A 
ATOM     16  C   UNL     1       2.252   5.549  19.930  0.00  0.00    +0.000 A 
ATOM     17  C   UNL     1       1.669   6.556  20.731  0.00  0.00    +0.000 A 
BRANCH  15  18
ATOM     18  C   UNL     1       3.323   4.835  17.804  0.00  0.00    +0.000 C 
ATOM     19  N   UNL     1       3.805   4.013  17.141  0.00  0.00    +0.000 NA
ENDBRANCH  15  18
ENDBRANCH   9  12
BRANCH   2  20
ATOM     20  C   UNL     1      -4.288  13.307  21.030  0.00  0.00    +0.000 C 
ATOM     21  N   UNL     1      -4.529  13.440  19.697  0.00  0.00    +0.000 N 
ATOM     22  O   UNL     1      -5.211  12.995  21.777  0.00  0.00    +0.000 OA
ATOM     23  H   UNL     1      -5.501  13.398  19.413  0.00  0.00    +0.000 HD
ATOM     24  H   UNL     1      -3.874  13.865  19.058  0.00  0.00    +0.000 HD
ENDBRANCH   2  20
BRANCH  10  25
ATOM     25  C   UNL     1       0.035  10.507  19.344  0.00  0.00    +0.000 C 
BRANCH  25  26
ATOM     26  C   UNL     1       0.968  11.627  19.045  0.00  0.00    +0.000 A 
ATOM     27  C   UNL     1       0.885  13.009  19.128  0.00  0.00    +0.000 A 
ATOM     28  C   UNL     1       1.958  13.521  18.357  0.00  0.00    +0.000 A 
ATOM     29  C   UNL     1       2.664  12.428  17.913  0.00  0.00    +0.000 A 
ATOM     30  O   UNL     1       2.078  11.277  18.335  0.00  0.00    +0.000 OA
ENDBRANCH  25  26
ENDBRANCH  10  25
TORSDOF 5
ENDMDL
MODEL 7
REMARK VINA RESULT:      -6.6      1.387      1.848
REMARK  Name = 
REMARK  6 active torsions:
REMARK  status: ('A' for Active; 'I' for Inactive)
REMARK    1  A    between atoms: C_1  and  C_2
REMARK    2  A    between atoms: C_2  and  C_3
REMARK    3  A    between atoms: C_12  and  C_13
REMARK    4  A    between atoms: C_16  and  C_17
REMARK    5  A    between atoms: N_21  and  C_22
REMARK    6  A    between atoms: C_22  and  C_23
REMARK                            x       y       z     vdW  Elec       q    Type
REMARK                         _______ _______ _______ _____ _____    ______ ____
ROOT
ATOM      1  C   UNL     1      -2.096  15.482  21.417  0.00  0.00    +0.000 C 
ATOM      2  C   UNL     1      -2.791  14.129  21.653  0.00  0.00    +0.000 C 
ATOM      3  C   UNL     1      -2.801  13.778  23.141  0.00  0.00    +0.000 C 
ATOM      4  C   UNL     1      -1.535  12.937  23.377  0.00  0.00    +0.000 C 
ATOM      5  N   UNL     1      -1.116  12.438  22.060  0.00  0.00    +0.000 N 
ATOM      6  C   UNL     1      -0.473  11.218  22.005  0.00  0.00    +0.000 A 
ATOM      7  N   UNL     1      -0.189  10.415  23.012  0.00  0.00    +0.000 NA
ATOM      8  N   UNL     1       0.507   9.318  22.549  0.00  0.00    +0.000 NA
ATOM      9  C   UNL     1       0.679   9.432  21.242  0.00  0.00    +0.000 A 
ATOM     10  N   UNL     1       0.089  10.645  20.870  0.00  0.00    +0.000 N 
ATOM     11  C   UNL     1      -2.055  12.920  21.038  0.00  0.00    +0.000 C 
ENDROOT
BRANCH   9  12
ATOM     12  C   UNL     1       1.386   8.430  20.384  0.00  0.00    +0.000 A 
ATOM     13  C   UNL     1       1.833   8.699  19.082  0.00  0.00    +0.000 A 
ATOM     14  C   UNL     1       2.451   7.756  18.256  0.00  0.00    +0.000 A 
ATOM     15  C   UNL     1       2.634   6.466  18.704  0.00  0.00    +0.000 A 
ATOM     16  C   UNL     1       2.218   6.147  20.003  0.00  0.00    +0.000 A 
ATOM     17  C   UNL     1       1.596   7.114  20.825  0.00  0.00    +0.000 A 
BRANCH  15  18
ATOM     18  C   UNL     1       3.232   5.497  17.830  0.00  0.00    +0.000 C 
ATOM     19  N   UNL     1       3.687   4.689  17.132  0.00  0.00    +0.000 NA
ENDBRANCH  15  18
ENDBRANCH   9  12
BRANCH   2  20
ATOM     20  C   UNL     1      -4.158  14.205  20.980  0.00  0.00    +0.000 C 
ATOM     21  N   UNL     1      -4.443  15.316  20.248  0.00  0.00    +0.000 N 
ATOM     22  O   UNL     1      -4.949  13.266  20.974  0.00  0.00    +0.000 OA
ATOM     23  H   UNL     1      -5.368  15.354  19.834  0.00  0.00    +0.000 HD
ATOM     24  H   UNL     1      -3.940  16.185  20.346  0.00  0.00    +0.000 HD
ENDBRANCH   2  20
BRANCH  10  25
ATOM     25  C   UNL     1       0.163  11.259  19.560  0.00  0.00    +0.000 C 
BRANCH  25  26
ATOM     26  C   UNL     1      -1.027  10.905  18.739  0.00  0.00    +0.000 A 
ATOM     27  C   UNL     1      -1.663   9.717  18.411  0.00  0.00    +0.000 A 
ATOM     28  C   UNL     1      -2.504  10.005  17.307  0.00  0.00    +0.000 A 
ATOM     29  C   UNL     1      -2.383  11.356  17.077  0.00  0.00    +0.000 A 
ATOM     30  O   UNL     1      -1.500  11.910  17.948  0.00  0.00    +0.000 OA
ENDBRANCH  25  26
ENDBRANCH  10  25
TORSDOF 5
ENDMDL
MODEL 8
REMARK VINA RESULT:      -6.5      1.951      2.708
REMARK  Name = 
REMARK  6 active torsions:
REMARK  status: ('A' for Active; 'I' for Inactive)
REMARK    1  A    between atoms: C_1  and  C_2
REMARK    2  A    between atoms: C_2  and  C_3
REMARK    3  A    between atoms: C_12  and  C_13
REMARK    4  A    between atoms: C_16  and  C_17
REMARK    5  A    between atoms: N_21  and  C_22
REMARK    6  A    between atoms: C_22  and  C_23
REMARK                            x       y       z     vdW  Elec       q    Type
REMARK                         _______ _______ _______ _____ _____    ______ ____
ROOT
ATOM      1  C   UNL     1      -3.975  15.504  20.702  0.00  0.00    +0.000 C 
ATOM      2  C   UNL     1      -4.374  14.040  20.959  0.00  0.00    +0.000 C 
ATOM      3  C   UNL     1      -4.332  13.722  22.454  0.00  0.00    +0.000 C 
ATOM      4  C   UNL     1      -2.921  13.172  22.721  0.00  0.00    +0.000 C 
ATOM      5  N   UNL     1      -2.386  12.747  21.420  0.00  0.00    +0.000 N 
ATOM      6  C   UNL     1      -1.501  11.690  21.397  0.00  0.00    +0.000 A 
ATOM      7  N   UNL     1      -1.069  10.983  22.424  0.00  0.00    +0.000 NA
ATOM      8  N   UNL     1      -0.152  10.049  21.992  0.00  0.00    +0.000 NA
ATOM      9  C   UNL     1       0.013  10.173  20.685  0.00  0.00    +0.000 A 
ATOM     10  N   UNL     1      -0.814  11.227  20.281  0.00  0.00    +0.000 N 
ATOM     11  C   UNL     1      -3.390  13.002  20.378  0.00  0.00    +0.000 C 
ENDROOT
BRANCH   9  12
ATOM     12  C   UNL     1       0.927   9.326  19.856  0.00  0.00    +0.000 A 
ATOM     13  C   UNL     1       1.463   8.105  20.292  0.00  0.00    +0.000 A 
ATOM     14  C   UNL     1       2.355   7.330  19.545  0.00  0.00    +0.000 A 
ATOM     15  C   UNL     1       2.770   7.766  18.305  0.00  0.00    +0.000 A 
ATOM     16  C   UNL     1       2.253   8.972  17.816  0.00  0.00    +0.000 A 
ATOM     17  C   UNL     1       1.352   9.742  18.584  0.00  0.00    +0.000 A 
BRANCH  15  18
ATOM     18  C   UNL     1       3.718   6.980  17.566  0.00  0.00    +0.000 C 
ATOM     19  N   UNL     1       4.511   6.375  16.973  0.00  0.00    +0.000 NA
ENDBRANCH  15  18
ENDBRANCH   9  12
BRANCH   2  20
ATOM     20  C   UNL     1      -5.716  13.814  20.270  0.00  0.00    +0.000 C 
ATOM     21  N   UNL     1      -5.733  13.776  18.910  0.00  0.00    +0.000 N 
ATOM     22  O   UNL     1      -6.743  13.549  20.889  0.00  0.00    +0.000 OA
ATOM     23  H   UNL     1      -6.641  13.652  18.478  0.00  0.00    +0.000 HD
ATOM     24  H   UNL     1      -4.991  14.152  18.339  0.00  0.00    +0.000 HD
ENDBRANCH   2  20
BRANCH  10  25
ATOM     25  C   UNL     1      -0.852  11.819  18.959  0.00  0.00    +0.000 C 
BRANCH  25  26
ATOM     26  C   UNL     1      -1.851  11.131  18.097  0.00  0.00    +0.000 A 
ATOM     27  C   UNL     1      -2.358   9.842  18.035  0.00  0.00    +0.000 A 
ATOM     28  C   UNL     1      -2.994   9.722  16.774  0.00  0.00    +0.000 A 
ATOM     29  C   UNL     1      -2.897  10.958  16.179  0.00  0.00    +0.000 A 
ATOM     30  O   UNL     1      -2.217  11.821  16.979  0.00  0.00    +0.000 OA
ENDBRANCH  25  26
ENDBRANCH  10  25
TORSDOF 5
ENDMDL
MODEL 9
REMARK VINA RESULT:      -6.5      1.293      1.668
REMARK  Name = 
REMARK  6 active torsions:
REMARK  status: ('A' for Active; 'I' for Inactive)
REMARK    1  A    between atoms: C_1  and  C_2
REMARK    2  A    between atoms: C_2  and  C_3
REMARK    3  A    between atoms: C_12  and  C_13
REMARK    4  A    between atoms: C_16  and  C_17
REMARK    5  A    between atoms: N_21  and  C_22
REMARK    6  A    between atoms: C_22  and  C_23
REMARK                            x       y       z     vdW  Elec       q    Type
REMARK                         _______ _______ _______ _____ _____    ______ ____
ROOT
ATOM      1  C   UNL     1      -2.140  14.387  20.963  0.00  0.00    +0.000 C 
ATOM      2  C   UNL     1      -2.706  12.961  21.083  0.00  0.00    +0.000 C 
ATOM      3  C   UNL     1      -2.709  12.501  22.541  0.00  0.00    +0.000 C 
ATOM      4  C   UNL     1      -1.372  11.769  22.747  0.00  0.00    +0.000 C 
ATOM      5  N   UNL     1      -0.884  11.410  21.409  0.00  0.00    +0.000 N 
ATOM      6  C   UNL     1      -0.126  10.264  21.281  0.00  0.00    +0.000 A 
ATOM      7  N   UNL     1       0.216   9.418  22.234  0.00  0.00    +0.000 NA
ATOM      8  N   UNL     1       1.021   8.430  21.711  0.00  0.00    +0.000 NA
ATOM      9  C   UNL     1       1.205   8.656  20.420  0.00  0.00    +0.000 A 
ATOM     10  N   UNL     1       0.508   9.832  20.123  0.00  0.00    +0.000 N 
ATOM     11  C   UNL     1      -1.846  11.876  20.401  0.00  0.00    +0.000 C 
ENDROOT
BRANCH   9  12
ATOM     12  C   UNL     1       2.019   7.791  19.510  0.00  0.00    +0.000 A 
ATOM     13  C   UNL     1       2.358   6.461  19.800  0.00  0.00    +0.000 A 
ATOM     14  C   UNL     1       3.158   5.660  18.979  0.00  0.00    +0.000 A 
ATOM     15  C   UNL     1       3.679   6.177  17.813  0.00  0.00    +0.000 A 
ATOM     16  C   UNL     1       3.359   7.496  17.469  0.00  0.00    +0.000 A 
ATOM     17  C   UNL     1       2.548   8.291  18.310  0.00  0.00    +0.000 A 
BRANCH  15  18
ATOM     18  C   UNL     1       4.532   5.356  17.000  0.00  0.00    +0.000 C 
ATOM     19  N   UNL     1       5.213   4.717  16.313  0.00  0.00    +0.000 NA
ENDBRANCH  15  18
ENDBRANCH   9  12
BRANCH   2  20
ATOM     20  C   UNL     1      -4.062  12.958  20.384  0.00  0.00    +0.000 C 
ATOM     21  N   UNL     1      -4.095  12.629  19.064  0.00  0.00    +0.000 N 
ATOM     22  O   UNL     1      -5.120  13.118  20.987  0.00  0.00    +0.000 OA
ATOM     23  H   UNL     1      -5.004  12.661  18.618  0.00  0.00    +0.000 HD
ATOM     24  H   UNL     1      -3.281  12.659  18.468  0.00  0.00    +0.000 HD
ENDBRANCH   2  20
BRANCH  10  25
ATOM     25  C   UNL     1       0.545  10.546  18.863  0.00  0.00    +0.000 C 
BRANCH  25  26
ATOM     26  C   UNL     1       1.511  11.677  18.920  0.00  0.00    +0.000 A 
ATOM     27  C   UNL     1       1.582  12.857  19.646  0.00  0.00    +0.000 A 
ATOM     28  C   UNL     1       2.533  13.675  18.987  0.00  0.00    +0.000 A 
ATOM     29  C   UNL     1       3.030  12.922  17.948  0.00  0.00    +0.000 A 
ATOM     30  O   UNL     1       2.424  11.707  17.909  0.00  0.00    +0.000 OA
ENDBRANCH  25  26
ENDBRANCH  10  25
TORSDOF 5
ENDMDL
