MODEL 1
REMARK VINA RESULT:      -7.5      0.000      0.000
REMARK  Name = 
REMARK  4 active torsions:
REMARK  status: ('A' for Active; 'I' for Inactive)
REMARK    1  A    between atoms: C_1  and  O_2
REMARK    2  A    between atoms: O_2  and  C_3
REMARK    3  A    between atoms: C_7  and  N_8
REMARK    4  A    between atoms: C_12  and  C_14
REMARK                            x       y       z     vdW  Elec       q    Type
REMARK                         _______ _______ _______ _____ _____    ______ ____
ROOT
ATOM      1  N   UNL     1       2.174   7.421  19.787  0.00  0.00    +0.000 N 
ATOM      2  C   UNL     1       2.542   6.172  20.479  0.00  0.00    +0.000 C 
ATOM      3  C   UNL     1       2.487   4.980  19.499  0.00  0.00    +0.000 C 
ATOM      4  N   UNL     1       3.244   5.257  18.269  0.00  0.00    +0.000 N 
ATOM      5  C   UNL     1       4.253   4.374  17.902  0.00  0.00    +0.000 C 
ATOM      6  O   UNL     1       4.500   3.358  18.557  0.00  0.00    +0.000 OA
ATOM      7  C   UNL     1       2.782   6.481  17.589  0.00  0.00    +0.000 C 
ATOM      8  C   UNL     1       2.922   7.688  18.540  0.00  0.00    +0.000 C 
ENDROOT
BRANCH   5   9
ATOM      9  C   UNL     1       5.053   4.573  16.665  0.00  0.00    +0.000 A 
ATOM     10  C   UNL     1       6.205   5.361  16.768  0.00  0.00    +0.000 A 
ATOM     11  C   UNL     1       7.054   5.520  15.672  0.00  0.00    +0.000 A 
ATOM     12  C   UNL     1       6.775   4.873  14.461  0.00  0.00    +0.000 A 
ATOM     13  C   UNL     1       7.680   4.915  13.391  0.00  0.00    +0.000 A 
ATOM     14  C   UNL     1       7.402   4.246  12.199  0.00  0.00    +0.000 A 
ATOM     15  C   UNL     1       6.200   3.562  12.049  0.00  0.00    +0.000 A 
ATOM     16  C   UNL     1       5.281   3.524  13.100  0.00  0.00    +0.000 A 
ATOM     17  C   UNL     1       5.566   4.152  14.323  0.00  0.00    +0.000 A 
ATOM     18  C   UNL     1       4.693   4.051  15.420  0.00  0.00    +0.000 A 
ENDBRANCH   5   9
BRANCH   1  23
ATOM     19  C   UNL     1       0.008  10.421  20.142  0.00  0.00    +0.000 A 
ATOM     20  C   UNL     1      -0.481  10.243  21.434  0.00  0.00    +0.000 A 
ATOM     21  C   UNL     1      -0.116   9.120  22.167  0.00  0.00    +0.000 A 
ATOM     22  C   UNL     1       0.753   8.175  21.612  0.00  0.00    +0.000 A 
ATOM     23  C   UNL     1       1.276   8.323  20.319  0.00  0.00    +0.000 A 
ATOM     24  C   UNL     1       0.871   9.461  19.599  0.00  0.00    +0.000 A 
BRANCH  19  26
ATOM     25  C   UNL     1      -1.819  11.800  19.509  0.00  0.00    +0.000 C 
ATOM     26  O   UNL     1      -0.417  11.560  19.514  0.00  0.00    +0.000 OA
ENDBRANCH  19  26
ENDBRANCH   1  23
TORSDOF 3
ENDMDL
MODEL 2
REMARK VINA RESULT:      -7.3      3.785      5.657
REMARK  Name = 
REMARK  4 active torsions:
REMARK  status: ('A' for Active; 'I' for Inactive)
REMARK    1  A    between atoms: C_1  and  O_2
REMARK    2  A    between atoms: O_2  and  C_3
REMARK    3  A    between atoms: C_7  and  N_8
REMARK    4  A    between atoms: C_12  and  C_14
REMARK                            x       y       z     vdW  Elec       q    Type
REMARK                         _______ _______ _______ _____ _____    ______ ____
ROOT
ATOM      1  N   UNL     1      -0.490  11.091  20.172  0.00  0.00    +0.000 N 
ATOM      2  C   UNL     1       0.069  11.316  18.825  0.00  0.00    +0.000 C 
ATOM      3  C   UNL     1       1.502  10.748  18.737  0.00  0.00    +0.000 C 
ATOM      4  N   UNL     1       1.562   9.358  19.212  0.00  0.00    +0.000 N 
ATOM      5  C   UNL     1       2.072   8.388  18.355  0.00  0.00    +0.000 C 
ATOM      6  O   UNL     1       2.503   8.672  17.235  0.00  0.00    +0.000 OA
ATOM      7  C   UNL     1       1.053   9.212  20.588  0.00  0.00    +0.000 C 
ATOM      8  C   UNL     1      -0.411   9.696  20.656  0.00  0.00    +0.000 C 
ENDROOT
BRANCH   5   9
ATOM      9  C   UNL     1       2.182   6.964  18.765  0.00  0.00    +0.000 A 
ATOM     10  C   UNL     1       2.082   6.682  20.133  0.00  0.00    +0.000 A 
ATOM     11  C   UNL     1       2.086   5.363  20.586  0.00  0.00    +0.000 A 
ATOM     12  C   UNL     1       2.168   4.302  19.674  0.00  0.00    +0.000 A 
ATOM     13  C   UNL     1       2.044   2.970  20.096  0.00  0.00    +0.000 A 
ATOM     14  C   UNL     1       2.102   1.925  19.175  0.00  0.00    +0.000 A 
ATOM     15  C   UNL     1       2.326   2.195  17.829  0.00  0.00    +0.000 A 
ATOM     16  C   UNL     1       2.467   3.515  17.394  0.00  0.00    +0.000 A 
ATOM     17  C   UNL     1       2.363   4.581  18.301  0.00  0.00    +0.000 A 
ATOM     18  C   UNL     1       2.416   5.918  17.869  0.00  0.00    +0.000 A 
ENDBRANCH   5   9
BRANCH   1  23
ATOM     19  C   UNL     1      -1.250  13.566  22.838  0.00  0.00    +0.000 A 
ATOM     20  C   UNL     1      -2.484  14.047  22.409  0.00  0.00    +0.000 A 
ATOM     21  C   UNL     1      -3.043  13.572  21.228  0.00  0.00    +0.000 A 
ATOM     22  C   UNL     1      -2.371  12.602  20.477  0.00  0.00    +0.000 A 
ATOM     23  C   UNL     1      -1.132  12.085  20.881  0.00  0.00    +0.000 A 
ATOM     24  C   UNL     1      -0.587  12.601  22.070  0.00  0.00    +0.000 A 
BRANCH  19  26
ATOM     25  C   UNL     1      -1.698  14.946  24.719  0.00  0.00    +0.000 C 
ATOM     26  O   UNL     1      -0.795  14.104  24.012  0.00  0.00    +0.000 OA
ENDBRANCH  19  26
ENDBRANCH   1  23
TORSDOF 3
ENDMDL
MODEL 3
REMARK VINA RESULT:      -7.3      1.159      1.571
REMARK  Name = 
REMARK  4 active torsions:
REMARK  status: ('A' for Active; 'I' for Inactive)
REMARK    1  A    between atoms: C_1  and  O_2
REMARK    2  A    between atoms: O_2  and  C_3
REMARK    3  A    between atoms: C_7  and  N_8
REMARK    4  A    between atoms: C_12  and  C_14
REMARK                            x       y       z     vdW  Elec       q    Type
REMARK                         _______ _______ _______ _____ _____    ______ ____
ROOT
ATOM      1  N   UNL     1       1.868   8.360  19.527  0.00  0.00    +0.000 N 
ATOM      2  C   UNL     1       2.228   7.239  20.416  0.00  0.00    +0.000 C 
ATOM      3  C   UNL     1       2.218   5.909  19.634  0.00  0.00    +0.000 C 
ATOM      4  N   UNL     1       3.009   6.002  18.399  0.00  0.00    +0.000 N 
ATOM      5  C   UNL     1       4.040   5.089  18.203  0.00  0.00    +0.000 C 
ATOM      6  O   UNL     1       4.278   4.193  19.016  0.00  0.00    +0.000 OA
ATOM      7  C   UNL     1       2.555   7.098  17.522  0.00  0.00    +0.000 C 
ATOM      8  C   UNL     1       2.651   8.441  18.276  0.00  0.00    +0.000 C 
ENDROOT
BRANCH   5   9
ATOM      9  C   UNL     1       4.875   5.106  16.974  0.00  0.00    +0.000 A 
ATOM     10  C   UNL     1       6.070   5.835  17.021  0.00  0.00    +0.000 A 
ATOM     11  C   UNL     1       6.949   5.824  15.939  0.00  0.00    +0.000 A 
ATOM     12  C   UNL     1       6.657   5.065  14.798  0.00  0.00    +0.000 A 
ATOM     13  C   UNL     1       7.585   4.937  13.754  0.00  0.00    +0.000 A 
ATOM     14  C   UNL     1       7.293   4.158  12.635  0.00  0.00    +0.000 A 
ATOM     15  C   UNL     1       6.055   3.531  12.528  0.00  0.00    +0.000 A 
ATOM     16  C   UNL     1       5.114   3.661  13.552  0.00  0.00    +0.000 A 
ATOM     17  C   UNL     1       5.411   4.402  14.706  0.00  0.00    +0.000 A 
ATOM     18  C   UNL     1       4.511   4.471  15.784  0.00  0.00    +0.000 A 
ENDBRANCH   5   9
BRANCH   1  23
ATOM     19  C   UNL     1      -0.176  10.654  21.618  0.00  0.00    +0.000 A 
ATOM     20  C   UNL     1      -1.023  11.203  20.658  0.00  0.00    +0.000 A 
ATOM     21  C   UNL     1      -0.894  10.834  19.324  0.00  0.00    +0.000 A 
ATOM     22  C   UNL     1       0.079   9.903  18.948  0.00  0.00    +0.000 A 
ATOM     23  C   UNL     1       0.943   9.319  19.885  0.00  0.00    +0.000 A 
ATOM     24  C   UNL     1       0.797   9.728  21.222  0.00  0.00    +0.000 A 
BRANCH  19  26
ATOM     25  C   UNL     1      -1.199  12.251  23.048  0.00  0.00    +0.000 C 
ATOM     26  O   UNL     1      -0.392  11.089  22.898  0.00  0.00    +0.000 OA
ENDBRANCH  19  26
ENDBRANCH   1  23
TORSDOF 3
ENDMDL
MODEL 4
REMARK VINA RESULT:      -7.2      1.254      1.703
REMARK  Name = 
REMARK  4 active torsions:
REMARK  status: ('A' for Active; 'I' for Inactive)
REMARK    1  A    between atoms: C_1  and  O_2
REMARK    2  A    between atoms: O_2  and  C_3
REMARK    3  A    between atoms: C_7  and  N_8
REMARK    4  A    between atoms: C_12  and  C_14
REMARK                            x       y       z     vdW  Elec       q    Type
REMARK                         _______ _______ _______ _____ _____    ______ ____
ROOT
ATOM      1  N   UNL     1       1.410   8.866  19.685  0.00  0.00    +0.000 N 
ATOM      2  C   UNL     1       1.818   7.899  20.722  0.00  0.00    +0.000 C 
ATOM      3  C   UNL     1       1.943   6.485  20.117  0.00  0.00    +0.000 C 
ATOM      4  N   UNL     1       2.776   6.486  18.906  0.00  0.00    +0.000 N 
ATOM      5  C   UNL     1       3.881   5.643  18.862  0.00  0.00    +0.000 C 
ATOM      6  O   UNL     1       4.153   4.879  19.791  0.00  0.00    +0.000 OA
ATOM      7  C   UNL     1       2.275   7.422  17.882  0.00  0.00    +0.000 C 
ATOM      8  C   UNL     1       2.236   8.852  18.459  0.00  0.00    +0.000 C 
ENDROOT
BRANCH   5   9
ATOM      9  C   UNL     1       4.763   5.574  17.668  0.00  0.00    +0.000 A 
ATOM     10  C   UNL     1       5.988   6.249  17.737  0.00  0.00    +0.000 A 
ATOM     11  C   UNL     1       6.907   6.155  16.692  0.00  0.00    +0.000 A 
ATOM     12  C   UNL     1       6.625   5.366  15.570  0.00  0.00    +0.000 A 
ATOM     13  C   UNL     1       7.586   5.155  14.570  0.00  0.00    +0.000 A 
ATOM     14  C   UNL     1       7.300   4.347  13.470  0.00  0.00    +0.000 A 
ATOM     15  C   UNL     1       6.040   3.773  13.336  0.00  0.00    +0.000 A 
ATOM     16  C   UNL     1       5.067   3.986  14.315  0.00  0.00    +0.000 A 
ATOM     17  C   UNL     1       5.353   4.758  15.452  0.00  0.00    +0.000 A 
ATOM     18  C   UNL     1       4.416   4.910  16.489  0.00  0.00    +0.000 A 
ENDBRANCH   5   9
BRANCH   1  23
ATOM     19  C   UNL     1      -1.356  11.249  18.988  0.00  0.00    +0.000 A 
ATOM     20  C   UNL     1      -1.604  11.747  20.264  0.00  0.00    +0.000 A 
ATOM     21  C   UNL     1      -0.877  11.272  21.349  0.00  0.00    +0.000 A 
ATOM     22  C   UNL     1       0.112  10.302  21.158  0.00  0.00    +0.000 A 
ATOM     23  C   UNL     1       0.399   9.783  19.887  0.00  0.00    +0.000 A 
ATOM     24  C   UNL     1      -0.367  10.273  18.815  0.00  0.00    +0.000 A 
BRANCH  19  26
ATOM     25  C   UNL     1      -3.267  11.033  17.594  0.00  0.00    +0.000 C 
ATOM     26  O   UNL     1      -2.129  11.788  17.995  0.00  0.00    +0.000 OA
ENDBRANCH  19  26
ENDBRANCH   1  23
TORSDOF 3
ENDMDL
MODEL 5
REMARK VINA RESULT:      -7.2      3.578      5.740
REMARK  Name = 
REMARK  4 active torsions:
REMARK  status: ('A' for Active; 'I' for Inactive)
REMARK    1  A    between atoms: C_1  and  O_2
REMARK    2  A    between atoms: O_2  and  C_3
REMARK    3  A    between atoms: C_7  and  N_8
REMARK    4  A    between atoms: C_12  and  C_14
REMARK                            x       y       z     vdW  Elec       q    Type
REMARK                         _______ _______ _______ _____ _____    ______ ____
ROOT
ATOM      1  N   UNL     1      -0.224  10.720  20.849  0.00  0.00    +0.000 N 
ATOM      2  C   UNL     1      -0.042  11.033  19.420  0.00  0.00    +0.000 C 
ATOM      3  C   UNL     1       1.384  10.652  18.965  0.00  0.00    +0.000 C 
ATOM      4  N   UNL     1       1.724   9.275  19.350  0.00  0.00    +0.000 N 
ATOM      5  C   UNL     1       2.122   8.390  18.354  0.00  0.00    +0.000 C 
ATOM      6  O   UNL     1       2.230   8.741  17.177  0.00  0.00    +0.000 OA
ATOM      7  C   UNL     1       1.586   9.047  20.800  0.00  0.00    +0.000 C 
ATOM      8  C   UNL     1       0.137   9.341  21.238  0.00  0.00    +0.000 C 
ENDROOT
BRANCH   5   9
ATOM      9  C   UNL     1       2.499   6.985  18.662  0.00  0.00    +0.000 A 
ATOM     10  C   UNL     1       3.553   6.429  17.928  0.00  0.00    +0.000 A 
ATOM     11  C   UNL     1       4.022   5.149  18.222  0.00  0.00    +0.000 A 
ATOM     12  C   UNL     1       3.458   4.412  19.271  0.00  0.00    +0.000 A 
ATOM     13  C   UNL     1       3.998   3.179  19.666  0.00  0.00    +0.000 A 
ATOM     14  C   UNL     1       3.442   2.467  20.729  0.00  0.00    +0.000 A 
ATOM     15  C   UNL     1       2.317   2.959  21.382  0.00  0.00    +0.000 A 
ATOM     16  C   UNL     1       1.757   4.178  20.991  0.00  0.00    +0.000 A 
ATOM     17  C   UNL     1       2.333   4.930  19.955  0.00  0.00    +0.000 A 
ATOM     18  C   UNL     1       1.836   6.198  19.607  0.00  0.00    +0.000 A 
ENDBRANCH   5   9
BRANCH   1  23
ATOM     19  C   UNL     1      -2.568  12.203  23.325  0.00  0.00    +0.000 A 
ATOM     20  C   UNL     1      -2.025  13.476  23.473  0.00  0.00    +0.000 A 
ATOM     21  C   UNL     1      -0.874  13.827  22.778  0.00  0.00    +0.000 A 
ATOM     22  C   UNL     1      -0.267  12.904  21.920  0.00  0.00    +0.000 A 
ATOM     23  C   UNL     1      -0.788  11.616  21.735  0.00  0.00    +0.000 A 
ATOM     24  C   UNL     1      -1.943  11.289  22.467  0.00  0.00    +0.000 A 
BRANCH  19  26
ATOM     25  C   UNL     1      -4.250  13.077  24.756  0.00  0.00    +0.000 C 
ATOM     26  O   UNL     1      -3.701  11.966  24.056  0.00  0.00    +0.000 OA
ENDBRANCH  19  26
ENDBRANCH   1  23
TORSDOF 3
ENDMDL
MODEL 6
REMARK VINA RESULT:      -7.1      3.670      5.605
REMARK  Name = 
REMARK  4 active torsions:
REMARK  status: ('A' for Active; 'I' for Inactive)
REMARK    1  A    between atoms: C_1  and  O_2
REMARK    2  A    between atoms: O_2  and  C_3
REMARK    3  A    between atoms: C_7  and  N_8
REMARK    4  A    between atoms: C_12  and  C_14
REMARK                            x       y       z     vdW  Elec       q    Type
REMARK                         _______ _______ _______ _____ _____    ______ ____
ROOT
ATOM      1  N   UNL     1      -0.465  10.636  20.289  0.00  0.00    +0.000 N 
ATOM      2  C   UNL     1      -0.067  10.901  18.894  0.00  0.00    +0.000 C 
ATOM      3  C   UNL     1       1.411  10.514  18.675  0.00  0.00    +0.000 C 
ATOM      4  N   UNL     1       1.690   9.153  19.154  0.00  0.00    +0.000 N 
ATOM      5  C   UNL     1       2.237   8.237  18.262  0.00  0.00    +0.000 C 
ATOM      6  O   UNL     1       2.521   8.548  17.103  0.00  0.00    +0.000 OA
ATOM      7  C   UNL     1       1.335   8.974  20.574  0.00  0.00    +0.000 C 
ATOM      8  C   UNL     1      -0.165   9.273  20.777  0.00  0.00    +0.000 C 
ENDROOT
BRANCH   5   9
ATOM      9  C   UNL     1       2.564   6.846  18.673  0.00  0.00    +0.000 A 
ATOM     10  C   UNL     1       3.754   6.297  18.181  0.00  0.00    +0.000 A 
ATOM     11  C   UNL     1       4.173   5.032  18.594  0.00  0.00    +0.000 A 
ATOM     12  C   UNL     1       3.418   4.305  19.523  0.00  0.00    +0.000 A 
ATOM     13  C   UNL     1       3.885   3.091  20.048  0.00  0.00    +0.000 A 
ATOM     14  C   UNL     1       3.135   2.389  20.991  0.00  0.00    +0.000 A 
ATOM     15  C   UNL     1       1.893   2.871  21.391  0.00  0.00    +0.000 A 
ATOM     16  C   UNL     1       1.406   4.070  20.866  0.00  0.00    +0.000 A 
ATOM     17  C   UNL     1       2.170   4.813  19.952  0.00  0.00    +0.000 A 
ATOM     18  C   UNL     1       1.734   6.064  19.481  0.00  0.00    +0.000 A 
ENDBRANCH   5   9
BRANCH   1  23
ATOM     19  C   UNL     1      -2.893  13.288  21.231  0.00  0.00    +0.000 A 
ATOM     20  C   UNL     1      -2.521  13.531  22.551  0.00  0.00    +0.000 A 
ATOM     21  C   UNL     1      -1.491  12.798  23.129  0.00  0.00    +0.000 A 
ATOM     22  C   UNL     1      -0.821  11.825  22.382  0.00  0.00    +0.000 A 
ATOM     23  C   UNL     1      -1.158  11.558  21.047  0.00  0.00    +0.000 A 
ATOM     24  C   UNL     1      -2.216  12.304  20.500  0.00  0.00    +0.000 A 
BRANCH  19  26
ATOM     25  C   UNL     1      -5.065  13.383  20.274  0.00  0.00    +0.000 C 
ATOM     26  O   UNL     1      -3.918  14.067  20.765  0.00  0.00    +0.000 OA
ENDBRANCH  19  26
ENDBRANCH   1  23
TORSDOF 3
ENDMDL
MODEL 7
REMARK VINA RESULT:      -7.1      2.798     10.533
REMARK  Name = 
REMARK  4 active torsions:
REMARK  status: ('A' for Active; 'I' for Inactive)
REMARK    1  A    between atoms: C_1  and  O_2
REMARK    2  A    between atoms: O_2  and  C_3
REMARK    3  A    between atoms: C_7  and  N_8
REMARK    4  A    between atoms: C_12  and  C_14
REMARK                            x       y       z     vdW  Elec       q    Type
REMARK                         _______ _______ _______ _____ _____    ______ ____
ROOT
ATOM      1  N   UNL     1       1.885   7.894  19.875  0.00  0.00    +0.000 N 
ATOM      2  C   UNL     1       1.945   8.788  18.703  0.00  0.00    +0.000 C 
ATOM      3  C   UNL     1       0.604   9.531  18.525  0.00  0.00    +0.000 C 
ATOM      4  N   UNL     1       0.171  10.171  19.775  0.00  0.00    +0.000 N 
ATOM      5  C   UNL     1      -0.082  11.539  19.763  0.00  0.00    +0.000 C 
ATOM      6  O   UNL     1       0.012  12.209  18.733  0.00  0.00    +0.000 OA
ATOM      7  C   UNL     1       0.064   9.212  20.890  0.00  0.00    +0.000 C 
ATOM      8  C   UNL     1       1.430   8.536  21.127  0.00  0.00    +0.000 C 
ENDROOT
BRANCH   5   9
ATOM      9  C   UNL     1      -0.540  12.259  20.981  0.00  0.00    +0.000 A 
ATOM     10  C   UNL     1       0.230  13.347  21.408  0.00  0.00    +0.000 A 
ATOM     11  C   UNL     1      -0.184  14.126  22.488  0.00  0.00    +0.000 A 
ATOM     12  C   UNL     1      -1.387  13.842  23.146  0.00  0.00    +0.000 A 
ATOM     13  C   UNL     1      -1.885  14.687  24.148  0.00  0.00    +0.000 A 
ATOM     14  C   UNL     1      -3.098  14.406  24.778  0.00  0.00    +0.000 A 
ATOM     15  C   UNL     1      -3.806  13.257  24.441  0.00  0.00    +0.000 A 
ATOM     16  C   UNL     1      -3.317  12.396  23.456  0.00  0.00    +0.000 A 
ATOM     17  C   UNL     1      -2.122  12.690  22.780  0.00  0.00    +0.000 A 
ATOM     18  C   UNL     1      -1.660  11.882  21.726  0.00  0.00    +0.000 A 
ENDBRANCH   5   9
BRANCH   1  23
ATOM     19  C   UNL     1       3.778   4.860  18.861  0.00  0.00    +0.000 A 
ATOM     20  C   UNL     1       3.153   3.887  19.637  0.00  0.00    +0.000 A 
ATOM     21  C   UNL     1       2.132   4.244  20.511  0.00  0.00    +0.000 A 
ATOM     22  C   UNL     1       1.724   5.578  20.601  0.00  0.00    +0.000 A 
ATOM     23  C   UNL     1       2.320   6.586  19.829  0.00  0.00    +0.000 A 
ATOM     24  C   UNL     1       3.361   6.193  18.970  0.00  0.00    +0.000 A 
BRANCH  19  26
ATOM     25  C   UNL     1       4.373   3.981  16.736  0.00  0.00    +0.000 C 
ATOM     26  O   UNL     1       4.769   4.397  18.038  0.00  0.00    +0.000 OA
ENDBRANCH  19  26
ENDBRANCH   1  23
TORSDOF 3
ENDMDL
MODEL 8
REMARK VINA RESULT:      -7.1      3.723      5.516
REMARK  Name = 
REMARK  4 active torsions:
REMARK  status: ('A' for Active; 'I' for Inactive)
REMARK    1  A    between atoms: C_1  and  O_2
REMARK    2  A    between atoms: O_2  and  C_3
REMARK    3  A    between atoms: C_7  and  N_8
REMARK    4  A    between atoms: C_12  and  C_14
REMARK                            x       y       z     vdW  Elec       q    Type
REMARK                         _______ _______ _______ _____ _____    ______ ____
ROOT
ATOM      1  N   UNL     1      -0.583  10.955  20.397  0.00  0.00    +0.000 N 
ATOM      2  C   UNL     1      -0.076  11.226  19.039  0.00  0.00    +0.000 C 
ATOM      3  C   UNL     1       1.367  10.700  18.890  0.00  0.00    +0.000 C 
ATOM      4  N   UNL     1       1.480   9.302  19.328  0.00  0.00    +0.000 N 
ATOM      5  C   UNL     1       1.987   8.367  18.432  0.00  0.00    +0.000 C 
ATOM      6  O   UNL     1       2.372   8.688  17.305  0.00  0.00    +0.000 OA
ATOM      7  C   UNL     1       1.022   9.109  20.717  0.00  0.00    +0.000 C 
ATOM      8  C   UNL     1      -0.451   9.552  20.844  0.00  0.00    +0.000 C 
ENDROOT
BRANCH   5   9
ATOM      9  C   UNL     1       2.149   6.937  18.803  0.00  0.00    +0.000 A 
ATOM     10  C   UNL     1       2.038   6.611  20.160  0.00  0.00    +0.000 A 
ATOM     11  C   UNL     1       2.088   5.281  20.576  0.00  0.00    +0.000 A 
ATOM     12  C   UNL     1       2.228   4.251  19.636  0.00  0.00    +0.000 A 
ATOM     13  C   UNL     1       2.152   2.904  20.018  0.00  0.00    +0.000 A 
ATOM     14  C   UNL     1       2.268   1.888  19.069  0.00  0.00    +0.000 A 
ATOM     15  C   UNL     1       2.502   2.207  17.735  0.00  0.00    +0.000 A 
ATOM     16  C   UNL     1       2.596   3.543  17.340  0.00  0.00    +0.000 A 
ATOM     17  C   UNL     1       2.434   4.578  18.275  0.00  0.00    +0.000 A 
ATOM     18  C   UNL     1       2.439   5.927  17.882  0.00  0.00    +0.000 A 
ENDBRANCH   5   9
BRANCH   1  23
ATOM     19  C   UNL     1      -2.947  13.657  21.359  0.00  0.00    +0.000 A 
ATOM     20  C   UNL     1      -2.492  13.963  22.638  0.00  0.00    +0.000 A 
ATOM     21  C   UNL     1      -1.428  13.256  23.186  0.00  0.00    +0.000 A 
ATOM     22  C   UNL     1      -0.806  12.245  22.447  0.00  0.00    +0.000 A 
ATOM     23  C   UNL     1      -1.227  11.914  21.151  0.00  0.00    +0.000 A 
ATOM     24  C   UNL     1      -2.317  12.637  20.635  0.00  0.00    +0.000 A 
BRANCH  19  26
ATOM     25  C   UNL     1      -4.241  15.632  21.617  0.00  0.00    +0.000 C 
ATOM     26  O   UNL     1      -3.999  14.415  20.920  0.00  0.00    +0.000 OA
ENDBRANCH  19  26
ENDBRANCH   1  23
TORSDOF 3
ENDMDL
MODEL 9
REMARK VINA RESULT:      -7.0      3.694      5.797
REMARK  Name = 
REMARK  4 active torsions:
REMARK  status: ('A' for Active; 'I' for Inactive)
REMARK    1  A    between atoms: C_1  and  O_2
REMARK    2  A    between atoms: O_2  and  C_3
REMARK    3  A    between atoms: C_7  and  N_8
REMARK    4  A    between atoms: C_12  and  C_14
REMARK                            x       y       z     vdW  Elec       q    Type
REMARK                         _______ _______ _______ _____ _____    ______ ____
ROOT
ATOM      1  N   UNL     1      -0.444  10.853  20.089  0.00  0.00    +0.000 N 
ATOM      2  C   UNL     1       0.012  11.106  18.709  0.00  0.00    +0.000 C 
ATOM      3  C   UNL     1       1.488  10.683  18.547  0.00  0.00    +0.000 C 
ATOM      4  N   UNL     1       1.716   9.316  19.038  0.00  0.00    +0.000 N 
ATOM      5  C   UNL     1       2.273   8.385  18.168  0.00  0.00    +0.000 C 
ATOM      6  O   UNL     1       2.609   8.687  17.020  0.00  0.00    +0.000 OA
ATOM      7  C   UNL     1       1.302   9.148  20.443  0.00  0.00    +0.000 C 
ATOM      8  C   UNL     1      -0.197   9.484  20.588  0.00  0.00    +0.000 C 
ENDROOT
BRANCH   5   9
ATOM      9  C   UNL     1       2.550   6.988  18.592  0.00  0.00    +0.000 A 
ATOM     10  C   UNL     1       3.710   6.385  18.090  0.00  0.00    +0.000 A 
ATOM     11  C   UNL     1       4.084   5.110  18.513  0.00  0.00    +0.000 A 
ATOM     12  C   UNL     1       3.315   4.425  19.463  0.00  0.00    +0.000 A 
ATOM     13  C   UNL     1       3.741   3.200  19.996  0.00  0.00    +0.000 A 
ATOM     14  C   UNL     1       2.978   2.541  20.960  0.00  0.00    +0.000 A 
ATOM     15  C   UNL     1       1.762   3.078  21.371  0.00  0.00    +0.000 A 
ATOM     16  C   UNL     1       1.316   4.289  20.839  0.00  0.00    +0.000 A 
ATOM     17  C   UNL     1       2.095   4.989  19.903  0.00  0.00    +0.000 A 
ATOM     18  C   UNL     1       1.703   6.250  19.422  0.00  0.00    +0.000 A 
ENDBRANCH   5   9
BRANCH   1  23
ATOM     19  C   UNL     1      -1.341  13.231  22.801  0.00  0.00    +0.000 A 
ATOM     20  C   UNL     1      -2.607  13.638  22.389  0.00  0.00    +0.000 A 
ATOM     21  C   UNL     1      -3.144  13.147  21.204  0.00  0.00    +0.000 A 
ATOM     22  C   UNL     1      -2.416  12.236  20.432  0.00  0.00    +0.000 A 
ATOM     23  C   UNL     1      -1.143  11.793  20.819  0.00  0.00    +0.000 A 
ATOM     24  C   UNL     1      -0.624  12.323  22.013  0.00  0.00    +0.000 A 
BRANCH  19  26
ATOM     25  C   UNL     1      -1.237  15.144  24.205  0.00  0.00    +0.000 C 
ATOM     26  O   UNL     1      -0.913  13.777  23.981  0.00  0.00    +0.000 OA
ENDBRANCH  19  26
ENDBRANCH   1  23
TORSDOF 3
ENDMDL
