MODEL 1
REMARK VINA RESULT:      -7.5      0.000      0.000
REMARK  Name = 
REMARK  5 active torsions:
REMARK  status: ('A' for Active; 'I' for Inactive)
REMARK    1  A    between atoms: C_1  and  C_2
REMARK    2  A    between atoms: C_2  and  C_3
REMARK    3  A    between atoms: C_4  and  C_5
REMARK    4  A    between atoms: C_19  and  C_20
REMARK    5  A    between atoms: C_20  and  C_21
REMARK                            x       y       z     vdW  Elec       q    Type
REMARK                         _______ _______ _______ _____ _____    ______ ____
ROOT
ATOM      1  C   UNL     1       3.681   5.784  19.022  0.00  0.00    +0.000 C 
ATOM      2  C   UNL     1       2.534   6.104  19.669  0.00  0.00    +0.000 C 
ATOM      3  C   UNL     1       1.858   4.864  19.952  0.00  0.00    +0.000 C 
ATOM      4  O   UNL     1       0.800   4.750  20.530  0.00  0.00    +0.000 OA
ATOM      5  N   UNL     1       2.651   3.884  19.433  0.00  0.00    +0.000 N 
ATOM      6  C   UNL     1       2.135   2.530  19.531  0.00  0.00    +0.000 C 
ATOM      7  C   UNL     1       3.194   1.740  18.877  0.00  0.00    +0.000 C 
ATOM      8  C   UNL     1       4.348   2.668  19.208  0.00  0.00    +0.000 C 
ATOM      9  C   UNL     1       3.883   4.187  18.599  0.00  0.00    +0.000 C 
ENDROOT
BRANCH   2  10
ATOM     10  C   UNL     1       1.953   7.413  19.971  0.00  0.00    +0.000 A 
ATOM     11  C   UNL     1       1.650   7.749  21.301  0.00  0.00    +0.000 A 
ATOM     12  C   UNL     1       0.988   8.945  21.585  0.00  0.00    +0.000 A 
ATOM     13 CL   UNL     1       0.572   9.323  23.210  0.00  0.00    +0.000 Cl
ATOM     14  C   UNL     1       0.639   9.821  20.557  0.00  0.00    +0.000 A 
ATOM     15  C   UNL     1       0.969   9.497  19.246  0.00  0.00    +0.000 A 
ATOM     16 CL   UNL     1       0.534  10.568  17.973  0.00  0.00    +0.000 Cl
ATOM     17  C   UNL     1       1.627   8.304  18.947  0.00  0.00    +0.000 A 
ENDBRANCH   2  10
BRANCH   1  19
ATOM     18  C   UNL     1       4.107   7.364  17.075  0.00  0.00    +0.000 C 
ATOM     19  C   UNL     1       4.477   6.993  18.512  0.00  0.00    +0.000 C 
ENDBRANCH   1  19
BRANCH   9  20
ATOM     20  C   UNL     1       5.460   4.340  18.315  0.00  0.00    +0.000 C 
BRANCH  20  21
ATOM     21  C   UNL     1       5.763   4.478  16.809  0.00  0.00    +0.000 A 
ATOM     22  C   UNL     1       4.837   4.062  15.841  0.00  0.00    +0.000 A 
ATOM     23  C   UNL     1       5.217   3.960  14.502  0.00  0.00    +0.000 A 
ATOM     24  C   UNL     1       6.504   4.334  14.121  0.00  0.00    +0.000 A 
ATOM     25 BR   UNL     1       7.046   4.110  12.324  0.00  0.00    +0.000 Br
ATOM     26  C   UNL     1       7.400   4.845  15.058  0.00  0.00    +0.000 A 
ATOM     27  C   UNL     1       7.030   4.926  16.402  0.00  0.00    +0.000 A 
ENDBRANCH  20  21
ENDBRANCH   9  20
TORSDOF 4
ENDMDL
MODEL 2
REMARK VINA RESULT:      -7.4      0.152      1.735
REMARK  Name = 
REMARK  5 active torsions:
REMARK  status: ('A' for Active; 'I' for Inactive)
REMARK    1  A    between atoms: C_1  and  C_2
REMARK    2  A    between atoms: C_2  and  C_3
REMARK    3  A    between atoms: C_4  and  C_5
REMARK    4  A    between atoms: C_19  and  C_20
REMARK    5  A    between atoms: C_20  and  C_21
REMARK                            x       y       z     vdW  Elec       q    Type
REMARK                         _______ _______ _______ _____ _____    ______ ____
ROOT
ATOM      1  C   UNL     1       3.618   5.768  19.016  0.00  0.00    +0.000 C 
ATOM      2  C   UNL     1       2.458   6.046  19.658  0.00  0.00    +0.000 C 
ATOM      3  C   UNL     1       1.822   4.782  19.931  0.00  0.00    +0.000 C 
ATOM      4  O   UNL     1       0.766   4.630  20.503  0.00  0.00    +0.000 OA
ATOM      5  N   UNL     1       2.650   3.832  19.412  0.00  0.00    +0.000 N 
ATOM      6  C   UNL     1       2.179   2.462  19.501  0.00  0.00    +0.000 C 
ATOM      7  C   UNL     1       3.267   1.711  18.848  0.00  0.00    +0.000 C 
ATOM      8  C   UNL     1       4.388   2.675  19.189  0.00  0.00    +0.000 C 
ATOM      9  C   UNL     1       3.875   4.181  18.586  0.00  0.00    +0.000 C 
ENDROOT
BRANCH   2  10
ATOM     10  C   UNL     1       1.831   7.334  19.964  0.00  0.00    +0.000 A 
ATOM     11  C   UNL     1       1.690   8.296  18.952  0.00  0.00    +0.000 A 
ATOM     12  C   UNL     1       1.204   9.568  19.260  0.00  0.00    +0.000 A 
ATOM     13 CL   UNL     1       1.087  10.759  18.025  0.00  0.00    +0.000 Cl
ATOM     14  C   UNL     1       0.839   9.887  20.569  0.00  0.00    +0.000 A 
ATOM     15  C   UNL     1       0.952   8.919  21.561  0.00  0.00    +0.000 A 
ATOM     16 CL   UNL     1       0.512   9.307  23.177  0.00  0.00    +0.000 Cl
ATOM     17  C   UNL     1       1.440   7.646  21.267  0.00  0.00    +0.000 A 
ENDBRANCH   2  10
BRANCH   1  19
ATOM     18  C   UNL     1       4.025   7.352  17.067  0.00  0.00    +0.000 C 
ATOM     19  C   UNL     1       4.375   7.006  18.516  0.00  0.00    +0.000 C 
ENDBRANCH   1  19
BRANCH   9  20
ATOM     20  C   UNL     1       5.448   4.388  18.311  0.00  0.00    +0.000 C 
BRANCH  20  21
ATOM     21  C   UNL     1       5.757   4.513  16.804  0.00  0.00    +0.000 A 
ATOM     22  C   UNL     1       4.840   4.078  15.836  0.00  0.00    +0.000 A 
ATOM     23  C   UNL     1       5.228   3.964  14.500  0.00  0.00    +0.000 A 
ATOM     24  C   UNL     1       6.513   4.346  14.122  0.00  0.00    +0.000 A 
ATOM     25 BR   UNL     1       7.066   4.107  12.331  0.00  0.00    +0.000 Br
ATOM     26  C   UNL     1       7.399   4.875  15.058  0.00  0.00    +0.000 A 
ATOM     27  C   UNL     1       7.022   4.968  16.399  0.00  0.00    +0.000 A 
ENDBRANCH  20  21
ENDBRANCH   9  20
TORSDOF 4
ENDMDL
MODEL 3
REMARK VINA RESULT:      -6.8      5.220      8.295
REMARK  Name = 
REMARK  5 active torsions:
REMARK  status: ('A' for Active; 'I' for Inactive)
REMARK    1  A    between atoms: C_1  and  C_2
REMARK    2  A    between atoms: C_2  and  C_3
REMARK    3  A    between atoms: C_4  and  C_5
REMARK    4  A    between atoms: C_19  and  C_20
REMARK    5  A    between atoms: C_20  and  C_21
REMARK                            x       y       z     vdW  Elec       q    Type
REMARK                         _______ _______ _______ _____ _____    ______ ____
ROOT
ATOM      1  C   UNL     1      -1.092  11.400  18.938  0.00  0.00    +0.000 C 
ATOM      2  C   UNL     1      -1.910  12.351  19.451  0.00  0.00    +0.000 C 
ATOM      3  C   UNL     1      -1.065  13.437  19.878  0.00  0.00    +0.000 C 
ATOM      4  O   UNL     1      -1.442  14.472  20.381  0.00  0.00    +0.000 OA
ATOM      5  N   UNL     1       0.211  13.044  19.600  0.00  0.00    +0.000 N 
ATOM      6  C   UNL     1       1.261  13.957  20.016  0.00  0.00    +0.000 C 
ATOM      7  C   UNL     1       2.482  13.244  19.598  0.00  0.00    +0.000 C 
ATOM      8  C   UNL     1       1.867  12.487  18.436  0.00  0.00    +0.000 C 
ATOM      9  C   UNL     1       0.545  11.649  19.103  0.00  0.00    +0.000 C 
ENDROOT
BRANCH   2  10
ATOM     10  C   UNL     1      -3.357  12.334  19.674  0.00  0.00    +0.000 A 
ATOM     11  C   UNL     1      -4.227  12.217  18.578  0.00  0.00    +0.000 A 
ATOM     12  C   UNL     1      -5.607  12.320  18.769  0.00  0.00    +0.000 A 
ATOM     13 CL   UNL     1      -6.663  12.231  17.415  0.00  0.00    +0.000 Cl
ATOM     14  C   UNL     1      -6.130  12.520  20.046  0.00  0.00    +0.000 A 
ATOM     15  C   UNL     1      -5.264  12.603  21.131  0.00  0.00    +0.000 A 
ATOM     16 CL   UNL     1      -5.903  12.860  22.707  0.00  0.00    +0.000 Cl
ATOM     17  C   UNL     1      -3.884  12.508  20.954  0.00  0.00    +0.000 A 
ENDBRANCH   2  10
BRANCH   1  19
ATOM     18  C   UNL     1      -2.078  10.009  17.049  0.00  0.00    +0.000 C 
ATOM     19  C   UNL     1      -1.804  10.096  18.552  0.00  0.00    +0.000 C 
ENDBRANCH   1  19
BRANCH   9  20
ATOM     20  C   UNL     1       0.944  10.540  18.007  0.00  0.00    +0.000 C 
BRANCH  20  21
ATOM     21  C   UNL     1       1.525   9.269  18.659  0.00  0.00    +0.000 A 
ATOM     22  C   UNL     1       2.209   8.309  17.899  0.00  0.00    +0.000 A 
ATOM     23  C   UNL     1       2.508   7.060  18.446  0.00  0.00    +0.000 A 
ATOM     24  C   UNL     1       2.179   6.794  19.773  0.00  0.00    +0.000 A 
ATOM     25 BR   UNL     1       2.502   5.073  20.485  0.00  0.00    +0.000 Br
ATOM     26  C   UNL     1       1.591   7.775  20.568  0.00  0.00    +0.000 A 
ATOM     27  C   UNL     1       1.270   9.017  20.017  0.00  0.00    +0.000 A 
ENDBRANCH  20  21
ENDBRANCH   9  20
TORSDOF 4
ENDMDL
MODEL 4
REMARK VINA RESULT:      -6.7      5.207      8.152
REMARK  Name = 
REMARK  5 active torsions:
REMARK  status: ('A' for Active; 'I' for Inactive)
REMARK    1  A    between atoms: C_1  and  C_2
REMARK    2  A    between atoms: C_2  and  C_3
REMARK    3  A    between atoms: C_4  and  C_5
REMARK    4  A    between atoms: C_19  and  C_20
REMARK    5  A    between atoms: C_20  and  C_21
REMARK                            x       y       z     vdW  Elec       q    Type
REMARK                         _______ _______ _______ _____ _____    ______ ____
ROOT
ATOM      1  C   UNL     1      -1.141  11.483  19.045  0.00  0.00    +0.000 C 
ATOM      2  C   UNL     1      -1.926  12.447  19.585  0.00  0.00    +0.000 C 
ATOM      3  C   UNL     1      -1.051  13.516  19.992  0.00  0.00    +0.000 C 
ATOM      4  O   UNL     1      -1.395  14.555  20.509  0.00  0.00    +0.000 OA
ATOM      5  N   UNL     1       0.209  13.101  19.678  0.00  0.00    +0.000 N 
ATOM      6  C   UNL     1       1.287  13.993  20.068  0.00  0.00    +0.000 C 
ATOM      7  C   UNL     1       2.483  13.260  19.614  0.00  0.00    +0.000 C 
ATOM      8  C   UNL     1       1.822  12.520  18.466  0.00  0.00    +0.000 C 
ATOM      9  C   UNL     1       0.505  11.703  19.166  0.00  0.00    +0.000 C 
ENDROOT
BRANCH   2  10
ATOM     10  C   UNL     1      -3.367  12.455  19.847  0.00  0.00    +0.000 A 
ATOM     11  C   UNL     1      -3.835  12.710  21.146  0.00  0.00    +0.000 A 
ATOM     12  C   UNL     1      -5.198  12.602  21.431  0.00  0.00    +0.000 A 
ATOM     13 CL   UNL     1      -5.757  12.861  23.036  0.00  0.00    +0.000 Cl
ATOM     14  C   UNL     1      -6.104  12.260  20.426  0.00  0.00    +0.000 A 
ATOM     15  C   UNL     1      -5.638  12.040  19.135  0.00  0.00    +0.000 A 
ATOM     16 CL   UNL     1      -6.748  11.609  17.895  0.00  0.00    +0.000 Cl
ATOM     17  C   UNL     1      -4.278  12.140  18.838  0.00  0.00    +0.000 A 
ENDBRANCH   2  10
BRANCH   1  19
ATOM     18  C   UNL     1      -2.139  10.085  17.170  0.00  0.00    +0.000 C 
ATOM     19  C   UNL     1      -1.886  10.194  18.675  0.00  0.00    +0.000 C 
ENDBRANCH   1  19
BRANCH   9  20
ATOM     20  C   UNL     1       0.853  10.591  18.056  0.00  0.00    +0.000 C 
BRANCH  20  21
ATOM     21  C   UNL     1       1.468   9.323  18.684  0.00  0.00    +0.000 A 
ATOM     22  C   UNL     1       2.160   8.387  17.901  0.00  0.00    +0.000 A 
ATOM     23  C   UNL     1       2.490   7.137  18.428  0.00  0.00    +0.000 A 
ATOM     24  C   UNL     1       2.185   6.847  19.756  0.00  0.00    +0.000 A 
ATOM     25 BR   UNL     1       2.551   5.124  20.439  0.00  0.00    +0.000 Br
ATOM     26  C   UNL     1       1.589   7.806  20.571  0.00  0.00    +0.000 A 
ATOM     27  C   UNL     1       1.236   9.049  20.041  0.00  0.00    +0.000 A 
ENDBRANCH  20  21
ENDBRANCH   9  20
TORSDOF 4
ENDMDL
MODEL 5
REMARK VINA RESULT:      -6.7      5.537      8.574
REMARK  Name = 
REMARK  5 active torsions:
REMARK  status: ('A' for Active; 'I' for Inactive)
REMARK    1  A    between atoms: C_1  and  C_2
REMARK    2  A    between atoms: C_2  and  C_3
REMARK    3  A    between atoms: C_4  and  C_5
REMARK    4  A    between atoms: C_19  and  C_20
REMARK    5  A    between atoms: C_20  and  C_21
REMARK                            x       y       z     vdW  Elec       q    Type
REMARK                         _______ _______ _______ _____ _____    ______ ____
ROOT
ATOM      1  C   UNL     1      -1.816  11.251  18.584  0.00  0.00    +0.000 C 
ATOM      2  C   UNL     1      -2.942  11.873  19.010  0.00  0.00    +0.000 C 
ATOM      3  C   UNL     1      -2.539  12.804  20.034  0.00  0.00    +0.000 C 
ATOM      4  O   UNL     1      -3.273  13.547  20.644  0.00  0.00    +0.000 OA
ATOM      5  N   UNL     1      -1.189  12.655  20.157  0.00  0.00    +0.000 N 
ATOM      6  C   UNL     1      -0.555  13.447  21.195  0.00  0.00    +0.000 C 
ATOM      7  C   UNL     1       0.859  13.047  21.078  0.00  0.00    +0.000 C 
ATOM      8  C   UNL     1       0.835  12.710  19.599  0.00  0.00    +0.000 C 
ATOM      9  C   UNL     1      -0.417  11.571  19.426  0.00  0.00    +0.000 C 
ENDROOT
BRANCH   2  10
ATOM     10  C   UNL     1      -4.343  11.646  18.650  0.00  0.00    +0.000 A 
ATOM     11  C   UNL     1      -5.021  12.591  17.864  0.00  0.00    +0.000 A 
ATOM     12  C   UNL     1      -6.387  12.442  17.615  0.00  0.00    +0.000 A 
ATOM     13 CL   UNL     1      -7.221  13.633  16.697  0.00  0.00    +0.000 Cl
ATOM     14  C   UNL     1      -7.083  11.347  18.129  0.00  0.00    +0.000 A 
ATOM     15  C   UNL     1      -6.398  10.398  18.881  0.00  0.00    +0.000 A 
ATOM     16 CL   UNL     1      -7.252   9.052  19.525  0.00  0.00    +0.000 Cl
ATOM     17  C   UNL     1      -5.035  10.537  19.141  0.00  0.00    +0.000 A 
ENDBRANCH   2  10
BRANCH   1  19
ATOM     18  C   UNL     1      -2.385  10.642  16.180  0.00  0.00    +0.000 C 
ATOM     19  C   UNL     1      -2.064  10.116  17.581  0.00  0.00    +0.000 C 
ENDBRANCH   1  19
BRANCH   9  20
ATOM     20  C   UNL     1       0.547  10.975  18.283  0.00  0.00    +0.000 C 
BRANCH  20  21
ATOM     21  C   UNL     1       1.050   9.560  18.636  0.00  0.00    +0.000 A 
ATOM     22  C   UNL     1       0.987   9.073  19.950  0.00  0.00    +0.000 A 
ATOM     23  C   UNL     1       1.667   7.906  20.301  0.00  0.00    +0.000 A 
ATOM     24  C   UNL     1       2.357   7.191  19.325  0.00  0.00    +0.000 A 
ATOM     25 BR   UNL     1       3.350   5.661  19.819  0.00  0.00    +0.000 Br
ATOM     26  C   UNL     1       2.342   7.610  17.997  0.00  0.00    +0.000 A 
ATOM     27  C   UNL     1       1.683   8.790  17.646  0.00  0.00    +0.000 A 
ENDBRANCH  20  21
ENDBRANCH   9  20
TORSDOF 4
ENDMDL
MODEL 6
REMARK VINA RESULT:      -6.7      5.072      8.258
REMARK  Name = 
REMARK  5 active torsions:
REMARK  status: ('A' for Active; 'I' for Inactive)
REMARK    1  A    between atoms: C_1  and  C_2
REMARK    2  A    between atoms: C_2  and  C_3
REMARK    3  A    between atoms: C_4  and  C_5
REMARK    4  A    between atoms: C_19  and  C_20
REMARK    5  A    between atoms: C_20  and  C_21
REMARK                            x       y       z     vdW  Elec       q    Type
REMARK                         _______ _______ _______ _____ _____    ______ ____
ROOT
ATOM      1  C   UNL     1      -0.830  11.695  19.654  0.00  0.00    +0.000 C 
ATOM      2  C   UNL     1      -1.437  12.670  20.373  0.00  0.00    +0.000 C 
ATOM      3  C   UNL     1      -0.467  13.721  20.548  0.00  0.00    +0.000 C 
ATOM      4  O   UNL     1      -0.651  14.764  21.134  0.00  0.00    +0.000 OA
ATOM      5  N   UNL     1       0.666  13.285  19.928  0.00  0.00    +0.000 N 
ATOM      6  C   UNL     1       1.823  14.155  20.035  0.00  0.00    +0.000 C 
ATOM      7  C   UNL     1       2.853  13.402  19.296  0.00  0.00    +0.000 C 
ATOM      8  C   UNL     1       1.913  12.679  18.351  0.00  0.00    +0.000 C 
ATOM      9  C   UNL     1       0.797  11.883  19.359  0.00  0.00    +0.000 C 
ENDROOT
BRANCH   2  10
ATOM     10  C   UNL     1      -2.765  12.704  20.988  0.00  0.00    +0.000 A 
ATOM     11  C   UNL     1      -3.884  13.036  20.208  0.00  0.00    +0.000 A 
ATOM     12  C   UNL     1      -5.135  13.186  20.810  0.00  0.00    +0.000 A 
ATOM     13 CL   UNL     1      -6.490  13.647  19.856  0.00  0.00    +0.000 Cl
ATOM     14  C   UNL     1      -5.287  12.991  22.183  0.00  0.00    +0.000 A 
ATOM     15  C   UNL     1      -4.180  12.632  22.945  0.00  0.00    +0.000 A 
ATOM     16 CL   UNL     1      -4.358  12.399  24.639  0.00  0.00    +0.000 Cl
ATOM     17  C   UNL     1      -2.924  12.483  22.357  0.00  0.00    +0.000 A 
ENDBRANCH   2  10
BRANCH   1  19
ATOM     18  C   UNL     1      -2.389  10.381  18.134  0.00  0.00    +0.000 C 
ATOM     19  C   UNL     1      -1.669  10.421  19.483  0.00  0.00    +0.000 C 
ENDBRANCH   1  19
BRANCH   9  20
ATOM     20  C   UNL     1       0.835  10.770  18.197  0.00  0.00    +0.000 C 
BRANCH  20  21
ATOM     21  C   UNL     1       1.535   9.477  18.662  0.00  0.00    +0.000 A 
ATOM     22  C   UNL     1       2.262   8.681  17.764  0.00  0.00    +0.000 A 
ATOM     23  C   UNL     1       2.674   7.400  18.134  0.00  0.00    +0.000 A 
ATOM     24  C   UNL     1       2.414   6.939  19.423  0.00  0.00    +0.000 A 
ATOM     25 BR   UNL     1       2.893   5.172  19.893  0.00  0.00    +0.000 Br
ATOM     26  C   UNL     1       1.782   7.759  20.355  0.00  0.00    +0.000 A 
ATOM     27  C   UNL     1       1.348   9.032  19.981  0.00  0.00    +0.000 A 
ENDBRANCH  20  21
ENDBRANCH   9  20
TORSDOF 4
ENDMDL
MODEL 7
REMARK VINA RESULT:      -6.6      7.417     11.545
REMARK  Name = 
REMARK  5 active torsions:
REMARK  status: ('A' for Active; 'I' for Inactive)
REMARK    1  A    between atoms: C_1  and  C_2
REMARK    2  A    between atoms: C_2  and  C_3
REMARK    3  A    between atoms: C_4  and  C_5
REMARK    4  A    between atoms: C_19  and  C_20
REMARK    5  A    between atoms: C_20  and  C_21
REMARK                            x       y       z     vdW  Elec       q    Type
REMARK                         _______ _______ _______ _____ _____    ______ ____
ROOT
ATOM      1  C   UNL     1      -3.200  12.101  19.473  0.00  0.00    +0.000 C 
ATOM      2  C   UNL     1      -1.970  12.053  20.040  0.00  0.00    +0.000 C 
ATOM      3  C   UNL     1      -2.129  12.466  21.412  0.00  0.00    +0.000 C 
ATOM      4  O   UNL     1      -1.246  12.540  22.236  0.00  0.00    +0.000 OA
ATOM      5  N   UNL     1      -3.454  12.749  21.560  0.00  0.00    +0.000 N 
ATOM      6  C   UNL     1      -3.852  13.264  22.858  0.00  0.00    +0.000 C 
ATOM      7  C   UNL     1      -5.299  13.480  22.683  0.00  0.00    +0.000 C 
ATOM      8  C   UNL     1      -5.523  12.399  21.642  0.00  0.00    +0.000 C 
ATOM      9  C   UNL     1      -4.424  12.754  20.392  0.00  0.00    +0.000 C 
ENDROOT
BRANCH   2  10
ATOM     10  C   UNL     1      -0.665  11.762  19.444  0.00  0.00    +0.000 A 
ATOM     11  C   UNL     1      -0.199  10.438  19.403  0.00  0.00    +0.000 A 
ATOM     12  C   UNL     1       1.091  10.165  18.947  0.00  0.00    +0.000 A 
ATOM     13 CL   UNL     1       1.673   8.547  18.952  0.00  0.00    +0.000 Cl
ATOM     14  C   UNL     1       1.920  11.199  18.511  0.00  0.00    +0.000 A 
ATOM     15  C   UNL     1       1.442  12.505  18.525  0.00  0.00    +0.000 A 
ATOM     16 CL   UNL     1       2.461  13.786  17.998  0.00  0.00    +0.000 Cl
ATOM     17  C   UNL     1       0.156  12.792  18.983  0.00  0.00    +0.000 A 
ENDBRANCH   2  10
BRANCH   1  19
ATOM     18  C   UNL     1      -3.384  10.338  17.650  0.00  0.00    +0.000 C 
ATOM     19  C   UNL     1      -3.211  11.825  17.964  0.00  0.00    +0.000 C 
ENDBRANCH   1  19
BRANCH   9  20
ATOM     20  C   UNL     1      -5.597  12.167  19.458  0.00  0.00    +0.000 C 
BRANCH  20  21
ATOM     21  C   UNL     1      -6.269  13.272  18.618  0.00  0.00    +0.000 A 
ATOM     22  C   UNL     1      -6.686  13.031  17.300  0.00  0.00    +0.000 A 
ATOM     23  C   UNL     1      -7.059  14.093  16.475  0.00  0.00    +0.000 A 
ATOM     24  C   UNL     1      -7.075  15.389  16.986  0.00  0.00    +0.000 A 
ATOM     25 BR   UNL     1      -7.492  16.835  15.842  0.00  0.00    +0.000 Br
ATOM     26  C   UNL     1      -6.760  15.628  18.321  0.00  0.00    +0.000 A 
ATOM     27  C   UNL     1      -6.365  14.571  19.143  0.00  0.00    +0.000 A 
ENDBRANCH  20  21
ENDBRANCH   9  20
TORSDOF 4
ENDMDL
MODEL 8
REMARK VINA RESULT:      -6.6      6.253      8.638
REMARK  Name = 
REMARK  5 active torsions:
REMARK  status: ('A' for Active; 'I' for Inactive)
REMARK    1  A    between atoms: C_1  and  C_2
REMARK    2  A    between atoms: C_2  and  C_3
REMARK    3  A    between atoms: C_4  and  C_5
REMARK    4  A    between atoms: C_19  and  C_20
REMARK    5  A    between atoms: C_20  and  C_21
REMARK                            x       y       z     vdW  Elec       q    Type
REMARK                         _______ _______ _______ _____ _____    ______ ____
ROOT
ATOM      1  C   UNL     1      -1.153  11.868  20.805  0.00  0.00    +0.000 C 
ATOM      2  C   UNL     1      -1.179  11.786  22.157  0.00  0.00    +0.000 C 
ATOM      3  C   UNL     1      -0.378  10.645  22.519  0.00  0.00    +0.000 C 
ATOM      4  O   UNL     1      -0.161  10.260  23.647  0.00  0.00    +0.000 OA
ATOM      5  N   UNL     1       0.059  10.113  21.343  0.00  0.00    +0.000 N 
ATOM      6  C   UNL     1       0.837   8.891  21.448  0.00  0.00    +0.000 C 
ATOM      7  C   UNL     1       1.127   8.579  20.037  0.00  0.00    +0.000 C 
ATOM      8  C   UNL     1       1.099  10.005  19.522  0.00  0.00    +0.000 C 
ATOM      9  C   UNL     1      -0.417  10.616  19.992  0.00  0.00    +0.000 C 
ENDROOT
BRANCH   2  10
ATOM     10  C   UNL     1      -1.925  12.577  23.138  0.00  0.00    +0.000 A 
ATOM     11  C   UNL     1      -3.201  12.156  23.546  0.00  0.00    +0.000 A 
ATOM     12  C   UNL     1      -3.967  12.964  24.388  0.00  0.00    +0.000 A 
ATOM     13 CL   UNL     1      -5.551  12.467  24.837  0.00  0.00    +0.000 Cl
ATOM     14  C   UNL     1      -3.466  14.183  24.845  0.00  0.00    +0.000 A 
ATOM     15  C   UNL     1      -2.189  14.580  24.463  0.00  0.00    +0.000 A 
ATOM     16 CL   UNL     1      -1.569  16.086  25.015  0.00  0.00    +0.000 Cl
ATOM     17  C   UNL     1      -1.415  13.785  23.618  0.00  0.00    +0.000 A 
ENDBRANCH   2  10
BRANCH   1  19
ATOM     18  C   UNL     1      -3.513  12.465  20.067  0.00  0.00    +0.000 C 
ATOM     19  C   UNL     1      -2.070  12.951  20.220  0.00  0.00    +0.000 C 
ENDBRANCH   1  19
BRANCH   9  20
ATOM     20  C   UNL     1      -0.304  11.427  18.606  0.00  0.00    +0.000 C 
BRANCH  20  21
ATOM     21  C   UNL     1      -1.364  10.969  17.583  0.00  0.00    +0.000 A 
ATOM     22  C   UNL     1      -1.512   9.616  17.246  0.00  0.00    +0.000 A 
ATOM     23  C   UNL     1      -2.291   9.245  16.149  0.00  0.00    +0.000 A 
ATOM     24  C   UNL     1      -2.974  10.222  15.428  0.00  0.00    +0.000 A 
ATOM     25 BR   UNL     1      -3.955   9.728  13.890  0.00  0.00    +0.000 Br
ATOM     26  C   UNL     1      -2.916  11.559  15.816  0.00  0.00    +0.000 A 
ATOM     27  C   UNL     1      -2.118  11.936  16.898  0.00  0.00    +0.000 A 
ENDBRANCH  20  21
ENDBRANCH   9  20
TORSDOF 4
ENDMDL
MODEL 9
REMARK VINA RESULT:      -6.5      5.326      8.642
REMARK  Name = 
REMARK  5 active torsions:
REMARK  status: ('A' for Active; 'I' for Inactive)
REMARK    1  A    between atoms: C_1  and  C_2
REMARK    2  A    between atoms: C_2  and  C_3
REMARK    3  A    between atoms: C_4  and  C_5
REMARK    4  A    between atoms: C_19  and  C_20
REMARK    5  A    between atoms: C_20  and  C_21
REMARK                            x       y       z     vdW  Elec       q    Type
REMARK                         _______ _______ _______ _____ _____    ______ ____
ROOT
ATOM      1  C   UNL     1      -0.994  12.199  20.103  0.00  0.00    +0.000 C 
ATOM      2  C   UNL     1      -1.574  13.055  20.980  0.00  0.00    +0.000 C 
ATOM      3  C   UNL     1      -0.529  13.915  21.474  0.00  0.00    +0.000 C 
ATOM      4  O   UNL     1      -0.670  14.814  22.272  0.00  0.00    +0.000 OA
ATOM      5  N   UNL     1       0.615  13.495  20.861  0.00  0.00    +0.000 N 
ATOM      6  C   UNL     1       1.834  14.173  21.262  0.00  0.00    +0.000 C 
ATOM      7  C   UNL     1       2.857  13.487  20.452  0.00  0.00    +0.000 C 
ATOM      8  C   UNL     1       1.955  13.113  19.291  0.00  0.00    +0.000 C 
ATOM      9  C   UNL     1       0.666  12.252  19.992  0.00  0.00    +0.000 C 
ENDROOT
BRANCH   2  10
ATOM     10  C   UNL     1      -2.950  13.109  21.477  0.00  0.00    +0.000 A 
ATOM     11  C   UNL     1      -3.941  13.745  20.712  0.00  0.00    +0.000 A 
ATOM     12  C   UNL     1      -5.227  13.907  21.231  0.00  0.00    +0.000 A 
ATOM     13 CL   UNL     1      -6.420  14.736  20.310  0.00  0.00    +0.000 Cl
ATOM     14  C   UNL     1      -5.543  13.422  22.501  0.00  0.00    +0.000 A 
ATOM     15  C   UNL     1      -4.565  12.765  23.240  0.00  0.00    +0.000 A 
ATOM     16 CL   UNL     1      -4.945  12.174  24.809  0.00  0.00    +0.000 Cl
ATOM     17  C   UNL     1      -3.275  12.602  22.736  0.00  0.00    +0.000 A 
ENDBRANCH   2  10
BRANCH   1  19
ATOM     18  C   UNL     1      -2.556  11.486  18.226  0.00  0.00    +0.000 C 
ATOM     19  C   UNL     1      -1.931  11.107  19.571  0.00  0.00    +0.000 C 
ENDBRANCH   1  19
BRANCH   9  20
ATOM     20  C   UNL     1       0.717  11.432  18.607  0.00  0.00    +0.000 C 
BRANCH  20  21
ATOM     21  C   UNL     1       1.120   9.959  18.826  0.00  0.00    +0.000 A 
ATOM     22  C   UNL     1       1.062   9.371  20.098  0.00  0.00    +0.000 A 
ATOM     23  C   UNL     1       1.660   8.131  20.328  0.00  0.00    +0.000 A 
ATOM     24  C   UNL     1       2.259   7.449  19.271  0.00  0.00    +0.000 A 
ATOM     25 BR   UNL     1       3.146   5.813  19.602  0.00  0.00    +0.000 Br
ATOM     26  C   UNL     1       2.234   7.977  17.982  0.00  0.00    +0.000 A 
ATOM     27  C   UNL     1       1.657   9.229  17.754  0.00  0.00    +0.000 A 
ENDBRANCH  20  21
ENDBRANCH   9  20
TORSDOF 4
ENDMDL
