MODEL 1
REMARK VINA RESULT:      -8.0      0.000      0.000
REMARK  Name = 
REMARK  7 active torsions:
REMARK  status: ('A' for Active; 'I' for Inactive)
REMARK    1  A    between atoms: C_1  and  C_2
REMARK    2  A    between atoms: C_2  and  C_3
REMARK    3  A    between atoms: N_5  and  C_6
REMARK    4  A    between atoms: C_6  and  C_7
REMARK    5  A    between atoms: C_6  and  C_8
REMARK    6  A    between atoms: N_13  and  C_14
REMARK    7  A    between atoms: C_14  and  C_15
REMARK                            x       y       z     vdW  Elec       q    Type
REMARK                         _______ _______ _______ _____ _____    ______ ____
ROOT
ATOM      1  C   UNL     1       0.419   9.166  20.463  0.00  0.00    +0.000 C 
ATOM      2  C   UNL     1      -0.612   8.580  21.442  0.00  0.00    +0.000 C 
ENDROOT
BRANCH   1   5
ATOM      3  C   UNL     1       2.163   5.990  20.185  0.00  0.00    +0.000 A 
ATOM      4  N   UNL     1       1.422   6.952  20.639  0.00  0.00    +0.000 NA
ATOM      5  N   UNL     1       1.387   8.172  19.969  0.00  0.00    +0.000 N 
ATOM      6  C   UNL     1       2.069   8.422  18.764  0.00  0.00    +0.000 A 
ATOM      7  O   UNL     1       1.994   9.484  18.156  0.00  0.00    +0.000 OA
ATOM      8  C   UNL     1       2.887   7.319  18.309  0.00  0.00    +0.000 A 
ATOM      9  C   UNL     1       3.720   7.234  17.204  0.00  0.00    +0.000 A 
ATOM     10  C   UNL     1       4.220   5.927  17.276  0.00  0.00    +0.000 A 
ATOM     11  O   UNL     1       5.054   5.141  16.551  0.00  0.00    +0.000 OA
ATOM     12  C   UNL     1       5.070   3.953  17.215  0.00  0.00    +0.000 A 
ATOM     13  C   UNL     1       4.289   3.959  18.346  0.00  0.00    +0.000 A 
ATOM     14  C   UNL     1       3.743   5.265  18.353  0.00  0.00    +0.000 A 
ATOM     15  N   UNL     1       2.908   6.132  19.024  0.00  0.00    +0.000 N 
BRANCH   3  17
ATOM     16  C   UNL     1       1.111   3.811  20.622  0.00  0.00    +0.000 C 
ATOM     17  C   UNL     1       2.286   4.713  20.962  0.00  0.00    +0.000 C 
ENDBRANCH   3  17
ENDBRANCH   1   5
BRANCH   1  18
ATOM     18  C   UNL     1       1.036  10.417  21.133  0.00  0.00    +0.000 C 
ATOM     19  O   UNL     1       1.705  10.257  22.164  0.00  0.00    +0.000 OA
ATOM     20  N   UNL     1       1.029  11.648  20.489  0.00  0.00    +0.000 N 
ATOM     21  C   UNL     1       1.770  12.760  21.096  0.00  0.00    +0.000 C 
ATOM     22  C   UNL     1       2.439  13.660  20.030  0.00  0.00    +0.000 C 
ATOM     23  N   UNL     1       1.546  14.108  18.931  0.00  0.00    +0.000 NA
ATOM     24  C   UNL     1       0.891  12.916  18.359  0.00  0.00    +0.000 C 
ATOM     25  C   UNL     1       0.153  12.040  19.382  0.00  0.00    +0.000 C 
BRANCH  23  26
ATOM     26  C   UNL     1       0.593  15.114  19.430  0.00  0.00    +0.000 C 
BRANCH  26  27
ATOM     27  C   UNL     1       0.492  16.371  18.592  0.00  0.00    +0.000 A 
ATOM     28  C   UNL     1       1.633  16.890  17.960  0.00  0.00    +0.000 A 
ATOM     29  C   UNL     1       1.542  18.011  17.135  0.00  0.00    +0.000 A 
ATOM     30  C   UNL     1       0.308  18.629  16.935  0.00  0.00    +0.000 A 
ATOM     31  C   UNL     1      -0.829  18.134  17.571  0.00  0.00    +0.000 A 
ATOM     32  C   UNL     1      -0.739  17.012  18.398  0.00  0.00    +0.000 A 
ENDBRANCH  26  27
ENDBRANCH  23  26
ENDBRANCH   1  18
TORSDOF 5
ENDMDL
MODEL 2
REMARK VINA RESULT:      -7.9      3.522      9.462
REMARK  Name = 
REMARK  7 active torsions:
REMARK  status: ('A' for Active; 'I' for Inactive)
REMARK    1  A    between atoms: C_1  and  C_2
REMARK    2  A    between atoms: C_2  and  C_3
REMARK    3  A    between atoms: N_5  and  C_6
REMARK    4  A    between atoms: C_6  and  C_7
REMARK    5  A    between atoms: C_6  and  C_8
REMARK    6  A    between atoms: N_13  and  C_14
REMARK    7  A    between atoms: C_14  and  C_15
REMARK                            x       y       z     vdW  Elec       q    Type
REMARK                         _______ _______ _______ _____ _____    ______ ____
ROOT
ATOM      1  C   UNL     1       0.459  10.515  18.893  0.00  0.00    +0.000 C 
ATOM      2  C   UNL     1       1.411  11.721  18.975  0.00  0.00    +0.000 C 
ENDROOT
BRANCH   1   5
ATOM      3  C   UNL     1      -2.525  12.323  19.909  0.00  0.00    +0.000 A 
ATOM      4  N   UNL     1      -1.314  11.860  19.885  0.00  0.00    +0.000 NA
ATOM      5  N   UNL     1      -0.964  10.889  18.951  0.00  0.00    +0.000 N 
ATOM      6  C   UNL     1      -1.838  10.406  17.960  0.00  0.00    +0.000 A 
ATOM      7  O   UNL     1      -1.507   9.586  17.112  0.00  0.00    +0.000 OA
ATOM      8  C   UNL     1      -3.177  10.949  18.039  0.00  0.00    +0.000 A 
ATOM      9  C   UNL     1      -4.293  10.665  17.266  0.00  0.00    +0.000 A 
ATOM     10  C   UNL     1      -5.277  11.509  17.797  0.00  0.00    +0.000 A 
ATOM     11  O   UNL     1      -6.580  11.793  17.550  0.00  0.00    +0.000 OA
ATOM     12  C   UNL     1      -6.903  12.747  18.467  0.00  0.00    +0.000 A 
ATOM     13  C   UNL     1      -5.856  13.069  19.298  0.00  0.00    +0.000 A 
ATOM     14  C   UNL     1      -4.806  12.245  18.828  0.00  0.00    +0.000 A 
ATOM     15  N   UNL     1      -3.484  11.896  19.003  0.00  0.00    +0.000 N 
BRANCH   3  17
ATOM     16  C   UNL     1      -3.116  12.531  22.287  0.00  0.00    +0.000 C 
ATOM     17  C   UNL     1      -2.933  13.288  20.982  0.00  0.00    +0.000 C 
ENDBRANCH   3  17
ENDBRANCH   1   5
BRANCH   1  18
ATOM     18  C   UNL     1       0.919   9.489  19.957  0.00  0.00    +0.000 C 
ATOM     19  O   UNL     1       0.457   9.588  21.102  0.00  0.00    +0.000 OA
ATOM     20  N   UNL     1       1.651   8.365  19.593  0.00  0.00    +0.000 N 
ATOM     21  C   UNL     1       1.918   7.344  20.613  0.00  0.00    +0.000 C 
ATOM     22  C   UNL     1       1.876   5.913  20.025  0.00  0.00    +0.000 C 
ATOM     23  N   UNL     1       2.684   5.710  18.796  0.00  0.00    +0.000 NA
ATOM     24  C   UNL     1       2.304   6.752  17.821  0.00  0.00    +0.000 C 
ATOM     25  C   UNL     1       2.408   8.190  18.351  0.00  0.00    +0.000 C 
BRANCH  23  26
ATOM     26  C   UNL     1       4.120   5.717  19.125  0.00  0.00    +0.000 C 
BRANCH  26  27
ATOM     27  C   UNL     1       5.043   5.410  17.966  0.00  0.00    +0.000 A 
ATOM     28  C   UNL     1       6.162   6.222  17.721  0.00  0.00    +0.000 A 
ATOM     29  C   UNL     1       7.055   5.913  16.694  0.00  0.00    +0.000 A 
ATOM     30  C   UNL     1       6.837   4.790  15.898  0.00  0.00    +0.000 A 
ATOM     31  C   UNL     1       5.721   3.985  16.119  0.00  0.00    +0.000 A 
ATOM     32  C   UNL     1       4.826   4.293  17.146  0.00  0.00    +0.000 A 
ENDBRANCH  26  27
ENDBRANCH  23  26
ENDBRANCH   1  18
TORSDOF 5
ENDMDL
MODEL 3
REMARK VINA RESULT:      -7.5      3.586      9.406
REMARK  Name = 
REMARK  7 active torsions:
REMARK  status: ('A' for Active; 'I' for Inactive)
REMARK    1  A    between atoms: C_1  and  C_2
REMARK    2  A    between atoms: C_2  and  C_3
REMARK    3  A    between atoms: N_5  and  C_6
REMARK    4  A    between atoms: C_6  and  C_7
REMARK    5  A    between atoms: C_6  and  C_8
REMARK    6  A    between atoms: N_13  and  C_14
REMARK    7  A    between atoms: C_14  and  C_15
REMARK                            x       y       z     vdW  Elec       q    Type
REMARK                         _______ _______ _______ _____ _____    ______ ____
ROOT
ATOM      1  C   UNL     1       0.761  10.567  18.631  0.00  0.00    +0.000 C 
ATOM      2  C   UNL     1       1.657  11.795  18.872  0.00  0.00    +0.000 C 
ENDROOT
BRANCH   1   5
ATOM      3  C   UNL     1      -2.658  10.359  17.419  0.00  0.00    +0.000 A 
ATOM      4  N   UNL     1      -1.375  10.201  17.518  0.00  0.00    +0.000 NA
ATOM      5  N   UNL     1      -0.664  10.903  18.487  0.00  0.00    +0.000 N 
ATOM      6  C   UNL     1      -1.266  11.750  19.437  0.00  0.00    +0.000 A 
ATOM      7  O   UNL     1      -0.638  12.327  20.318  0.00  0.00    +0.000 OA
ATOM      8  C   UNL     1      -2.696  11.897  19.274  0.00  0.00    +0.000 A 
ATOM      9  C   UNL     1      -3.591  12.679  19.990  0.00  0.00    +0.000 A 
ATOM     10  C   UNL     1      -4.823  12.390  19.390  0.00  0.00    +0.000 A 
ATOM     11  O   UNL     1      -6.120  12.753  19.558  0.00  0.00    +0.000 OA
ATOM     12  C   UNL     1      -6.798  12.052  18.608  0.00  0.00    +0.000 A 
ATOM     13  C   UNL     1      -5.979  11.268  17.831  0.00  0.00    +0.000 A 
ATOM     14  C   UNL     1      -4.694  11.509  18.373  0.00  0.00    +0.000 A 
ATOM     15  N   UNL     1      -3.355  11.196  18.277  0.00  0.00    +0.000 N 
BRANCH   3  17
ATOM     16  C   UNL     1      -2.954  10.270  14.980  0.00  0.00    +0.000 C 
ATOM     17  C   UNL     1      -3.409   9.687  16.308  0.00  0.00    +0.000 C 
ENDBRANCH   3  17
ENDBRANCH   1   5
BRANCH   1  18
ATOM     18  C   UNL     1       1.092   9.530  19.732  0.00  0.00    +0.000 C 
ATOM     19  O   UNL     1       0.562   9.669  20.843  0.00  0.00    +0.000 OA
ATOM     20  N   UNL     1       1.781   8.362  19.427  0.00  0.00    +0.000 N 
ATOM     21  C   UNL     1       1.922   7.341  20.472  0.00  0.00    +0.000 C 
ATOM     22  C   UNL     1       1.838   5.908  19.895  0.00  0.00    +0.000 C 
ATOM     23  N   UNL     1       2.712   5.645  18.724  0.00  0.00    +0.000 NA
ATOM     24  C   UNL     1       2.457   6.694  17.717  0.00  0.00    +0.000 C 
ATOM     25  C   UNL     1       2.608   8.130  18.240  0.00  0.00    +0.000 C 
BRANCH  23  26
ATOM     26  C   UNL     1       4.121   5.575  19.149  0.00  0.00    +0.000 C 
BRANCH  26  27
ATOM     27  C   UNL     1       5.112   5.307  18.035  0.00  0.00    +0.000 A 
ATOM     28  C   UNL     1       4.949   4.190  17.201  0.00  0.00    +0.000 A 
ATOM     29  C   UNL     1       5.820   3.967  16.133  0.00  0.00    +0.000 A 
ATOM     30  C   UNL     1       6.864   4.856  15.890  0.00  0.00    +0.000 A 
ATOM     31  C   UNL     1       7.047   5.960  16.721  0.00  0.00    +0.000 A 
ATOM     32  C   UNL     1       6.178   6.185  17.791  0.00  0.00    +0.000 A 
ENDBRANCH  26  27
ENDBRANCH  23  26
ENDBRANCH   1  18
TORSDOF 5
ENDMDL
MODEL 4
REMARK VINA RESULT:      -7.3      3.768      9.385
REMARK  Name = 
REMARK  7 active torsions:
REMARK  status: ('A' for Active; 'I' for Inactive)
REMARK    1  A    between atoms: C_1  and  C_2
REMARK    2  A    between atoms: C_2  and  C_3
REMARK    3  A    between atoms: N_5  and  C_6
REMARK    4  A    between atoms: C_6  and  C_7
REMARK    5  A    between atoms: C_6  and  C_8
REMARK    6  A    between atoms: N_13  and  C_14
REMARK    7  A    between atoms: C_14  and  C_15
REMARK                            x       y       z     vdW  Elec       q    Type
REMARK                         _______ _______ _______ _____ _____    ______ ____
ROOT
ATOM      1  C   UNL     1       0.118  11.984  19.898  0.00  0.00    +0.000 C 
ATOM      2  C   UNL     1       0.689  13.215  20.623  0.00  0.00    +0.000 C 
ENDROOT
BRANCH   1   5
ATOM      3  C   UNL     1      -3.315  12.813  20.752  0.00  0.00    +0.000 A 
ATOM      4  N   UNL     1      -2.028  12.675  20.822  0.00  0.00    +0.000 NA
ATOM      5  N   UNL     1      -1.351  11.978  19.824  0.00  0.00    +0.000 N 
ATOM      6  C   UNL     1      -1.976  11.451  18.679  0.00  0.00    +0.000 A 
ATOM      7  O   UNL     1      -1.366  10.880  17.782  0.00  0.00    +0.000 OA
ATOM      8  C   UNL     1      -3.412  11.624  18.657  0.00  0.00    +0.000 A 
ATOM      9  C   UNL     1      -4.340  11.193  17.721  0.00  0.00    +0.000 A 
ATOM     10  C   UNL     1      -5.556  11.673  18.227  0.00  0.00    +0.000 A 
ATOM     11  O   UNL     1      -6.861  11.658  17.857  0.00  0.00    +0.000 OA
ATOM     12  C   UNL     1      -7.504  12.349  18.838  0.00  0.00    +0.000 A 
ATOM     13  C   UNL     1      -6.657  12.789  19.828  0.00  0.00    +0.000 A 
ATOM     14  C   UNL     1      -5.389  12.335  19.392  0.00  0.00    +0.000 A 
ATOM     15  N   UNL     1      -4.043  12.304  19.687  0.00  0.00    +0.000 N 
BRANCH   3  17
ATOM     16  C   UNL     1      -3.878  12.639  23.139  0.00  0.00    +0.000 C 
ATOM     17  C   UNL     1      -4.057  13.469  21.878  0.00  0.00    +0.000 C 
ENDBRANCH   3  17
ENDBRANCH   1   5
BRANCH   1  18
ATOM     18  C   UNL     1       0.756  10.730  20.544  0.00  0.00    +0.000 C 
ATOM     19  O   UNL     1       0.539  10.517  21.745  0.00  0.00    +0.000 OA
ATOM     20  N   UNL     1       1.366   9.757  19.761  0.00  0.00    +0.000 N 
ATOM     21  C   UNL     1       1.806   8.514  20.407  0.00  0.00    +0.000 C 
ATOM     22  C   UNL     1       1.604   7.283  19.491  0.00  0.00    +0.000 C 
ATOM     23  N   UNL     1       2.140   7.426  18.113  0.00  0.00    +0.000 NA
ATOM     24  C   UNL     1       1.600   8.674  17.539  0.00  0.00    +0.000 C 
ATOM     25  C   UNL     1       1.851   9.928  18.389  0.00  0.00    +0.000 C 
BRANCH  23  26
ATOM     26  C   UNL     1       3.612   7.383  18.135  0.00  0.00    +0.000 C 
BRANCH  26  27
ATOM     27  C   UNL     1       4.232   6.277  17.307  0.00  0.00    +0.000 A 
ATOM     28  C   UNL     1       3.930   4.935  17.585  0.00  0.00    +0.000 A 
ATOM     29  C   UNL     1       4.445   3.910  16.790  0.00  0.00    +0.000 A 
ATOM     30  C   UNL     1       5.272   4.216  15.711  0.00  0.00    +0.000 A 
ATOM     31  C   UNL     1       5.593   5.544  15.434  0.00  0.00    +0.000 A 
ATOM     32  C   UNL     1       5.079   6.571  16.229  0.00  0.00    +0.000 A 
ENDBRANCH  26  27
ENDBRANCH  23  26
ENDBRANCH   1  18
TORSDOF 5
ENDMDL
MODEL 5
REMARK VINA RESULT:      -7.0      1.003      1.223
REMARK  Name = 
REMARK  7 active torsions:
REMARK  status: ('A' for Active; 'I' for Inactive)
REMARK    1  A    between atoms: C_1  and  C_2
REMARK    2  A    between atoms: C_2  and  C_3
REMARK    3  A    between atoms: N_5  and  C_6
REMARK    4  A    between atoms: C_6  and  C_7
REMARK    5  A    between atoms: C_6  and  C_8
REMARK    6  A    between atoms: N_13  and  C_14
REMARK    7  A    between atoms: C_14  and  C_15
REMARK                            x       y       z     vdW  Elec       q    Type
REMARK                         _______ _______ _______ _____ _____    ______ ____
ROOT
ATOM      1  C   UNL     1       0.341   8.766  20.770  0.00  0.00    +0.000 C 
ATOM      2  C   UNL     1      -0.415   8.217  21.993  0.00  0.00    +0.000 C 
ENDROOT
BRANCH   1   5
ATOM      3  C   UNL     1       2.154   5.650  20.315  0.00  0.00    +0.000 A 
ATOM      4  N   UNL     1       1.390   6.567  20.820  0.00  0.00    +0.000 NA
ATOM      5  N   UNL     1       1.333   7.825  20.226  0.00  0.00    +0.000 N 
ATOM      6  C   UNL     1       2.018   8.162  19.044  0.00  0.00    +0.000 A 
ATOM      7  O   UNL     1       1.925   9.257  18.501  0.00  0.00    +0.000 OA
ATOM      8  C   UNL     1       2.862   7.106  18.529  0.00  0.00    +0.000 A 
ATOM      9  C   UNL     1       3.705   7.106  17.427  0.00  0.00    +0.000 A 
ATOM     10  C   UNL     1       4.232   5.808  17.424  0.00  0.00    +0.000 A 
ATOM     11  O   UNL     1       5.088   5.085  16.659  0.00  0.00    +0.000 OA
ATOM     12  C   UNL     1       5.124   3.859  17.250  0.00  0.00    +0.000 A 
ATOM     13  C   UNL     1       4.336   3.780  18.373  0.00  0.00    +0.000 A 
ATOM     14  C   UNL     1       3.762   5.071  18.454  0.00  0.00    +0.000 A 
ATOM     15  N   UNL     1       2.904   5.879  19.171  0.00  0.00    +0.000 N 
BRANCH   3  17
ATOM     16  C   UNL     1       1.138   3.432  20.621  0.00  0.00    +0.000 C 
ATOM     17  C   UNL     1       2.299   4.331  21.014  0.00  0.00    +0.000 C 
ENDBRANCH   3  17
ENDBRANCH   1   5
BRANCH   1  18
ATOM     18  C   UNL     1       0.891  10.161  21.155  0.00  0.00    +0.000 C 
ATOM     19  O   UNL     1       1.837  10.216  21.954  0.00  0.00    +0.000 OA
ATOM     20  N   UNL     1       0.490  11.300  20.466  0.00  0.00    +0.000 N 
ATOM     21  C   UNL     1       1.165  12.570  20.762  0.00  0.00    +0.000 C 
ATOM     22  C   UNL     1       1.345  13.439  19.495  0.00  0.00    +0.000 C 
ATOM     23  N   UNL     1       0.118  13.626  18.678  0.00  0.00    +0.000 NA
ATOM     24  C   UNL     1      -0.451  12.294  18.395  0.00  0.00    +0.000 C 
ATOM     25  C   UNL     1      -0.712  11.434  19.641  0.00  0.00    +0.000 C 
BRANCH  23  26
ATOM     26  C   UNL     1      -0.820  14.526  19.371  0.00  0.00    +0.000 C 
BRANCH  26  27
ATOM     27  C   UNL     1      -0.394  15.978  19.422  0.00  0.00    +0.000 A 
ATOM     28  C   UNL     1      -0.100  16.583  20.655  0.00  0.00    +0.000 A 
ATOM     29  C   UNL     1       0.354  17.901  20.709  0.00  0.00    +0.000 A 
ATOM     30  C   UNL     1       0.515  18.631  19.533  0.00  0.00    +0.000 A 
ATOM     31  C   UNL     1       0.210  18.047  18.304  0.00  0.00    +0.000 A 
ATOM     32  C   UNL     1      -0.245  16.728  18.248  0.00  0.00    +0.000 A 
ENDBRANCH  26  27
ENDBRANCH  23  26
ENDBRANCH   1  18
TORSDOF 5
ENDMDL
MODEL 6
REMARK VINA RESULT:      -6.9      0.801      1.341
REMARK  Name = 
REMARK  7 active torsions:
REMARK  status: ('A' for Active; 'I' for Inactive)
REMARK    1  A    between atoms: C_1  and  C_2
REMARK    2  A    between atoms: C_2  and  C_3
REMARK    3  A    between atoms: N_5  and  C_6
REMARK    4  A    between atoms: C_6  and  C_7
REMARK    5  A    between atoms: C_6  and  C_8
REMARK    6  A    between atoms: N_13  and  C_14
REMARK    7  A    between atoms: C_14  and  C_15
REMARK                            x       y       z     vdW  Elec       q    Type
REMARK                         _______ _______ _______ _____ _____    ______ ____
ROOT
ATOM      1  C   UNL     1       0.460   9.525  20.059  0.00  0.00    +0.000 C 
ATOM      2  C   UNL     1      -0.719   8.969  20.877  0.00  0.00    +0.000 C 
ENDROOT
BRANCH   1   5
ATOM      3  C   UNL     1       2.210   6.341  20.073  0.00  0.00    +0.000 A 
ATOM      4  N   UNL     1       1.464   7.337  20.435  0.00  0.00    +0.000 NA
ATOM      5  N   UNL     1       1.433   8.494  19.662  0.00  0.00    +0.000 N 
ATOM      6  C   UNL     1       2.125   8.640  18.446  0.00  0.00    +0.000 A 
ATOM      7  O   UNL     1       2.054   9.645  17.747  0.00  0.00    +0.000 OA
ATOM      8  C   UNL     1       2.949   7.504  18.095  0.00  0.00    +0.000 A 
ATOM      9  C   UNL     1       3.792   7.325  17.008  0.00  0.00    +0.000 A 
ATOM     10  C   UNL     1       4.293   6.031  17.198  0.00  0.00    +0.000 A 
ATOM     11  O   UNL     1       5.135   5.186  16.551  0.00  0.00    +0.000 OA
ATOM     12  C   UNL     1       5.147   4.060  17.316  0.00  0.00    +0.000 A 
ATOM     13  C   UNL     1       4.356   4.163  18.436  0.00  0.00    +0.000 A 
ATOM     14  C   UNL     1       3.807   5.463  18.324  0.00  0.00    +0.000 A 
ATOM     15  N   UNL     1       2.965   6.384  18.911  0.00  0.00    +0.000 N 
BRANCH   3  17
ATOM     16  C   UNL     1       1.237   4.144  20.594  0.00  0.00    +0.000 C 
ATOM     17  C   UNL     1       2.328   5.137  20.959  0.00  0.00    +0.000 C 
ENDBRANCH   3  17
ENDBRANCH   1   5
BRANCH   1  18
ATOM     18  C   UNL     1       1.044  10.723  20.845  0.00  0.00    +0.000 C 
ATOM     19  O   UNL     1       1.878  10.489  21.731  0.00  0.00    +0.000 OA
ATOM     20  N   UNL     1       0.813  12.029  20.430  0.00  0.00    +0.000 N 
ATOM     21  C   UNL     1       1.525  13.116  21.112  0.00  0.00    +0.000 C 
ATOM     22  C   UNL     1       1.927  14.248  20.136  0.00  0.00    +0.000 C 
ATOM     23  N   UNL     1       0.833  14.747  19.264  0.00  0.00    +0.000 NA
ATOM     24  C   UNL     1       0.220  13.586  18.589  0.00  0.00    +0.000 C 
ATOM     25  C   UNL     1      -0.258  12.476  19.537  0.00  0.00    +0.000 C 
BRANCH  23  26
ATOM     26  C   UNL     1      -0.127  15.536  20.055  0.00  0.00    +0.000 C 
BRANCH  26  27
ATOM     27  C   UNL     1      -0.886  16.589  19.274  0.00  0.00    +0.000 A 
ATOM     28  C   UNL     1      -2.139  17.034  19.725  0.00  0.00    +0.000 A 
ATOM     29  C   UNL     1      -2.819  18.047  19.048  0.00  0.00    +0.000 A 
ATOM     30  C   UNL     1      -2.255  18.625  17.913  0.00  0.00    +0.000 A 
ATOM     31  C   UNL     1      -1.019  18.181  17.445  0.00  0.00    +0.000 A 
ATOM     32  C   UNL     1      -0.338  17.166  18.120  0.00  0.00    +0.000 A 
ENDBRANCH  26  27
ENDBRANCH  23  26
ENDBRANCH   1  18
TORSDOF 5
ENDMDL
MODEL 7
REMARK VINA RESULT:      -6.8      4.015      7.018
REMARK  Name = 
REMARK  7 active torsions:
REMARK  status: ('A' for Active; 'I' for Inactive)
REMARK    1  A    between atoms: C_1  and  C_2
REMARK    2  A    between atoms: C_2  and  C_3
REMARK    3  A    between atoms: N_5  and  C_6
REMARK    4  A    between atoms: C_6  and  C_7
REMARK    5  A    between atoms: C_6  and  C_8
REMARK    6  A    between atoms: N_13  and  C_14
REMARK    7  A    between atoms: C_14  and  C_15
REMARK                            x       y       z     vdW  Elec       q    Type
REMARK                         _______ _______ _______ _____ _____    ______ ____
ROOT
ATOM      1  C   UNL     1      -0.122  10.570  19.633  0.00  0.00    +0.000 C 
ATOM      2  C   UNL     1       0.746  10.105  18.451  0.00  0.00    +0.000 C 
ENDROOT
BRANCH   1   5
ATOM      3  C   UNL     1      -2.995  11.264  17.518  0.00  0.00    +0.000 A 
ATOM      4  N   UNL     1      -1.818  10.889  17.912  0.00  0.00    +0.000 NA
ATOM      5  N   UNL     1      -1.411  11.148  19.218  0.00  0.00    +0.000 N 
ATOM      6  C   UNL     1      -2.234  11.749  20.189  0.00  0.00    +0.000 A 
ATOM      7  O   UNL     1      -1.884  11.929  21.349  0.00  0.00    +0.000 OA
ATOM      8  C   UNL     1      -3.531  12.156  19.693  0.00  0.00    +0.000 A 
ATOM      9  C   UNL     1      -4.561  12.812  20.349  0.00  0.00    +0.000 A 
ATOM     10  C   UNL     1      -5.557  12.910  19.369  0.00  0.00    +0.000 A 
ATOM     11  O   UNL     1      -6.820  13.399  19.280  0.00  0.00    +0.000 OA
ATOM     12  C   UNL     1      -7.203  13.131  18.001  0.00  0.00    +0.000 A 
ATOM     13  C   UNL     1      -6.224  12.504  17.268  0.00  0.00    +0.000 A 
ATOM     14  C   UNL     1      -5.163  12.370  18.195  0.00  0.00    +0.000 A 
ATOM     15  N   UNL     1      -3.880  11.899  18.377  0.00  0.00    +0.000 N 
BRANCH   3  17
ATOM     16  C   UNL     1      -2.757   9.812  15.549  0.00  0.00    +0.000 C 
ATOM     17  C   UNL     1      -3.394  11.084  16.084  0.00  0.00    +0.000 C 
ENDBRANCH   3  17
ENDBRANCH   1   5
BRANCH   1  18
ATOM     18  C   UNL     1       0.757  11.480  20.524  0.00  0.00    +0.000 C 
ATOM     19  O   UNL     1       1.199  11.009  21.582  0.00  0.00    +0.000 OA
ATOM     20  N   UNL     1       1.220  12.704  20.056  0.00  0.00    +0.000 N 
ATOM     21  C   UNL     1       2.182  13.448  20.877  0.00  0.00    +0.000 C 
ATOM     22  C   UNL     1       3.234  14.183  20.012  0.00  0.00    +0.000 C 
ATOM     23  N   UNL     1       2.680  15.004  18.906  0.00  0.00    +0.000 NA
ATOM     24  C   UNL     1       1.770  14.152  18.116  0.00  0.00    +0.000 C 
ATOM     25  C   UNL     1       0.666  13.467  18.935  0.00  0.00    +0.000 C 
BRANCH  23  26
ATOM     26  C   UNL     1       2.029  16.210  19.445  0.00  0.00    +0.000 C 
BRANCH  26  27
ATOM     27  C   UNL     1       1.227  17.008  18.438  0.00  0.00    +0.000 A 
ATOM     28  C   UNL     1      -0.158  17.163  18.605  0.00  0.00    +0.000 A 
ATOM     29  C   UNL     1      -0.898  17.946  17.719  0.00  0.00    +0.000 A 
ATOM     30  C   UNL     1      -0.262  18.582  16.654  0.00  0.00    +0.000 A 
ATOM     31  C   UNL     1       1.111  18.422  16.467  0.00  0.00    +0.000 A 
ATOM     32  C   UNL     1       1.852  17.637  17.353  0.00  0.00    +0.000 A 
ENDBRANCH  26  27
ENDBRANCH  23  26
ENDBRANCH   1  18
TORSDOF 5
ENDMDL
MODEL 8
REMARK VINA RESULT:      -6.8      3.795      9.250
REMARK  Name = 
REMARK  7 active torsions:
REMARK  status: ('A' for Active; 'I' for Inactive)
REMARK    1  A    between atoms: C_1  and  C_2
REMARK    2  A    between atoms: C_2  and  C_3
REMARK    3  A    between atoms: N_5  and  C_6
REMARK    4  A    between atoms: C_6  and  C_7
REMARK    5  A    between atoms: C_6  and  C_8
REMARK    6  A    between atoms: N_13  and  C_14
REMARK    7  A    between atoms: C_14  and  C_15
REMARK                            x       y       z     vdW  Elec       q    Type
REMARK                         _______ _______ _______ _____ _____    ______ ____
ROOT
ATOM      1  C   UNL     1       0.015  13.235  19.457  0.00  0.00    +0.000 C 
ATOM      2  C   UNL     1       0.305  14.741  19.577  0.00  0.00    +0.000 C 
ENDROOT
BRANCH   1   5
ATOM      3  C   UNL     1      -3.039  11.715  18.205  0.00  0.00    +0.000 A 
ATOM      4  N   UNL     1      -1.813  12.128  18.286  0.00  0.00    +0.000 NA
ATOM      5  N   UNL     1      -1.420  12.922  19.360  0.00  0.00    +0.000 N 
ATOM      6  C   UNL     1      -2.268  13.268  20.428  0.00  0.00    +0.000 A 
ATOM      7  O   UNL     1      -1.901  13.927  21.393  0.00  0.00    +0.000 OA
ATOM      8  C   UNL     1      -3.626  12.790  20.282  0.00  0.00    +0.000 A 
ATOM      9  C   UNL     1      -4.724  12.982  21.107  0.00  0.00    +0.000 A 
ATOM     10  C   UNL     1      -5.742  12.269  20.461  0.00  0.00    +0.000 A 
ATOM     11  O   UNL     1      -7.053  11.992  20.677  0.00  0.00    +0.000 OA
ATOM     12  C   UNL     1      -7.417  11.210  19.623  0.00  0.00    +0.000 A 
ATOM     13  C   UNL     1      -6.389  10.992  18.736  0.00  0.00    +0.000 A 
ATOM     14  C   UNL     1      -5.307  11.694  19.318  0.00  0.00    +0.000 A 
ATOM     15  N   UNL     1      -3.975  12.023  19.182  0.00  0.00    +0.000 N 
BRANCH   3  17
ATOM     16  C   UNL     1      -2.466   9.875  16.679  0.00  0.00    +0.000 C 
ATOM     17  C   UNL     1      -3.491  10.951  16.997  0.00  0.00    +0.000 C 
ENDBRANCH   3  17
ENDBRANCH   1   5
BRANCH   1  18
ATOM     18  C   UNL     1       0.773  12.524  20.605  0.00  0.00    +0.000 C 
ATOM     19  O   UNL     1       1.108  13.199  21.588  0.00  0.00    +0.000 OA
ATOM     20  N   UNL     1       0.882  11.139  20.637  0.00  0.00    +0.000 N 
ATOM     21  C   UNL     1       1.465  10.511  21.828  0.00  0.00    +0.000 C 
ATOM     22  C   UNL     1       0.772   9.171  22.174  0.00  0.00    +0.000 C 
ATOM     23  N   UNL     1       0.635   8.220  21.042  0.00  0.00    +0.000 NA
ATOM     24  C   UNL     1      -0.005   8.934  19.920  0.00  0.00    +0.000 C 
ATOM     25  C   UNL     1       0.704  10.231  19.501  0.00  0.00    +0.000 C 
BRANCH  23  26
ATOM     26  C   UNL     1       1.948   7.649  20.697  0.00  0.00    +0.000 C 
BRANCH  26  27
ATOM     27  C   UNL     1       1.897   6.313  19.985  0.00  0.00    +0.000 A 
ATOM     28  C   UNL     1       1.370   5.187  20.636  0.00  0.00    +0.000 A 
ATOM     29  C   UNL     1       1.261   3.966  19.969  0.00  0.00    +0.000 A 
ATOM     30  C   UNL     1       1.680   3.857  18.644  0.00  0.00    +0.000 A 
ATOM     31  C   UNL     1       2.220   4.964  17.992  0.00  0.00    +0.000 A 
ATOM     32  C   UNL     1       2.331   6.186  18.658  0.00  0.00    +0.000 A 
ENDBRANCH  26  27
ENDBRANCH  23  26
ENDBRANCH   1  18
TORSDOF 5
ENDMDL
MODEL 9
REMARK VINA RESULT:      -6.8      3.593      9.733
REMARK  Name = 
REMARK  7 active torsions:
REMARK  status: ('A' for Active; 'I' for Inactive)
REMARK    1  A    between atoms: C_1  and  C_2
REMARK    2  A    between atoms: C_2  and  C_3
REMARK    3  A    between atoms: N_5  and  C_6
REMARK    4  A    between atoms: C_6  and  C_7
REMARK    5  A    between atoms: C_6  and  C_8
REMARK    6  A    between atoms: N_13  and  C_14
REMARK    7  A    between atoms: C_14  and  C_15
REMARK                            x       y       z     vdW  Elec       q    Type
REMARK                         _______ _______ _______ _____ _____    ______ ____
ROOT
ATOM      1  C   UNL     1       0.772  11.309  19.217  0.00  0.00    +0.000 C 
ATOM      2  C   UNL     1       1.104  11.158  20.712  0.00  0.00    +0.000 C 
ENDROOT
BRANCH   1   5
ATOM      3  C   UNL     1      -2.489  10.667  17.749  0.00  0.00    +0.000 A 
ATOM      4  N   UNL     1      -1.209  10.665  17.954  0.00  0.00    +0.000 NA
ATOM      5  N   UNL     1      -0.667  11.470  18.952  0.00  0.00    +0.000 N 
ATOM      6  C   UNL     1      -1.438  12.261  19.822  0.00  0.00    +0.000 A 
ATOM      7  O   UNL     1      -0.956  12.930  20.729  0.00  0.00    +0.000 OA
ATOM      8  C   UNL     1      -2.858  12.234  19.543  0.00  0.00    +0.000 A 
ATOM      9  C   UNL     1      -3.893  12.921  20.159  0.00  0.00    +0.000 A 
ATOM     10  C   UNL     1      -5.030  12.473  19.475  0.00  0.00    +0.000 A 
ATOM     11  O   UNL     1      -6.370  12.683  19.529  0.00  0.00    +0.000 OA
ATOM     12  C   UNL     1      -6.882  11.883  18.553  0.00  0.00    +0.000 A 
ATOM     13  C   UNL     1      -5.916  11.185  17.869  0.00  0.00    +0.000 A 
ATOM     14  C   UNL     1      -4.717  11.589  18.502  0.00  0.00    +0.000 A 
ATOM     15  N   UNL     1      -3.347  11.435  18.522  0.00  0.00    +0.000 N 
BRANCH   3  17
ATOM     16  C   UNL     1      -2.975  10.720  15.340  0.00  0.00    +0.000 C 
ATOM     17  C   UNL     1      -3.063   9.884  16.606  0.00  0.00    +0.000 C 
ENDBRANCH   3  17
ENDBRANCH   1   5
BRANCH   1  18
ATOM     18  C   UNL     1       1.459  10.141  18.470  0.00  0.00    +0.000 C 
ATOM     19  O   UNL     1       2.114  10.404  17.452  0.00  0.00    +0.000 OA
ATOM     20  N   UNL     1       1.526   8.873  19.037  0.00  0.00    +0.000 N 
ATOM     21  C   UNL     1       2.330   7.847  18.363  0.00  0.00    +0.000 C 
ATOM     22  C   UNL     1       3.054   6.923  19.371  0.00  0.00    +0.000 C 
ATOM     23  N   UNL     1       2.192   6.356  20.439  0.00  0.00    +0.000 NA
ATOM     24  C   UNL     1       1.469   7.470  21.084  0.00  0.00    +0.000 C 
ATOM     25  C   UNL     1       0.678   8.363  20.117  0.00  0.00    +0.000 C 
BRANCH  23  26
ATOM     26  C   UNL     1       1.297   5.329  19.878  0.00  0.00    +0.000 C 
BRANCH  26  27
ATOM     27  C   UNL     1       1.993   4.085  19.366  0.00  0.00    +0.000 A 
ATOM     28  C   UNL     1       1.756   3.631  18.059  0.00  0.00    +0.000 A 
ATOM     29  C   UNL     1       2.438   2.523  17.556  0.00  0.00    +0.000 A 
ATOM     30  C   UNL     1       3.364   1.854  18.354  0.00  0.00    +0.000 A 
ATOM     31  C   UNL     1       3.597   2.285  19.660  0.00  0.00    +0.000 A 
ATOM     32  C   UNL     1       2.914   3.393  20.166  0.00  0.00    +0.000 A 
ENDBRANCH  26  27
ENDBRANCH  23  26
ENDBRANCH   1  18
TORSDOF 5
ENDMDL
