MODEL 1
REMARK VINA RESULT:      -9.2      0.000      0.000
REMARK  Name = 
REMARK  5 active torsions:
REMARK  status: ('A' for Active; 'I' for Inactive)
REMARK    1  A    between atoms: C_2  and  C_12
REMARK    2  A    between atoms: N_3  and  C_4
REMARK    3  A    between atoms: C_4  and  C_5
REMARK    4  A    between atoms: C_17  and  N_18
REMARK    5  A    between atoms: C_19  and  C_21
REMARK                            x       y       z     vdW  Elec       q    Type
REMARK                         _______ _______ _______ _____ _____    ______ ____
ROOT
ATOM      1  C   UNL     1       6.192   5.271  17.540  0.00  0.00    +0.000 A 
ATOM      2  C   UNL     1       7.214   4.548  16.884  0.00  0.00    +0.000 A 
ATOM      3  C   UNL     1       7.231   4.454  15.501  0.00  0.00    +0.000 A 
ATOM      4  C   UNL     1       6.206   5.080  14.775  0.00  0.00    +0.000 A 
ATOM      5  C   UNL     1       5.216   5.846  15.416  0.00  0.00    +0.000 A 
ATOM      6  C   UNL     1       5.198   5.999  16.807  0.00  0.00    +0.000 A 
ENDROOT
BRANCH   1   8
ATOM      7  O   UNL     1       6.769   5.567  19.817  0.00  0.00    +0.000 OA
ATOM      8  C   UNL     1       6.123   4.925  18.989  0.00  0.00    +0.000 C 
ATOM      9  N   UNL     1       5.471   3.771  19.380  0.00  0.00    +0.000 N 
ATOM     10  H   UNL     1       5.426   3.643  20.384  0.00  0.00    +0.000 HD
BRANCH   9  11
ATOM     11  C   UNL     1       4.563   3.027  18.562  0.00  0.00    +0.000 C 
BRANCH  11  12
ATOM     12  C   UNL     1       3.242   2.606  19.089  0.00  0.00    +0.000 A 
ATOM     13  C   UNL     1       2.208   2.309  18.186  0.00  0.00    +0.000 A 
ATOM     14  C   UNL     1       0.889   2.303  18.623  0.00  0.00    +0.000 A 
ATOM     15  C   UNL     1       0.607   2.568  19.960  0.00  0.00    +0.000 A 
ATOM     16  C   UNL     1       1.635   2.851  20.851  0.00  0.00    +0.000 A 
ATOM     17  F   UNL     1       1.355   3.192  22.110  0.00  0.00    +0.000 F 
ATOM     18  C   UNL     1       2.950   2.871  20.429  0.00  0.00    +0.000 A 
ENDBRANCH  11  12
ENDBRANCH   9  11
ENDBRANCH   1   8
BRANCH   6  19
ATOM     19  N   UNL     1       4.173   6.768  17.477  0.00  0.00    +0.000 N 
ATOM     20  C   UNL     1       2.867   6.357  17.891  0.00  0.00    +0.000 C 
ATOM     21  O   UNL     1       2.286   5.361  17.471  0.00  0.00    +0.000 OA
ATOM     22  H   UNL     1       4.505   7.563  18.027  0.00  0.00    +0.000 HD
BRANCH  20  23
ATOM     23  C   UNL     1       2.296   7.214  19.030  0.00  0.00    +0.000 A 
ATOM     24  N   UNL     1       2.122   6.555  20.187  0.00  0.00    +0.000 NA
ATOM     25  S   UNL     1       1.403   7.506  21.311  0.00  0.00    +0.000 S 
ATOM     26  C   UNL     1       1.293   8.912  20.353  0.00  0.00    +0.000 A 
ATOM     27  C   UNL     1       0.760  10.172  20.741  0.00  0.00    +0.000 A 
ATOM     28  C   UNL     1       0.742  11.209  19.816  0.00  0.00    +0.000 A 
ATOM     29  C   UNL     1       1.208  10.984  18.531  0.00  0.00    +0.000 A 
ATOM     30  C   UNL     1       1.737   9.715  18.147  0.00  0.00    +0.000 A 
ATOM     31  C   UNL     1       1.809   8.634  19.074  0.00  0.00    +0.000 A 
ENDBRANCH  20  23
ENDBRANCH   6  19
TORSDOF 5
ENDMDL
MODEL 2
REMARK VINA RESULT:      -8.8      2.772      5.205
REMARK  Name = 
REMARK  5 active torsions:
REMARK  status: ('A' for Active; 'I' for Inactive)
REMARK    1  A    between atoms: C_2  and  C_12
REMARK    2  A    between atoms: N_3  and  C_4
REMARK    3  A    between atoms: C_4  and  C_5
REMARK    4  A    between atoms: C_17  and  N_18
REMARK    5  A    between atoms: C_19  and  C_21
REMARK                            x       y       z     vdW  Elec       q    Type
REMARK                         _______ _______ _______ _____ _____    ______ ____
ROOT
ATOM      1  C   UNL     1       3.790   4.723  17.939  0.00  0.00    +0.000 A 
ATOM      2  C   UNL     1       3.887   3.385  17.493  0.00  0.00    +0.000 A 
ATOM      3  C   UNL     1       2.818   2.515  17.642  0.00  0.00    +0.000 A 
ATOM      4  C   UNL     1       1.650   2.991  18.256  0.00  0.00    +0.000 A 
ATOM      5  C   UNL     1       1.524   4.333  18.654  0.00  0.00    +0.000 A 
ATOM      6  C   UNL     1       2.568   5.248  18.475  0.00  0.00    +0.000 A 
ENDROOT
BRANCH   1   8
ATOM      7  O   UNL     1       5.684   5.462  19.151  0.00  0.00    +0.000 OA
ATOM      8  C   UNL     1       5.133   5.358  18.055  0.00  0.00    +0.000 C 
ATOM      9  N   UNL     1       5.682   5.988  16.954  0.00  0.00    +0.000 N 
ATOM     10  H   UNL     1       6.619   6.344  17.107  0.00  0.00    +0.000 HD
BRANCH   9  11
ATOM     11  C   UNL     1       5.236   5.817  15.605  0.00  0.00    +0.000 C 
BRANCH  11  12
ATOM     12  C   UNL     1       6.028   5.014  14.643  0.00  0.00    +0.000 A 
ATOM     13  C   UNL     1       7.296   5.473  14.251  0.00  0.00    +0.000 A 
ATOM     14  C   UNL     1       7.881   4.981  13.090  0.00  0.00    +0.000 A 
ATOM     15  C   UNL     1       7.212   4.018  12.339  0.00  0.00    +0.000 A 
ATOM     16  C   UNL     1       5.962   3.560  12.738  0.00  0.00    +0.000 A 
ATOM     17  F   UNL     1       5.286   2.704  11.971  0.00  0.00    +0.000 F 
ATOM     18  C   UNL     1       5.364   4.047  13.884  0.00  0.00    +0.000 A 
ENDBRANCH  11  12
ENDBRANCH   9  11
ENDBRANCH   1   8
BRANCH   6  19
ATOM     19  N   UNL     1       2.457   6.625  18.900  0.00  0.00    +0.000 N 
ATOM     20  C   UNL     1       2.502   7.817  18.109  0.00  0.00    +0.000 C 
ATOM     21  O   UNL     1       2.949   7.877  16.968  0.00  0.00    +0.000 OA
ATOM     22  H   UNL     1       1.953   6.779  19.776  0.00  0.00    +0.000 HD
BRANCH  20  23
ATOM     23  C   UNL     1       1.805   9.012  18.776  0.00  0.00    +0.000 A 
ATOM     24  N   UNL     1       1.885  10.159  18.083  0.00  0.00    +0.000 NA
ATOM     25  S   UNL     1       1.223  11.404  18.916  0.00  0.00    +0.000 S 
ATOM     26  C   UNL     1       0.729  10.504  20.277  0.00  0.00    +0.000 A 
ATOM     27  C   UNL     1       0.044  10.993  21.423  0.00  0.00    +0.000 A 
ATOM     28  C   UNL     1      -0.269  10.108  22.449  0.00  0.00    +0.000 A 
ATOM     29  C   UNL     1       0.123   8.784  22.349  0.00  0.00    +0.000 A 
ATOM     30  C   UNL     1       0.816   8.301  21.197  0.00  0.00    +0.000 A 
ATOM     31  C   UNL     1       1.125   9.165  20.106  0.00  0.00    +0.000 A 
ENDBRANCH  20  23
ENDBRANCH   6  19
TORSDOF 5
ENDMDL
MODEL 3
REMARK VINA RESULT:      -8.6      2.787      7.043
REMARK  Name = 
REMARK  5 active torsions:
REMARK  status: ('A' for Active; 'I' for Inactive)
REMARK    1  A    between atoms: C_2  and  C_12
REMARK    2  A    between atoms: N_3  and  C_4
REMARK    3  A    between atoms: C_4  and  C_5
REMARK    4  A    between atoms: C_17  and  N_18
REMARK    5  A    between atoms: C_19  and  C_21
REMARK                            x       y       z     vdW  Elec       q    Type
REMARK                         _______ _______ _______ _____ _____    ______ ____
ROOT
ATOM      1  C   UNL     1       2.146   4.171  19.481  0.00  0.00    +0.000 A 
ATOM      2  C   UNL     1       1.082   4.042  20.403  0.00  0.00    +0.000 A 
ATOM      3  C   UNL     1       1.189   3.181  21.484  0.00  0.00    +0.000 A 
ATOM      4  C   UNL     1       2.369   2.436  21.631  0.00  0.00    +0.000 A 
ATOM      5  C   UNL     1       3.453   2.597  20.750  0.00  0.00    +0.000 A 
ATOM      6  C   UNL     1       3.394   3.492  19.676  0.00  0.00    +0.000 A 
ENDROOT
BRANCH   1   8
ATOM      7  O   UNL     1       1.035   4.178  17.390  0.00  0.00    +0.000 OA
ATOM      8  C   UNL     1       1.695   4.813  18.213  0.00  0.00    +0.000 C 
ATOM      9  N   UNL     1       2.168   6.068  17.884  0.00  0.00    +0.000 N 
ATOM     10  H   UNL     1       1.768   6.450  17.034  0.00  0.00    +0.000 HD
BRANCH   9  11
ATOM     11  C   UNL     1       2.805   6.969  18.796  0.00  0.00    +0.000 C 
BRANCH  11  12
ATOM     12  C   UNL     1       2.036   8.065  19.434  0.00  0.00    +0.000 A 
ATOM     13  C   UNL     1       1.527   7.880  20.729  0.00  0.00    +0.000 A 
ATOM     14  C   UNL     1       0.498   8.691  21.192  0.00  0.00    +0.000 A 
ATOM     15  C   UNL     1      -0.003   9.699  20.372  0.00  0.00    +0.000 A 
ATOM     16  C   UNL     1       0.512   9.885  19.095  0.00  0.00    +0.000 A 
ATOM     17  F   UNL     1      -0.029  10.792  18.280  0.00  0.00    +0.000 F 
ATOM     18  C   UNL     1       1.528   9.079  18.618  0.00  0.00    +0.000 A 
ENDBRANCH  11  12
ENDBRANCH   9  11
ENDBRANCH   1   8
BRANCH   6  19
ATOM     19  N   UNL     1       4.495   3.650  18.753  0.00  0.00    +0.000 N 
ATOM     20  C   UNL     1       4.570   3.287  17.371  0.00  0.00    +0.000 C 
ATOM     21  O   UNL     1       3.808   2.500  16.816  0.00  0.00    +0.000 OA
ATOM     22  H   UNL     1       5.158   4.395  18.977  0.00  0.00    +0.000 HD
BRANCH  20  23
ATOM     23  C   UNL     1       5.624   4.087  16.591  0.00  0.00    +0.000 A 
ATOM     24  N   UNL     1       6.264   5.017  17.318  0.00  0.00    +0.000 NA
ATOM     25  S   UNL     1       7.282   5.901  16.388  0.00  0.00    +0.000 S 
ATOM     26  C   UNL     1       6.984   5.086  14.920  0.00  0.00    +0.000 A 
ATOM     27  C   UNL     1       7.583   5.349  13.658  0.00  0.00    +0.000 A 
ATOM     28  C   UNL     1       7.205   4.584  12.560  0.00  0.00    +0.000 A 
ATOM     29  C   UNL     1       6.233   3.609  12.712  0.00  0.00    +0.000 A 
ATOM     30  C   UNL     1       5.632   3.354  13.982  0.00  0.00    +0.000 A 
ATOM     31  C   UNL     1       6.015   4.089  15.141  0.00  0.00    +0.000 A 
ENDBRANCH  20  23
ENDBRANCH   6  19
TORSDOF 5
ENDMDL
MODEL 4
REMARK VINA RESULT:      -8.6      2.515      4.965
REMARK  Name = 
REMARK  5 active torsions:
REMARK  status: ('A' for Active; 'I' for Inactive)
REMARK    1  A    between atoms: C_2  and  C_12
REMARK    2  A    between atoms: N_3  and  C_4
REMARK    3  A    between atoms: C_4  and  C_5
REMARK    4  A    between atoms: C_17  and  N_18
REMARK    5  A    between atoms: C_19  and  C_21
REMARK                            x       y       z     vdW  Elec       q    Type
REMARK                         _______ _______ _______ _____ _____    ______ ____
ROOT
ATOM      1  C   UNL     1       3.654   4.329  18.311  0.00  0.00    +0.000 A 
ATOM      2  C   UNL     1       3.744   3.073  17.666  0.00  0.00    +0.000 A 
ATOM      3  C   UNL     1       2.725   2.143  17.793  0.00  0.00    +0.000 A 
ATOM      4  C   UNL     1       1.613   2.473  18.584  0.00  0.00    +0.000 A 
ATOM      5  C   UNL     1       1.489   3.738  19.185  0.00  0.00    +0.000 A 
ATOM      6  C   UNL     1       2.480   4.715  19.038  0.00  0.00    +0.000 A 
ENDROOT
BRANCH   1   8
ATOM      7  O   UNL     1       5.566   5.120  19.461  0.00  0.00    +0.000 OA
ATOM      8  C   UNL     1       4.982   5.002  18.383  0.00  0.00    +0.000 C 
ATOM      9  N   UNL     1       5.475   5.649  17.267  0.00  0.00    +0.000 N 
ATOM     10  H   UNL     1       6.406   6.031  17.389  0.00  0.00    +0.000 HD
BRANCH   9  11
ATOM     11  C   UNL     1       4.989   5.467  15.933  0.00  0.00    +0.000 C 
BRANCH  11  12
ATOM     12  C   UNL     1       5.833   4.812  14.904  0.00  0.00    +0.000 A 
ATOM     13  C   UNL     1       7.098   5.349  14.615  0.00  0.00    +0.000 A 
ATOM     14  C   UNL     1       7.731   5.024  13.421  0.00  0.00    +0.000 A 
ATOM     15  C   UNL     1       7.113   4.147  12.533  0.00  0.00    +0.000 A 
ATOM     16  C   UNL     1       5.866   3.611  12.830  0.00  0.00    +0.000 A 
ATOM     17  F   UNL     1       5.238   2.843  11.938  0.00  0.00    +0.000 F 
ATOM     18  C   UNL     1       5.220   3.934  14.007  0.00  0.00    +0.000 A 
ENDBRANCH  11  12
ENDBRANCH   9  11
ENDBRANCH   1   8
BRANCH   6  19
ATOM     19  N   UNL     1       2.372   6.012  19.668  0.00  0.00    +0.000 N 
ATOM     20  C   UNL     1       2.244   7.301  19.060  0.00  0.00    +0.000 C 
ATOM     21  O   UNL     1       2.510   7.545  17.887  0.00  0.00    +0.000 OA
ATOM     22  H   UNL     1       2.000   6.011  20.620  0.00  0.00    +0.000 HD
BRANCH  20  23
ATOM     23  C   UNL     1       1.602   8.345  19.985  0.00  0.00    +0.000 A 
ATOM     24  N   UNL     1       1.725   8.076  21.295  0.00  0.00    +0.000 NA
ATOM     25  S   UNL     1       0.915   9.171  22.205  0.00  0.00    +0.000 S 
ATOM     26  C   UNL     1       0.353  10.137  20.917  0.00  0.00    +0.000 A 
ATOM     27  C   UNL     1      -0.435  11.317  21.012  0.00  0.00    +0.000 A 
ATOM     28  C   UNL     1      -0.813  11.970  19.844  0.00  0.00    +0.000 A 
ATOM     29  C   UNL     1      -0.445  11.441  18.619  0.00  0.00    +0.000 A 
ATOM     30  C   UNL     1       0.341  10.253  18.531  0.00  0.00    +0.000 A 
ATOM     31  C   UNL     1       0.781   9.570  19.702  0.00  0.00    +0.000 A 
ENDBRANCH  20  23
ENDBRANCH   6  19
TORSDOF 5
ENDMDL
MODEL 5
REMARK VINA RESULT:      -8.5      2.945      5.255
REMARK  Name = 
REMARK  5 active torsions:
REMARK  status: ('A' for Active; 'I' for Inactive)
REMARK    1  A    between atoms: C_2  and  C_12
REMARK    2  A    between atoms: N_3  and  C_4
REMARK    3  A    between atoms: C_4  and  C_5
REMARK    4  A    between atoms: C_17  and  N_18
REMARK    5  A    between atoms: C_19  and  C_21
REMARK                            x       y       z     vdW  Elec       q    Type
REMARK                         _______ _______ _______ _____ _____    ______ ____
ROOT
ATOM      1  C   UNL     1       3.726   4.245  18.058  0.00  0.00    +0.000 A 
ATOM      2  C   UNL     1       3.778   2.883  17.680  0.00  0.00    +0.000 A 
ATOM      3  C   UNL     1       2.674   2.064  17.850  0.00  0.00    +0.000 A 
ATOM      4  C   UNL     1       1.513   2.614  18.416  0.00  0.00    +0.000 A 
ATOM      5  C   UNL     1       1.434   3.979  18.745  0.00  0.00    +0.000 A 
ATOM      6  C   UNL     1       2.516   4.843  18.542  0.00  0.00    +0.000 A 
ENDROOT
BRANCH   1   8
ATOM      7  O   UNL     1       5.390   5.542  19.131  0.00  0.00    +0.000 OA
ATOM      8  C   UNL     1       5.091   4.833  18.170  0.00  0.00    +0.000 C 
ATOM      9  N   UNL     1       5.965   4.726  17.105  0.00  0.00    +0.000 N 
ATOM     10  H   UNL     1       6.887   5.105  17.287  0.00  0.00    +0.000 HD
BRANCH   9  11
ATOM     11  C   UNL     1       5.812   3.818  16.008  0.00  0.00    +0.000 C 
BRANCH  11  12
ATOM     12  C   UNL     1       6.127   4.247  14.624  0.00  0.00    +0.000 A 
ATOM     13  C   UNL     1       5.546   3.559  13.546  0.00  0.00    +0.000 A 
ATOM     14  C   UNL     1       6.106   3.660  12.278  0.00  0.00    +0.000 A 
ATOM     15  C   UNL     1       7.225   4.465  12.084  0.00  0.00    +0.000 A 
ATOM     16  C   UNL     1       7.789   5.152  13.152  0.00  0.00    +0.000 A 
ATOM     17  F   UNL     1       8.912   5.850  12.981  0.00  0.00    +0.000 F 
ATOM     18  C   UNL     1       7.250   5.052  14.420  0.00  0.00    +0.000 A 
ENDBRANCH  11  12
ENDBRANCH   9  11
ENDBRANCH   1   8
BRANCH   6  19
ATOM     19  N   UNL     1       2.452   6.243  18.896  0.00  0.00    +0.000 N 
ATOM     20  C   UNL     1       2.655   7.391  18.067  0.00  0.00    +0.000 C 
ATOM     21  O   UNL     1       3.219   7.370  16.977  0.00  0.00    +0.000 OA
ATOM     22  H   UNL     1       1.871   6.468  19.707  0.00  0.00    +0.000 HD
BRANCH  20  23
ATOM     23  C   UNL     1       1.972   8.656  18.607  0.00  0.00    +0.000 A 
ATOM     24  N   UNL     1       2.017   9.709  17.776  0.00  0.00    +0.000 NA
ATOM     25  S   UNL     1       1.374  11.045  18.473  0.00  0.00    +0.000 S 
ATOM     26  C   UNL     1       0.938  10.317  19.952  0.00  0.00    +0.000 A 
ATOM     27  C   UNL     1       0.289  10.940  21.054  0.00  0.00    +0.000 A 
ATOM     28  C   UNL     1       0.021  10.187  22.191  0.00  0.00    +0.000 A 
ATOM     29  C   UNL     1       0.421   8.862  22.240  0.00  0.00    +0.000 A 
ATOM     30  C   UNL     1       1.076   8.244  21.132  0.00  0.00    +0.000 A 
ATOM     31  C   UNL     1       1.338   8.968  19.932  0.00  0.00    +0.000 A 
ENDBRANCH  20  23
ENDBRANCH   6  19
TORSDOF 5
ENDMDL
MODEL 6
REMARK VINA RESULT:      -8.5      0.994      1.027
REMARK  Name = 
REMARK  5 active torsions:
REMARK  status: ('A' for Active; 'I' for Inactive)
REMARK    1  A    between atoms: C_2  and  C_12
REMARK    2  A    between atoms: N_3  and  C_4
REMARK    3  A    between atoms: C_4  and  C_5
REMARK    4  A    between atoms: C_17  and  N_18
REMARK    5  A    between atoms: C_19  and  C_21
REMARK                            x       y       z     vdW  Elec       q    Type
REMARK                         _______ _______ _______ _____ _____    ______ ____
ROOT
ATOM      1  C   UNL     1       6.101   5.220  17.665  0.00  0.00    +0.000 A 
ATOM      2  C   UNL     1       6.888   4.424  16.801  0.00  0.00    +0.000 A 
ATOM      3  C   UNL     1       6.672   4.447  15.432  0.00  0.00    +0.000 A 
ATOM      4  C   UNL     1       5.649   5.266  14.930  0.00  0.00    +0.000 A 
ATOM      5  C   UNL     1       4.897   6.102  15.774  0.00  0.00    +0.000 A 
ATOM      6  C   UNL     1       5.122   6.136  17.156  0.00  0.00    +0.000 A 
ENDROOT
BRANCH   1   8
ATOM      7  O   UNL     1       6.940   5.359  19.873  0.00  0.00    +0.000 OA
ATOM      8  C   UNL     1       6.211   4.764  19.080  0.00  0.00    +0.000 C 
ATOM      9  N   UNL     1       5.630   3.568  19.454  0.00  0.00    +0.000 N 
ATOM     10  H   UNL     1       5.708   3.363  20.443  0.00  0.00    +0.000 HD
BRANCH   9  11
ATOM     11  C   UNL     1       4.644   2.863  18.692  0.00  0.00    +0.000 C 
BRANCH  11  12
ATOM     12  C   UNL     1       3.208   2.950  19.053  0.00  0.00    +0.000 A 
ATOM     13  C   UNL     1       2.354   3.745  18.272  0.00  0.00    +0.000 A 
ATOM     14  C   UNL     1       1.133   4.163  18.789  0.00  0.00    +0.000 A 
ATOM     15  C   UNL     1       0.757   3.766  20.070  0.00  0.00    +0.000 A 
ATOM     16  C   UNL     1       1.603   2.970  20.833  0.00  0.00    +0.000 A 
ATOM     17  F   UNL     1       1.280   2.666  22.091  0.00  0.00    +0.000 F 
ATOM     18  C   UNL     1       2.823   2.556  20.337  0.00  0.00    +0.000 A 
ENDBRANCH  11  12
ENDBRANCH   9  11
ENDBRANCH   1   8
BRANCH   6  19
ATOM     19  N   UNL     1       4.341   6.976  18.035  0.00  0.00    +0.000 N 
ATOM     20  C   UNL     1       3.230   7.822  17.720  0.00  0.00    +0.000 C 
ATOM     21  O   UNL     1       2.949   8.207  16.589  0.00  0.00    +0.000 OA
ATOM     22  H   UNL     1       4.328   6.697  19.018  0.00  0.00    +0.000 HD
BRANCH  20  23
ATOM     23  C   UNL     1       2.323   8.104  18.926  0.00  0.00    +0.000 A 
ATOM     24  N   UNL     1       2.362   7.161  19.882  0.00  0.00    +0.000 NA
ATOM     25  S   UNL     1       1.282   7.477  21.072  0.00  0.00    +0.000 S 
ATOM     26  C   UNL     1       0.686   8.940  20.429  0.00  0.00    +0.000 A 
ATOM     27  C   UNL     1      -0.307   9.784  20.999  0.00  0.00    +0.000 A 
ATOM     28  C   UNL     1      -0.678  10.940  20.321  0.00  0.00    +0.000 A 
ATOM     29  C   UNL     1      -0.102  11.224  19.095  0.00  0.00    +0.000 A 
ATOM     30  C   UNL     1       0.890  10.369  18.526  0.00  0.00    +0.000 A 
ATOM     31  C   UNL     1       1.327   9.194  19.203  0.00  0.00    +0.000 A 
ENDBRANCH  20  23
ENDBRANCH   6  19
TORSDOF 5
ENDMDL
MODEL 7
REMARK VINA RESULT:      -8.5      3.863      7.976
REMARK  Name = 
REMARK  5 active torsions:
REMARK  status: ('A' for Active; 'I' for Inactive)
REMARK    1  A    between atoms: C_2  and  C_12
REMARK    2  A    between atoms: N_3  and  C_4
REMARK    3  A    between atoms: C_4  and  C_5
REMARK    4  A    between atoms: C_17  and  N_18
REMARK    5  A    between atoms: C_19  and  C_21
REMARK                            x       y       z     vdW  Elec       q    Type
REMARK                         _______ _______ _______ _____ _____    ______ ____
ROOT
ATOM      1  C   UNL     1       1.190   9.502  19.762  0.00  0.00    +0.000 A 
ATOM      2  C   UNL     1       0.428  10.541  20.344  0.00  0.00    +0.000 A 
ATOM      3  C   UNL     1      -0.146  10.377  21.594  0.00  0.00    +0.000 A 
ATOM      4  C   UNL     1       0.036   9.153  22.258  0.00  0.00    +0.000 A 
ATOM      5  C   UNL     1       0.837   8.135  21.712  0.00  0.00    +0.000 A 
ATOM      6  C   UNL     1       1.468   8.288  20.473  0.00  0.00    +0.000 A 
ENDROOT
BRANCH   1   8
ATOM      7  O   UNL     1       2.502   9.841  17.821  0.00  0.00    +0.000 OA
ATOM      8  C   UNL     1       1.374   9.713  18.298  0.00  0.00    +0.000 C 
ATOM      9  N   UNL     1       0.268   9.942  17.502  0.00  0.00    +0.000 N 
ATOM     10  H   UNL     1       0.479  10.021  16.514  0.00  0.00    +0.000 HD
BRANCH   9  11
ATOM     11  C   UNL     1      -1.086   9.676  17.885  0.00  0.00    +0.000 C 
BRANCH  11  12
ATOM     12  C   UNL     1      -2.203  10.460  17.304  0.00  0.00    +0.000 A 
ATOM     13  C   UNL     1      -3.017  11.225  18.155  0.00  0.00    +0.000 A 
ATOM     14  C   UNL     1      -4.273  11.636  17.726  0.00  0.00    +0.000 A 
ATOM     15  C   UNL     1      -4.702  11.307  16.443  0.00  0.00    +0.000 A 
ATOM     16  C   UNL     1      -3.887  10.558  15.601  0.00  0.00    +0.000 A 
ATOM     17  F   UNL     1      -4.337  10.169  14.408  0.00  0.00    +0.000 F 
ATOM     18  C   UNL     1      -2.642  10.133  16.018  0.00  0.00    +0.000 A 
ENDBRANCH  11  12
ENDBRANCH   9  11
ENDBRANCH   1   8
BRANCH   6  19
ATOM     19  N   UNL     1       2.277   7.239  19.894  0.00  0.00    +0.000 N 
ATOM     20  C   UNL     1       2.191   5.824  20.089  0.00  0.00    +0.000 C 
ATOM     21  O   UNL     1       1.604   5.286  21.023  0.00  0.00    +0.000 OA
ATOM     22  H   UNL     1       2.721   7.464  19.001  0.00  0.00    +0.000 HD
BRANCH  20  23
ATOM     23  C   UNL     1       2.794   5.016  18.931  0.00  0.00    +0.000 A 
ATOM     24  N   UNL     1       2.490   3.708  18.950  0.00  0.00    +0.000 NA
ATOM     25  S   UNL     1       3.265   2.900  17.754  0.00  0.00    +0.000 S 
ATOM     26  C   UNL     1       4.056   4.248  17.072  0.00  0.00    +0.000 A 
ATOM     27  C   UNL     1       4.915   4.253  15.939  0.00  0.00    +0.000 A 
ATOM     28  C   UNL     1       5.484   5.454  15.531  0.00  0.00    +0.000 A 
ATOM     29  C   UNL     1       5.230   6.608  16.253  0.00  0.00    +0.000 A 
ATOM     30  C   UNL     1       4.370   6.595  17.392  0.00  0.00    +0.000 A 
ATOM     31  C   UNL     1       3.737   5.393  17.825  0.00  0.00    +0.000 A 
ENDBRANCH  20  23
ENDBRANCH   6  19
TORSDOF 5
ENDMDL
MODEL 8
REMARK VINA RESULT:      -8.5      3.951      7.950
REMARK  Name = 
REMARK  5 active torsions:
REMARK  status: ('A' for Active; 'I' for Inactive)
REMARK    1  A    between atoms: C_2  and  C_12
REMARK    2  A    between atoms: N_3  and  C_4
REMARK    3  A    between atoms: C_4  and  C_5
REMARK    4  A    between atoms: C_17  and  N_18
REMARK    5  A    between atoms: C_19  and  C_21
REMARK                            x       y       z     vdW  Elec       q    Type
REMARK                         _______ _______ _______ _____ _____    ______ ____
ROOT
ATOM      1  C   UNL     1       1.189   9.582  19.771  0.00  0.00    +0.000 A 
ATOM      2  C   UNL     1       0.485  10.666  20.343  0.00  0.00    +0.000 A 
ATOM      3  C   UNL     1       0.035  10.600  21.653  0.00  0.00    +0.000 A 
ATOM      4  C   UNL     1       0.283   9.429  22.386  0.00  0.00    +0.000 A 
ATOM      5  C   UNL     1       1.029   8.368  21.844  0.00  0.00    +0.000 A 
ATOM      6  C   UNL     1       1.537   8.424  20.541  0.00  0.00    +0.000 A 
ENDROOT
BRANCH   1   8
ATOM      7  O   UNL     1       2.301   9.623  17.682  0.00  0.00    +0.000 OA
ATOM      8  C   UNL     1       1.229   9.682  18.284  0.00  0.00    +0.000 C 
ATOM      9  N   UNL     1       0.079  10.018  17.596  0.00  0.00    +0.000 N 
ATOM     10  H   UNL     1       0.183  10.009  16.588  0.00  0.00    +0.000 HD
BRANCH   9  11
ATOM     11  C   UNL     1      -1.245   9.965  18.139  0.00  0.00    +0.000 C 
BRANCH  11  12
ATOM     12  C   UNL     1      -2.428  10.130  17.260  0.00  0.00    +0.000 A 
ATOM     13  C   UNL     1      -2.363   9.676  15.933  0.00  0.00    +0.000 A 
ATOM     14  C   UNL     1      -3.267  10.155  14.992  0.00  0.00    +0.000 A 
ATOM     15  C   UNL     1      -4.248  11.063  15.383  0.00  0.00    +0.000 A 
ATOM     16  C   UNL     1      -4.314  11.500  16.700  0.00  0.00    +0.000 A 
ATOM     17  F   UNL     1      -5.197  12.436  17.051  0.00  0.00    +0.000 F 
ATOM     18  C   UNL     1      -3.415  11.042  17.643  0.00  0.00    +0.000 A 
ENDBRANCH  11  12
ENDBRANCH   9  11
ENDBRANCH   1   8
BRANCH   6  19
ATOM     19  N   UNL     1       2.288   7.330  19.966  0.00  0.00    +0.000 N 
ATOM     20  C   UNL     1       2.050   5.923  20.070  0.00  0.00    +0.000 C 
ATOM     21  O   UNL     1       1.337   5.400  20.921  0.00  0.00    +0.000 OA
ATOM     22  H   UNL     1       2.826   7.555  19.127  0.00  0.00    +0.000 HD
BRANCH  20  23
ATOM     23  C   UNL     1       2.669   5.118  18.918  0.00  0.00    +0.000 A 
ATOM     24  N   UNL     1       2.333   3.818  18.906  0.00  0.00    +0.000 NA
ATOM     25  S   UNL     1       3.126   3.011  17.722  0.00  0.00    +0.000 S 
ATOM     26  C   UNL     1       3.969   4.349  17.086  0.00  0.00    +0.000 A 
ATOM     27  C   UNL     1       4.864   4.351  15.980  0.00  0.00    +0.000 A 
ATOM     28  C   UNL     1       5.473   5.544  15.609  0.00  0.00    +0.000 A 
ATOM     29  C   UNL     1       5.224   6.693  16.342  0.00  0.00    +0.000 A 
ATOM     30  C   UNL     1       4.329   6.682  17.454  0.00  0.00    +0.000 A 
ATOM     31  C   UNL     1       3.654   5.490  17.848  0.00  0.00    +0.000 A 
ENDBRANCH  20  23
ENDBRANCH   6  19
TORSDOF 5
ENDMDL
MODEL 9
REMARK VINA RESULT:      -8.4      2.517      6.993
REMARK  Name = 
REMARK  5 active torsions:
REMARK  status: ('A' for Active; 'I' for Inactive)
REMARK    1  A    between atoms: C_2  and  C_12
REMARK    2  A    between atoms: N_3  and  C_4
REMARK    3  A    between atoms: C_4  and  C_5
REMARK    4  A    between atoms: C_17  and  N_18
REMARK    5  A    between atoms: C_19  and  C_21
REMARK                            x       y       z     vdW  Elec       q    Type
REMARK                         _______ _______ _______ _____ _____    ______ ____
ROOT
ATOM      1  C   UNL     1       2.143   4.230  19.537  0.00  0.00    +0.000 A 
ATOM      2  C   UNL     1       1.068   4.091  20.446  0.00  0.00    +0.000 A 
ATOM      3  C   UNL     1       1.152   3.197  21.502  0.00  0.00    +0.000 A 
ATOM      4  C   UNL     1       2.318   2.428  21.636  0.00  0.00    +0.000 A 
ATOM      5  C   UNL     1       3.413   2.598  20.771  0.00  0.00    +0.000 A 
ATOM      6  C   UNL     1       3.378   3.526  19.723  0.00  0.00    +0.000 A 
ENDROOT
BRANCH   1   8
ATOM      7  O   UNL     1       1.180   4.282  17.376  0.00  0.00    +0.000 OA
ATOM      8  C   UNL     1       1.714   4.916  18.286  0.00  0.00    +0.000 C 
ATOM      9  N   UNL     1       2.076   6.233  18.076  0.00  0.00    +0.000 N 
ATOM     10  H   UNL     1       1.697   6.636  17.227  0.00  0.00    +0.000 HD
BRANCH   9  11
ATOM     11  C   UNL     1       2.554   7.122  19.091  0.00  0.00    +0.000 C 
BRANCH  11  12
ATOM     12  C   UNL     1       1.658   8.147  19.680  0.00  0.00    +0.000 A 
ATOM     13  C   UNL     1       1.358   9.301  18.937  0.00  0.00    +0.000 A 
ATOM     14  C   UNL     1       0.869  10.431  19.582  0.00  0.00    +0.000 A 
ATOM     15  C   UNL     1       0.658  10.400  20.958  0.00  0.00    +0.000 A 
ATOM     16  C   UNL     1       0.947   9.252  21.685  0.00  0.00    +0.000 A 
ATOM     17  F   UNL     1       0.828   9.254  23.014  0.00  0.00    +0.000 F 
ATOM     18  C   UNL     1       1.443   8.125  21.060  0.00  0.00    +0.000 A 
ENDBRANCH  11  12
ENDBRANCH   9  11
ENDBRANCH   1   8
BRANCH   6  19
ATOM     19  N   UNL     1       4.490   3.693  18.815  0.00  0.00    +0.000 N 
ATOM     20  C   UNL     1       4.603   3.292  17.447  0.00  0.00    +0.000 C 
ATOM     21  O   UNL     1       3.879   2.463  16.903  0.00  0.00    +0.000 OA
ATOM     22  H   UNL     1       5.124   4.467  19.029  0.00  0.00    +0.000 HD
BRANCH  20  23
ATOM     23  C   UNL     1       5.644   4.104  16.662  0.00  0.00    +0.000 A 
ATOM     24  N   UNL     1       6.275   5.043  17.385  0.00  0.00    +0.000 NA
ATOM     25  S   UNL     1       7.279   5.938  16.449  0.00  0.00    +0.000 S 
ATOM     26  C   UNL     1       6.985   5.116  14.984  0.00  0.00    +0.000 A 
ATOM     27  C   UNL     1       7.576   5.385  13.719  0.00  0.00    +0.000 A 
ATOM     28  C   UNL     1       7.203   4.613  12.624  0.00  0.00    +0.000 A 
ATOM     29  C   UNL     1       6.244   3.626  12.782  0.00  0.00    +0.000 A 
ATOM     30  C   UNL     1       5.652   3.365  14.054  0.00  0.00    +0.000 A 
ATOM     31  C   UNL     1       6.030   4.108  15.211  0.00  0.00    +0.000 A 
ENDBRANCH  20  23
ENDBRANCH   6  19
TORSDOF 5
ENDMDL
