MODEL 1
REMARK VINA RESULT:      -9.0      0.000      0.000
REMARK  Name = 
REMARK  5 active torsions:
REMARK  status: ('A' for Active; 'I' for Inactive)
REMARK    1  A    between atoms: C_1  and  C_2
REMARK    2  A    between atoms: C_6  and  C_7
REMARK    3  A    between atoms: C_7  and  C_8
REMARK    4  A    between atoms: C_8  and  N_9
REMARK    5  A    between atoms: C_10  and  C_12
REMARK                            x       y       z     vdW  Elec       q    Type
REMARK                         _______ _______ _______ _____ _____    ______ ____
ROOT
ATOM      1  C   UNL     1       6.048   5.880  17.182  0.00  0.00    +0.000 A 
ATOM      2  C   UNL     1       5.656   5.019  16.138  0.00  0.00    +0.000 A 
ATOM      3  C   UNL     1       4.479   4.216  16.240  0.00  0.00    +0.000 A 
ATOM      4  C   UNL     1       3.864   4.191  17.500  0.00  0.00    +0.000 A 
ATOM      5  C   UNL     1       4.556   4.723  18.579  0.00  0.00    +0.000 A 
ATOM      6  C   UNL     1       5.431   5.783  18.428  0.00  0.00    +0.000 A 
ATOM      7  N   UNL     1       4.436   3.884  19.634  0.00  0.00    +0.000 NA
ATOM      8  C   UNL     1       3.591   2.950  19.232  0.00  0.00    +0.000 A 
ATOM      9  N   UNL     1       2.878   3.453  18.160  0.00  0.00    +0.000 N 
ATOM     10  C   UNL     1       1.488   3.883  18.431  0.00  0.00    +0.000 C 
ATOM     11  C   UNL     1       1.100   4.272  19.906  0.00  0.00    +0.000 C 
ATOM     12  C   UNL     1       1.162   3.204  21.028  0.00  0.00    +0.000 C 
ATOM     13  C   UNL     1       2.548   2.642  21.329  0.00  0.00    +0.000 C 
ATOM     14  C   UNL     1       3.070   1.896  20.114  0.00  0.00    +0.000 C 
ENDROOT
BRANCH   1  16
ATOM     15  N   UNL     1       7.140   7.947  18.030  0.00  0.00    +0.000 N 
ATOM     16  C   UNL     1       7.132   6.898  17.126  0.00  0.00    +0.000 C 
ATOM     17  O   UNL     1       7.953   6.819  16.212  0.00  0.00    +0.000 OA
ATOM     18  H   UNL     1       6.287   8.131  18.545  0.00  0.00    +0.000 HD
BRANCH  15  19
ATOM     19  C   UNL     1       8.073   9.055  17.781  0.00  0.00    +0.000 C 
BRANCH  19  20
ATOM     20  C   UNL     1       9.012   9.339  18.958  0.00  0.00    +0.000 C 
BRANCH  20  26
ATOM     21  C   UNL     1      11.223  13.304  16.707  0.00  0.00    +0.000 C 
ATOM     22  C   UNL     1      10.597  12.694  17.907  0.00  0.00    +0.000 A 
ATOM     23  C   UNL     1      10.444  13.423  19.093  0.00  0.00    +0.000 A 
ATOM     24  C   UNL     1       9.866  12.840  20.221  0.00  0.00    +0.000 A 
ATOM     25  C   UNL     1       9.411  11.520  20.182  0.00  0.00    +0.000 A 
ATOM     26  C   UNL     1       9.549  10.756  19.010  0.00  0.00    +0.000 A 
ATOM     27  C   UNL     1      10.165  11.347  17.897  0.00  0.00    +0.000 A 
ENDBRANCH  20  26
ENDBRANCH  19  20
ENDBRANCH  15  19
ENDBRANCH   1  16
TORSDOF 4
ENDMDL
MODEL 2
REMARK VINA RESULT:      -8.9      1.020      1.058
REMARK  Name = 
REMARK  5 active torsions:
REMARK  status: ('A' for Active; 'I' for Inactive)
REMARK    1  A    between atoms: C_1  and  C_2
REMARK    2  A    between atoms: C_6  and  C_7
REMARK    3  A    between atoms: C_7  and  C_8
REMARK    4  A    between atoms: C_8  and  N_9
REMARK    5  A    between atoms: C_10  and  C_12
REMARK                            x       y       z     vdW  Elec       q    Type
REMARK                         _______ _______ _______ _____ _____    ______ ____
ROOT
ATOM      1  C   UNL     1       6.512   6.066  17.580  0.00  0.00    +0.000 A 
ATOM      2  C   UNL     1       6.406   5.395  16.346  0.00  0.00    +0.000 A 
ATOM      3  C   UNL     1       5.274   4.581  16.036  0.00  0.00    +0.000 A 
ATOM      4  C   UNL     1       4.391   4.336  17.097  0.00  0.00    +0.000 A 
ATOM      5  C   UNL     1       4.794   4.677  18.380  0.00  0.00    +0.000 A 
ATOM      6  C   UNL     1       5.632   5.752  18.615  0.00  0.00    +0.000 A 
ATOM      7  N   UNL     1       4.475   3.668  19.224  0.00  0.00    +0.000 NA
ATOM      8  C   UNL     1       3.787   2.814  18.487  0.00  0.00    +0.000 A 
ATOM      9  N   UNL     1       3.314   3.490  17.378  0.00  0.00    +0.000 N 
ATOM     10  C   UNL     1       1.881   3.859  17.387  0.00  0.00    +0.000 C 
ATOM     11  C   UNL     1       1.151   3.986  18.775  0.00  0.00    +0.000 C 
ATOM     12  C   UNL     1       1.003   2.742  19.688  0.00  0.00    +0.000 C 
ATOM     13  C   UNL     1       2.308   2.144  20.204  0.00  0.00    +0.000 C 
ATOM     14  C   UNL     1       3.127   1.621  19.036  0.00  0.00    +0.000 C 
ENDROOT
BRANCH   1  16
ATOM     15  N   UNL     1       7.558   8.303  17.292  0.00  0.00    +0.000 N 
ATOM     16  C   UNL     1       7.533   7.084  17.948  0.00  0.00    +0.000 C 
ATOM     17  O   UNL     1       8.387   6.773  18.778  0.00  0.00    +0.000 OA
ATOM     18  H   UNL     1       7.044   8.381  16.423  0.00  0.00    +0.000 HD
BRANCH  15  19
ATOM     19  C   UNL     1       8.726   9.169  17.507  0.00  0.00    +0.000 C 
BRANCH  19  20
ATOM     20  C   UNL     1       8.636  10.011  18.784  0.00  0.00    +0.000 C 
BRANCH  20  26
ATOM     21  C   UNL     1      12.130  13.188  16.947  0.00  0.00    +0.000 C 
ATOM     22  C   UNL     1      11.477  12.529  18.106  0.00  0.00    +0.000 A 
ATOM     23  C   UNL     1      11.882  12.805  19.418  0.00  0.00    +0.000 A 
ATOM     24  C   UNL     1      11.273  12.174  20.502  0.00  0.00    +0.000 A 
ATOM     25  C   UNL     1      10.231  11.266  20.299  0.00  0.00    +0.000 A 
ATOM     26  C   UNL     1       9.798  10.962  18.997  0.00  0.00    +0.000 A 
ATOM     27  C   UNL     1      10.446  11.579  17.917  0.00  0.00    +0.000 A 
ENDBRANCH  20  26
ENDBRANCH  19  20
ENDBRANCH  15  19
ENDBRANCH   1  16
TORSDOF 4
ENDMDL
MODEL 3
REMARK VINA RESULT:      -8.9      4.743      7.326
REMARK  Name = 
REMARK  5 active torsions:
REMARK  status: ('A' for Active; 'I' for Inactive)
REMARK    1  A    between atoms: C_1  and  C_2
REMARK    2  A    between atoms: C_6  and  C_7
REMARK    3  A    between atoms: C_7  and  C_8
REMARK    4  A    between atoms: C_8  and  N_9
REMARK    5  A    between atoms: C_10  and  C_12
REMARK                            x       y       z     vdW  Elec       q    Type
REMARK                         _______ _______ _______ _____ _____    ______ ____
ROOT
ATOM      1  C   UNL     1       5.532   5.371  16.714  0.00  0.00    +0.000 A 
ATOM      2  C   UNL     1       4.725   6.525  16.709  0.00  0.00    +0.000 A 
ATOM      3  C   UNL     1       3.658   6.691  17.645  0.00  0.00    +0.000 A 
ATOM      4  C   UNL     1       3.346   5.564  18.419  0.00  0.00    +0.000 A 
ATOM      5  C   UNL     1       3.903   4.346  18.060  0.00  0.00    +0.000 A 
ATOM      6  C   UNL     1       5.151   4.263  17.470  0.00  0.00    +0.000 A 
ATOM      7  N   UNL     1       2.947   3.390  18.124  0.00  0.00    +0.000 NA
ATOM      8  C   UNL     1       1.890   4.000  18.632  0.00  0.00    +0.000 A 
ATOM      9  N   UNL     1       2.325   5.143  19.275  0.00  0.00    +0.000 N 
ATOM     10  C   UNL     1       2.378   5.092  20.754  0.00  0.00    +0.000 C 
ATOM     11  C   UNL     1       2.495   3.686  21.449  0.00  0.00    +0.000 C 
ATOM     12  C   UNL     1       1.354   2.649  21.293  0.00  0.00    +0.000 C 
ATOM     13  C   UNL     1       1.109   2.148  19.873  0.00  0.00    +0.000 C 
ATOM     14  C   UNL     1       0.650   3.300  18.997  0.00  0.00    +0.000 C 
ENDROOT
BRANCH   1  16
ATOM     15  N   UNL     1       6.830   5.546  14.599  0.00  0.00    +0.000 N 
ATOM     16  C   UNL     1       6.779   5.162  15.928  0.00  0.00    +0.000 C 
ATOM     17  O   UNL     1       7.712   4.570  16.472  0.00  0.00    +0.000 OA
ATOM     18  H   UNL     1       5.952   5.734  14.130  0.00  0.00    +0.000 HD
BRANCH  15  19
ATOM     19  C   UNL     1       7.979   5.094  13.802  0.00  0.00    +0.000 C 
BRANCH  19  20
ATOM     20  C   UNL     1       7.684   5.005  12.301  0.00  0.00    +0.000 C 
BRANCH  20  26
ATOM     21  C   UNL     1       3.239   2.871  11.128  0.00  0.00    +0.000 C 
ATOM     22  C   UNL     1       4.711   2.765  11.291  0.00  0.00    +0.000 A 
ATOM     23  C   UNL     1       5.384   1.566  11.022  0.00  0.00    +0.000 A 
ATOM     24  C   UNL     1       6.766   1.469  11.188  0.00  0.00    +0.000 A 
ATOM     25  C   UNL     1       7.508   2.574  11.608  0.00  0.00    +0.000 A 
ATOM     26  C   UNL     1       6.868   3.794  11.889  0.00  0.00    +0.000 A 
ATOM     27  C   UNL     1       5.474   3.863  11.752  0.00  0.00    +0.000 A 
ENDBRANCH  20  26
ENDBRANCH  19  20
ENDBRANCH  15  19
ENDBRANCH   1  16
TORSDOF 4
ENDMDL
MODEL 4
REMARK VINA RESULT:      -8.9      0.303      1.364
REMARK  Name = 
REMARK  5 active torsions:
REMARK  status: ('A' for Active; 'I' for Inactive)
REMARK    1  A    between atoms: C_1  and  C_2
REMARK    2  A    between atoms: C_6  and  C_7
REMARK    3  A    between atoms: C_7  and  C_8
REMARK    4  A    between atoms: C_8  and  N_9
REMARK    5  A    between atoms: C_10  and  C_12
REMARK                            x       y       z     vdW  Elec       q    Type
REMARK                         _______ _______ _______ _____ _____    ______ ____
ROOT
ATOM      1  C   UNL     1       6.055   5.856  17.209  0.00  0.00    +0.000 A 
ATOM      2  C   UNL     1       5.680   4.979  16.173  0.00  0.00    +0.000 A 
ATOM      3  C   UNL     1       4.510   4.166  16.273  0.00  0.00    +0.000 A 
ATOM      4  C   UNL     1       3.885   4.149  17.529  0.00  0.00    +0.000 A 
ATOM      5  C   UNL     1       4.563   4.700  18.607  0.00  0.00    +0.000 A 
ATOM      6  C   UNL     1       5.428   5.767  18.451  0.00  0.00    +0.000 A 
ATOM      7  N   UNL     1       4.443   3.872  19.670  0.00  0.00    +0.000 NA
ATOM      8  C   UNL     1       3.611   2.925  19.272  0.00  0.00    +0.000 A 
ATOM      9  N   UNL     1       2.902   3.408  18.189  0.00  0.00    +0.000 N 
ATOM     10  C   UNL     1       1.505   3.827  18.444  0.00  0.00    +0.000 C 
ATOM     11  C   UNL     1       1.101   4.228  19.910  0.00  0.00    +0.000 C 
ATOM     12  C   UNL     1       1.164   3.175  21.046  0.00  0.00    +0.000 C 
ATOM     13  C   UNL     1       2.553   2.631  21.364  0.00  0.00    +0.000 C 
ATOM     14  C   UNL     1       3.093   1.876  20.162  0.00  0.00    +0.000 C 
ENDROOT
BRANCH   1  16
ATOM     15  N   UNL     1       7.074   7.988  17.987  0.00  0.00    +0.000 N 
ATOM     16  C   UNL     1       7.129   6.885  17.151  0.00  0.00    +0.000 C 
ATOM     17  O   UNL     1       8.001   6.762  16.291  0.00  0.00    +0.000 OA
ATOM     18  H   UNL     1       6.191   8.190  18.440  0.00  0.00    +0.000 HD
BRANCH  15  19
ATOM     19  C   UNL     1       8.007   9.092  17.721  0.00  0.00    +0.000 C 
BRANCH  19  20
ATOM     20  C   UNL     1       9.009   9.330  18.856  0.00  0.00    +0.000 C 
BRANCH  20  26
ATOM     21  C   UNL     1       9.870  13.575  21.485  0.00  0.00    +0.000 C 
ATOM     22  C   UNL     1       9.990  12.799  20.226  0.00  0.00    +0.000 A 
ATOM     23  C   UNL     1      10.640  13.333  19.105  0.00  0.00    +0.000 A 
ATOM     24  C   UNL     1      10.739  12.604  17.921  0.00  0.00    +0.000 A 
ATOM     25  C   UNL     1      10.207  11.316  17.836  0.00  0.00    +0.000 A 
ATOM     26  C   UNL     1       9.545  10.747  18.938  0.00  0.00    +0.000 A 
ATOM     27  C   UNL     1       9.424  11.508  20.109  0.00  0.00    +0.000 A 
ENDBRANCH  20  26
ENDBRANCH  19  20
ENDBRANCH  15  19
ENDBRANCH   1  16
TORSDOF 4
ENDMDL
MODEL 5
REMARK VINA RESULT:      -8.5      4.743      7.381
REMARK  Name = 
REMARK  5 active torsions:
REMARK  status: ('A' for Active; 'I' for Inactive)
REMARK    1  A    between atoms: C_1  and  C_2
REMARK    2  A    between atoms: C_6  and  C_7
REMARK    3  A    between atoms: C_7  and  C_8
REMARK    4  A    between atoms: C_8  and  N_9
REMARK    5  A    between atoms: C_10  and  C_12
REMARK                            x       y       z     vdW  Elec       q    Type
REMARK                         _______ _______ _______ _____ _____    ______ ____
ROOT
ATOM      1  C   UNL     1       5.485   5.389  16.742  0.00  0.00    +0.000 A 
ATOM      2  C   UNL     1       4.692   6.553  16.757  0.00  0.00    +0.000 A 
ATOM      3  C   UNL     1       3.640   6.723  17.708  0.00  0.00    +0.000 A 
ATOM      4  C   UNL     1       3.324   5.594  18.478  0.00  0.00    +0.000 A 
ATOM      5  C   UNL     1       3.862   4.372  18.101  0.00  0.00    +0.000 A 
ATOM      6  C   UNL     1       5.101   4.280  17.494  0.00  0.00    +0.000 A 
ATOM      7  N   UNL     1       2.895   3.427  18.169  0.00  0.00    +0.000 NA
ATOM      8  C   UNL     1       1.852   4.046  18.696  0.00  0.00    +0.000 A 
ATOM      9  N   UNL     1       2.309   5.178  19.343  0.00  0.00    +0.000 N 
ATOM     10  C   UNL     1       2.381   5.114  20.820  0.00  0.00    +0.000 C 
ATOM     11  C   UNL     1       2.490   3.701  21.503  0.00  0.00    +0.000 C 
ATOM     12  C   UNL     1       1.335   2.678  21.353  0.00  0.00    +0.000 C 
ATOM     13  C   UNL     1       1.065   2.192  19.932  0.00  0.00    +0.000 C 
ATOM     14  C   UNL     1       0.608   3.358  19.072  0.00  0.00    +0.000 C 
ENDROOT
BRANCH   1  16
ATOM     15  N   UNL     1       6.701   5.395  14.572  0.00  0.00    +0.000 N 
ATOM     16  C   UNL     1       6.719   5.171  15.938  0.00  0.00    +0.000 C 
ATOM     17  O   UNL     1       7.708   4.713  16.511  0.00  0.00    +0.000 OA
ATOM     18  H   UNL     1       5.798   5.466  14.119  0.00  0.00    +0.000 HD
BRANCH  15  19
ATOM     19  C   UNL     1       7.855   4.930  13.790  0.00  0.00    +0.000 C 
BRANCH  19  20
ATOM     20  C   UNL     1       7.583   4.862  12.283  0.00  0.00    +0.000 C 
BRANCH  20  26
ATOM     21  C   UNL     1       6.283   0.090  11.182  0.00  0.00    +0.000 C 
ATOM     22  C   UNL     1       5.904   1.513  11.368  0.00  0.00    +0.000 A 
ATOM     23  C   UNL     1       4.576   1.934  11.221  0.00  0.00    +0.000 A 
ATOM     24  C   UNL     1       4.228   3.274  11.386  0.00  0.00    +0.000 A 
ATOM     25  C   UNL     1       5.198   4.222  11.720  0.00  0.00    +0.000 A 
ATOM     26  C   UNL     1       6.541   3.838  11.875  0.00  0.00    +0.000 A 
ATOM     27  C   UNL     1       6.879   2.493  11.670  0.00  0.00    +0.000 A 
ENDBRANCH  20  26
ENDBRANCH  19  20
ENDBRANCH  15  19
ENDBRANCH   1  16
TORSDOF 4
ENDMDL
MODEL 6
REMARK VINA RESULT:      -8.4      1.187      1.813
REMARK  Name = 
REMARK  5 active torsions:
REMARK  status: ('A' for Active; 'I' for Inactive)
REMARK    1  A    between atoms: C_1  and  C_2
REMARK    2  A    between atoms: C_6  and  C_7
REMARK    3  A    between atoms: C_7  and  C_8
REMARK    4  A    between atoms: C_8  and  N_9
REMARK    5  A    between atoms: C_10  and  C_12
REMARK                            x       y       z     vdW  Elec       q    Type
REMARK                         _______ _______ _______ _____ _____    ______ ____
ROOT
ATOM      1  C   UNL     1       6.723   5.965  17.697  0.00  0.00    +0.000 A 
ATOM      2  C   UNL     1       6.822   5.201  16.517  0.00  0.00    +0.000 A 
ATOM      3  C   UNL     1       5.760   4.343  16.096  0.00  0.00    +0.000 A 
ATOM      4  C   UNL     1       4.720   4.162  17.019  0.00  0.00    +0.000 A 
ATOM      5  C   UNL     1       4.910   4.608  18.318  0.00  0.00    +0.000 A 
ATOM      6  C   UNL     1       5.691   5.714  18.600  0.00  0.00    +0.000 A 
ATOM      7  N   UNL     1       4.467   3.660  19.177  0.00  0.00    +0.000 NA
ATOM      8  C   UNL     1       3.912   2.738  18.409  0.00  0.00    +0.000 A 
ATOM      9  N   UNL     1       3.619   3.319  17.190  0.00  0.00    +0.000 N 
ATOM     10  C   UNL     1       2.200   3.659  16.942  0.00  0.00    +0.000 C 
ATOM     11  C   UNL     1       1.256   3.877  18.181  0.00  0.00    +0.000 C 
ATOM     12  C   UNL     1       0.973   2.703  19.153  0.00  0.00    +0.000 C 
ATOM     13  C   UNL     1       2.183   2.171  19.916  0.00  0.00    +0.000 C 
ATOM     14  C   UNL     1       3.182   1.577  18.938  0.00  0.00    +0.000 C 
ENDROOT
BRANCH   1  16
ATOM     15  N   UNL     1       7.687   8.248  17.486  0.00  0.00    +0.000 N 
ATOM     16  C   UNL     1       7.665   7.029  18.142  0.00  0.00    +0.000 C 
ATOM     17  O   UNL     1       8.462   6.756  19.038  0.00  0.00    +0.000 OA
ATOM     18  H   UNL     1       7.241   8.303  16.578  0.00  0.00    +0.000 HD
BRANCH  15  19
ATOM     19  C   UNL     1       8.794   9.166  17.791  0.00  0.00    +0.000 C 
BRANCH  19  20
ATOM     20  C   UNL     1       8.332  10.584  18.141  0.00  0.00    +0.000 C 
BRANCH  20  26
ATOM     21  C   UNL     1      10.132  13.992  21.431  0.00  0.00    +0.000 C 
ATOM     22  C   UNL     1      10.323  13.145  20.227  0.00  0.00    +0.000 A 
ATOM     23  C   UNL     1      11.537  13.144  19.527  0.00  0.00    +0.000 A 
ATOM     24  C   UNL     1      11.707  12.355  18.390  0.00  0.00    +0.000 A 
ATOM     25  C   UNL     1      10.671  11.535  17.936  0.00  0.00    +0.000 A 
ATOM     26  C   UNL     1       9.438  11.511  18.610  0.00  0.00    +0.000 A 
ATOM     27  C   UNL     1       9.273  12.337  19.731  0.00  0.00    +0.000 A 
ENDBRANCH  20  26
ENDBRANCH  19  20
ENDBRANCH  15  19
ENDBRANCH   1  16
TORSDOF 4
ENDMDL
MODEL 7
REMARK VINA RESULT:      -8.3      5.567      8.722
REMARK  Name = 
REMARK  5 active torsions:
REMARK  status: ('A' for Active; 'I' for Inactive)
REMARK    1  A    between atoms: C_1  and  C_2
REMARK    2  A    between atoms: C_6  and  C_7
REMARK    3  A    between atoms: C_7  and  C_8
REMARK    4  A    between atoms: C_8  and  N_9
REMARK    5  A    between atoms: C_10  and  C_12
REMARK                            x       y       z     vdW  Elec       q    Type
REMARK                         _______ _______ _______ _____ _____    ______ ____
ROOT
ATOM      1  C   UNL     1       2.030   7.557  19.631  0.00  0.00    +0.000 A 
ATOM      2  C   UNL     1       1.875   6.380  20.390  0.00  0.00    +0.000 A 
ATOM      3  C   UNL     1       2.826   5.317  20.315  0.00  0.00    +0.000 A 
ATOM      4  C   UNL     1       3.794   5.434  19.307  0.00  0.00    +0.000 A 
ATOM      5  C   UNL     1       3.615   6.407  18.335  0.00  0.00    +0.000 A 
ATOM      6  C   UNL     1       2.981   7.604  18.613  0.00  0.00    +0.000 A 
ATOM      7  N   UNL     1       3.890   5.871  17.122  0.00  0.00    +0.000 NA
ATOM      8  C   UNL     1       4.344   4.658  17.382  0.00  0.00    +0.000 A 
ATOM      9  N   UNL     1       4.762   4.631  18.699  0.00  0.00    +0.000 N 
ATOM     10  C   UNL     1       6.223   4.681  18.932  0.00  0.00    +0.000 C 
ATOM     11  C   UNL     1       7.138   5.301  17.813  0.00  0.00    +0.000 C 
ATOM     12  C   UNL     1       7.219   4.628  16.419  0.00  0.00    +0.000 C 
ATOM     13  C   UNL     1       5.919   4.602  15.622  0.00  0.00    +0.000 C 
ATOM     14  C   UNL     1       4.888   3.760  16.353  0.00  0.00    +0.000 C 
ENDROOT
BRANCH   1  16
ATOM     15  N   UNL     1       0.734   9.426  18.624  0.00  0.00    +0.000 N 
ATOM     16  C   UNL     1       1.225   8.803  19.759  0.00  0.00    +0.000 C 
ATOM     17  O   UNL     1       1.090   9.291  20.881  0.00  0.00    +0.000 OA
ATOM     18  H   UNL     1       1.133   9.160  17.732  0.00  0.00    +0.000 HD
BRANCH  15  19
ATOM     19  C   UNL     1       0.168  10.774  18.777  0.00  0.00    +0.000 C 
BRANCH  19  20
ATOM     20  C   UNL     1      -1.275  10.775  19.292  0.00  0.00    +0.000 C 
BRANCH  20  26
ATOM     21  C   UNL     1      -2.920  10.041  14.555  0.00  0.00    +0.000 C 
ATOM     22  C   UNL     1      -3.141  10.576  15.922  0.00  0.00    +0.000 A 
ATOM     23  C   UNL     1      -4.339  11.218  16.264  0.00  0.00    +0.000 A 
ATOM     24  C   UNL     1      -4.535  11.729  17.546  0.00  0.00    +0.000 A 
ATOM     25  C   UNL     1      -3.545  11.595  18.522  0.00  0.00    +0.000 A 
ATOM     26  C   UNL     1      -2.329  10.960  18.216  0.00  0.00    +0.000 A 
ATOM     27  C   UNL     1      -2.134  10.483  16.912  0.00  0.00    +0.000 A 
ENDBRANCH  20  26
ENDBRANCH  19  20
ENDBRANCH  15  19
ENDBRANCH   1  16
TORSDOF 4
ENDMDL
MODEL 8
REMARK VINA RESULT:      -8.3      7.238     10.648
REMARK  Name = 
REMARK  5 active torsions:
REMARK  status: ('A' for Active; 'I' for Inactive)
REMARK    1  A    between atoms: C_1  and  C_2
REMARK    2  A    between atoms: C_6  and  C_7
REMARK    3  A    between atoms: C_7  and  C_8
REMARK    4  A    between atoms: C_8  and  N_9
REMARK    5  A    between atoms: C_10  and  C_12
REMARK                            x       y       z     vdW  Elec       q    Type
REMARK                         _______ _______ _______ _____ _____    ______ ____
ROOT
ATOM      1  C   UNL     1       0.367   9.888  20.759  0.00  0.00    +0.000 A 
ATOM      2  C   UNL     1       0.399   9.373  22.070  0.00  0.00    +0.000 A 
ATOM      3  C   UNL     1      -0.426   9.916  23.102  0.00  0.00    +0.000 A 
ATOM      4  C   UNL     1      -1.105  11.101  22.781  0.00  0.00    +0.000 A 
ATOM      5  C   UNL     1      -0.745  11.769  21.620  0.00  0.00    +0.000 A 
ATOM      6  C   UNL     1      -0.287  11.092  20.504  0.00  0.00    +0.000 A 
ATOM      7  N   UNL     1      -0.658  13.094  21.885  0.00  0.00    +0.000 NA
ATOM      8  C   UNL     1      -1.082  13.220  23.130  0.00  0.00    +0.000 A 
ATOM      9  N   UNL     1      -1.825  12.097  23.444  0.00  0.00    +0.000 N 
ATOM     10  C   UNL     1      -3.296  12.260  23.461  0.00  0.00    +0.000 C 
ATOM     11  C   UNL     1      -3.928  13.432  22.623  0.00  0.00    +0.000 C 
ATOM     12  C   UNL     1      -3.599  14.904  22.982  0.00  0.00    +0.000 C 
ATOM     13  C   UNL     1      -2.137  15.311  22.821  0.00  0.00    +0.000 C 
ATOM     14  C   UNL     1      -1.277  14.518  23.791  0.00  0.00    +0.000 C 
ENDROOT
BRANCH   1  16
ATOM     15  N   UNL     1       1.709   8.098  19.673  0.00  0.00    +0.000 N 
ATOM     16  C   UNL     1       1.026   9.297  19.562  0.00  0.00    +0.000 C 
ATOM     17  O   UNL     1       1.010   9.944  18.515  0.00  0.00    +0.000 OA
ATOM     18  H   UNL     1       1.950   7.778  20.603  0.00  0.00    +0.000 HD
BRANCH  15  19
ATOM     19  C   UNL     1       2.548   7.684  18.539  0.00  0.00    +0.000 C 
BRANCH  19  20
ATOM     20  C   UNL     1       3.393   6.439  18.827  0.00  0.00    +0.000 C 
BRANCH  20  26
ATOM     21  C   UNL     1       1.511   2.743  21.739  0.00  0.00    +0.000 C 
ATOM     22  C   UNL     1       1.657   3.378  20.405  0.00  0.00    +0.000 A 
ATOM     23  C   UNL     1       1.027   2.840  19.275  0.00  0.00    +0.000 A 
ATOM     24  C   UNL     1       1.178   3.434  18.022  0.00  0.00    +0.000 A 
ATOM     25  C   UNL     1       1.948   4.590  17.874  0.00  0.00    +0.000 A 
ATOM     26  C   UNL     1       2.596   5.157  18.984  0.00  0.00    +0.000 A 
ATOM     27  C   UNL     1       2.463   4.527  20.230  0.00  0.00    +0.000 A 
ENDBRANCH  20  26
ENDBRANCH  19  20
ENDBRANCH  15  19
ENDBRANCH   1  16
TORSDOF 4
ENDMDL
MODEL 9
REMARK VINA RESULT:      -8.3      2.538     10.387
REMARK  Name = 
REMARK  5 active torsions:
REMARK  status: ('A' for Active; 'I' for Inactive)
REMARK    1  A    between atoms: C_1  and  C_2
REMARK    2  A    between atoms: C_6  and  C_7
REMARK    3  A    between atoms: C_7  and  C_8
REMARK    4  A    between atoms: C_8  and  N_9
REMARK    5  A    between atoms: C_10  and  C_12
REMARK                            x       y       z     vdW  Elec       q    Type
REMARK                         _______ _______ _______ _____ _____    ______ ____
ROOT
ATOM      1  C   UNL     1       9.010  10.237  18.858  0.00  0.00    +0.000 A 
ATOM      2  C   UNL     1       9.595  10.466  20.118  0.00  0.00    +0.000 A 
ATOM      3  C   UNL     1       9.949  11.782  20.546  0.00  0.00    +0.000 A 
ATOM      4  C   UNL     1       9.862  12.785  19.568  0.00  0.00    +0.000 A 
ATOM      5  C   UNL     1       9.691  12.400  18.247  0.00  0.00    +0.000 A 
ATOM      6  C   UNL     1       8.989  11.257  17.908  0.00  0.00    +0.000 A 
ATOM      7  N   UNL     1      10.520  13.131  17.466  0.00  0.00    +0.000 NA
ATOM      8  C   UNL     1      11.069  14.012  18.284  0.00  0.00    +0.000 A 
ATOM      9  N   UNL     1      10.266  14.112  19.405  0.00  0.00    +0.000 N 
ATOM     10  C   UNL     1       9.407  15.314  19.499  0.00  0.00    +0.000 C 
ATOM     11  C   UNL     1       9.029  16.069  18.172  0.00  0.00    +0.000 C 
ATOM     12  C   UNL     1      10.140  16.731  17.316  0.00  0.00    +0.000 C 
ATOM     13  C   UNL     1      11.168  15.777  16.716  0.00  0.00    +0.000 C 
ATOM     14  C   UNL     1      11.947  15.100  17.830  0.00  0.00    +0.000 C 
ENDROOT
BRANCH   1  16
ATOM     15  N   UNL     1       8.583   7.801  19.123  0.00  0.00    +0.000 N 
ATOM     16  C   UNL     1       8.427   8.955  18.374  0.00  0.00    +0.000 C 
ATOM     17  O   UNL     1       7.888   8.946  17.268  0.00  0.00    +0.000 OA
ATOM     18  H   UNL     1       9.288   7.804  19.850  0.00  0.00    +0.000 HD
BRANCH  15  19
ATOM     19  C   UNL     1       8.216   6.525  18.493  0.00  0.00    +0.000 C 
BRANCH  19  20
ATOM     20  C   UNL     1       7.158   5.740  19.276  0.00  0.00    +0.000 C 
BRANCH  20  26
ATOM     21  C   UNL     1       5.416   4.271  14.749  0.00  0.00    +0.000 C 
ATOM     22  C   UNL     1       5.246   4.366  16.221  0.00  0.00    +0.000 A 
ATOM     23  C   UNL     1       4.116   3.833  16.855  0.00  0.00    +0.000 A 
ATOM     24  C   UNL     1       3.956   3.935  18.237  0.00  0.00    +0.000 A 
ATOM     25  C   UNL     1       4.932   4.558  19.018  0.00  0.00    +0.000 A 
ATOM     26  C   UNL     1       6.079   5.106  18.418  0.00  0.00    +0.000 A 
ATOM     27  C   UNL     1       6.206   5.025  17.024  0.00  0.00    +0.000 A 
ENDBRANCH  20  26
ENDBRANCH  19  20
ENDBRANCH  15  19
ENDBRANCH   1  16
TORSDOF 4
ENDMDL
